MODEL        1
REMARK 921   NORMALIZED FREE ENERGY PREDICTED BY IDOCK:   -7.15 KCAL/MOL
REMARK 922        TOTAL FREE ENERGY PREDICTED BY IDOCK:   -7.88 KCAL/MOL
REMARK 923 INTER-LIGAND FREE ENERGY PREDICTED BY IDOCK:   -7.57 KCAL/MOL
REMARK 924 INTRA-LIGAND FREE ENERGY PREDICTED BY IDOCK:   -0.30 KCAL/MOL
REMARK 927      BINDING AFFINITY PREDICTED BY RF-SCORE:    0.00 PKD
ROOT
HETATM    1  C   UNL     1     -12.451   9.175  71.624  1.00  0.00    -0.434 C  
HETATM    2  C   UNL     1     -11.335  10.059  71.057  1.00  0.00    -0.434 C  
HETATM    3  C   UNL     1     -10.147   9.190  70.651  1.00  0.00    -0.307 C  
HETATM    4  C   UNL     1     -11.876  10.857  69.872  1.00  0.00    -0.349 C  
HETATM    5  O   UNL     1     -13.027  10.698  69.480  1.00  0.00    -0.089 OA 
HETATM    6  N   UNL     1     -10.978  11.771  69.334  1.00  0.00    -0.425 N  
HETATM    7  H   UNL     1     -10.099  11.913  69.833  1.00  0.00     0.000 HD 
ENDROOT
BRANCH   6   8
HETATM    8  C   UNL     1     -11.182  12.521  68.154  1.00  0.00    -0.267 A  
HETATM    9  C   UNL     1     -11.088  11.957  66.875  1.00  0.00    -0.356 A  
HETATM   10  C   UNL     1     -11.259  12.717  65.703  1.00  0.00    -0.344 A  
HETATM   11  C   UNL     1     -11.091  12.054  64.361  1.00  0.00    -0.342 C  
HETATM   12  C   UNL     1     -11.527  14.081  65.853  1.00  0.00    -0.330 A  
HETATM   13  F   UNL     1     -10.705  10.750  64.450  1.00  0.00    -0.425 F  
HETATM   14  F   UNL     1     -12.227  12.041  63.618  1.00  0.00    -0.511 F  
HETATM   15  N   UNL     1     -11.674  14.945  64.690  1.00  0.00    -0.420 N  
HETATM   16  F   UNL     1     -10.135  12.662  63.608  1.00  0.00    -0.409 F  
HETATM   17  C   UNL     1     -11.625  14.674  67.120  1.00  0.00    -0.394 A  
HETATM   18  C   UNL     1     -11.446  13.891  68.267  1.00  0.00    -0.346 A  
HETATM   19  O   UNL     1     -12.567  14.664  63.887  1.00  0.00    -0.834 OA 
HETATM   20  O   UNL     1     -10.908  15.914  64.615  1.00  0.00    -0.557 OA 
ENDBRANCH   6   8
TORSDOF 1
ENDMDL
MODEL        2
REMARK 921   NORMALIZED FREE ENERGY PREDICTED BY IDOCK:   -6.91 KCAL/MOL
REMARK 922        TOTAL FREE ENERGY PREDICTED BY IDOCK:   -7.62 KCAL/MOL
REMARK 923 INTER-LIGAND FREE ENERGY PREDICTED BY IDOCK:   -7.32 KCAL/MOL
REMARK 924 INTRA-LIGAND FREE ENERGY PREDICTED BY IDOCK:   -0.31 KCAL/MOL
REMARK 927      BINDING AFFINITY PREDICTED BY RF-SCORE:    0.00 PKD
ROOT
HETATM    1  C   UNL     1     -11.842   6.566  72.178  1.00  0.00    -0.348 C  
HETATM    2  C   UNL     1     -12.639   7.459  71.222  1.00  0.00    -0.376 C  
HETATM    3  C   UNL     1     -14.106   7.486  71.647  1.00  0.00    -0.562 C  
HETATM    4  C   UNL     1     -12.033   8.861  71.217  1.00  0.00    -0.307 C  
HETATM    5  O   UNL     1     -11.086   9.141  71.946  1.00  0.00    -0.364 OA 
HETATM    6  N   UNL     1     -12.614   9.738  70.308  1.00  0.00    -0.490 N  
HETATM    7  H   UNL     1     -13.300   9.352  69.659  1.00  0.00     0.000 HD 
ENDROOT
BRANCH   6   8
HETATM    8  C   UNL     1     -12.335  11.120  70.211  1.00  0.00    -0.315 A  
HETATM    9  C   UNL     1     -12.826  12.057  71.131  1.00  0.00    -0.331 A  
HETATM   10  C   UNL     1     -12.572  13.436  71.009  1.00  0.00    -0.425 A  
HETATM   11  C   UNL     1     -13.177  14.390  72.004  1.00  0.00    -0.369 C  
HETATM   12  C   UNL     1     -11.802  13.855  69.919  1.00  0.00    -0.328 A  
HETATM   13  F   UNL     1     -13.996  13.778  72.906  1.00  0.00    -0.527 F  
HETATM   14  F   UNL     1     -12.256  15.051  72.750  1.00  0.00    -0.384 F  
HETATM   15  N   UNL     1     -11.530  15.268  69.698  1.00  0.00    -0.282 N  
HETATM   16  F   UNL     1     -13.947  15.335  71.402  1.00  0.00    -0.472 F  
HETATM   17  C   UNL     1     -11.298  12.941  68.982  1.00  0.00    -0.341 A  
HETATM   18  C   UNL     1     -11.572  11.575  69.130  1.00  0.00    -0.382 A  
HETATM   19  O   UNL     1     -10.938  15.876  70.593  1.00  0.00    -0.326 OA 
HETATM   20  O   UNL     1     -11.888  15.741  68.612  1.00  0.00    -0.385 OA 
ENDBRANCH   6   8
TORSDOF 1
ENDMDL
MODEL        3
REMARK 921   NORMALIZED FREE ENERGY PREDICTED BY IDOCK:   -6.88 KCAL/MOL
REMARK 922        TOTAL FREE ENERGY PREDICTED BY IDOCK:   -7.59 KCAL/MOL
REMARK 923 INTER-LIGAND FREE ENERGY PREDICTED BY IDOCK:   -7.27 KCAL/MOL
REMARK 924 INTRA-LIGAND FREE ENERGY PREDICTED BY IDOCK:   -0.31 KCAL/MOL
REMARK 927      BINDING AFFINITY PREDICTED BY RF-SCORE:    0.00 PKD
ROOT
HETATM    1  C   UNL     1      -9.445   9.027  71.191  1.00  0.00    -0.348 C  
HETATM    2  C   UNL     1     -10.777   9.397  70.531  1.00  0.00    -0.335 C  
HETATM    3  C   UNL     1     -11.731   9.964  71.580  1.00  0.00    -0.414 C  
HETATM    4  C   UNL     1     -10.522  10.399  69.407  1.00  0.00    -0.238 C  
HETATM    5  O   UNL     1      -9.391  10.822  69.185  1.00  0.00    -0.190 OA 
HETATM    6  N   UNL     1     -11.649  10.737  68.667  1.00  0.00    -0.405 N  
HETATM    7  H   UNL     1     -12.505  10.215  68.855  1.00  0.00     0.000 HD 
ENDROOT
BRANCH   6   8
HETATM    8  C   UNL     1     -11.706  11.742  67.675  1.00  0.00    -0.250 A  
HETATM    9  C   UNL     1     -11.530  11.469  66.312  1.00  0.00    -0.124 A  
HETATM   10  C   UNL     1     -11.554  12.480  65.333  1.00  0.00    -0.416 A  
HETATM   11  C   UNL     1     -11.304  12.121  63.892  1.00  0.00    -0.426 C  
HETATM   12  C   UNL     1     -11.760  13.793  65.768  1.00  0.00    -0.349 A  
HETATM   13  F   UNL     1     -10.999  10.804  63.712  1.00  0.00    -0.359 F  
HETATM   14  F   UNL     1     -12.368  12.355  63.083  1.00  0.00    -0.561 F  
HETATM   15  N   UNL     1     -11.756  14.901  64.824  1.00  0.00    -0.410 N  
HETATM   16  F   UNL     1     -10.253  12.809  63.371  1.00  0.00    -0.357 F  
HETATM   17  C   UNL     1     -11.938  14.097  67.126  1.00  0.00    -0.460 A  
HETATM   18  C   UNL     1     -11.904  13.068  68.076  1.00  0.00    -0.391 A  
HETATM   19  O   UNL     1     -12.588  14.870  63.914  1.00  0.00    -0.831 OA 
HETATM   20  O   UNL     1     -10.935  15.805  65.027  1.00  0.00    -0.410 OA 
ENDBRANCH   6   8
TORSDOF 1
ENDMDL
MODEL        4
REMARK 921   NORMALIZED FREE ENERGY PREDICTED BY IDOCK:   -6.85 KCAL/MOL
REMARK 922        TOTAL FREE ENERGY PREDICTED BY IDOCK:   -7.56 KCAL/MOL
REMARK 923 INTER-LIGAND FREE ENERGY PREDICTED BY IDOCK:   -7.25 KCAL/MOL
REMARK 924 INTRA-LIGAND FREE ENERGY PREDICTED BY IDOCK:   -0.31 KCAL/MOL
REMARK 927      BINDING AFFINITY PREDICTED BY RF-SCORE:    0.00 PKD
ROOT
HETATM    1  C   UNL     1      -6.749  17.712  67.714  1.00  0.00    -0.190 C  
HETATM    2  C   UNL     1      -8.273  17.866  67.741  1.00  0.00    -0.233 C  
HETATM    3  C   UNL     1      -8.839  17.623  66.344  1.00  0.00    -0.263 C  
HETATM    4  C   UNL     1      -8.861  16.893  68.761  1.00  0.00    -0.255 C  
HETATM    5  O   UNL     1      -8.141  16.110  69.372  1.00  0.00    -0.226 OA 
HETATM    6  N   UNL     1     -10.234  17.010  68.946  1.00  0.00    -0.305 N  
HETATM    7  H   UNL     1     -10.703  17.790  68.485  1.00  0.00     0.000 HD 
ENDROOT
BRANCH   6   8
HETATM    8  C   UNL     1     -11.033  16.137  69.719  1.00  0.00    -0.349 A  
HETATM    9  C   UNL     1     -11.375  16.407  71.051  1.00  0.00    -0.207 A  
HETATM   10  C   UNL     1     -12.142  15.518  71.825  1.00  0.00    -0.476 A  
HETATM   11  C   UNL     1     -12.427  15.849  73.267  1.00  0.00    -0.523 C  
HETATM   12  C   UNL     1     -12.561  14.330  71.218  1.00  0.00    -0.364 A  
HETATM   13  F   UNL     1     -11.815  16.993  73.686  1.00  0.00    -0.493 F  
HETATM   14  F   UNL     1     -13.745  16.031  73.531  1.00  0.00    -0.601 F  
HETATM   15  N   UNL     1     -13.321  13.338  71.963  1.00  0.00    -0.469 N  
HETATM   16  F   UNL     1     -11.987  14.876  74.109  1.00  0.00    -0.619 F  
HETATM   17  C   UNL     1     -12.232  14.032  69.887  1.00  0.00    -0.399 A  
HETATM   18  C   UNL     1     -11.463  14.937  69.144  1.00  0.00    -0.324 A  
HETATM   19  O   UNL     1     -14.401  13.696  72.441  1.00  0.00    -0.661 OA 
HETATM   20  O   UNL     1     -12.838  12.201  72.034  1.00  0.00    -0.289 OA 
ENDBRANCH   6   8
TORSDOF 1
ENDMDL
MODEL        5
REMARK 921   NORMALIZED FREE ENERGY PREDICTED BY IDOCK:   -6.75 KCAL/MOL
REMARK 922        TOTAL FREE ENERGY PREDICTED BY IDOCK:   -7.45 KCAL/MOL
REMARK 923 INTER-LIGAND FREE ENERGY PREDICTED BY IDOCK:   -7.72 KCAL/MOL
REMARK 924 INTRA-LIGAND FREE ENERGY PREDICTED BY IDOCK:    0.27 KCAL/MOL
REMARK 927      BINDING AFFINITY PREDICTED BY RF-SCORE:    0.00 PKD
ROOT
HETATM    1  C   UNL     1     -12.705  15.276  74.186  1.00  0.00    -0.508 C  
HETATM    2  C   UNL     1     -12.495  14.506  72.878  1.00  0.00    -0.337 C  
HETATM    3  C   UNL     1     -13.825  13.927  72.403  1.00  0.00    -0.668 C  
HETATM    4  C   UNL     1     -11.885  15.441  71.835  1.00  0.00    -0.429 C  
HETATM    5  O   UNL     1     -11.686  16.624  72.090  1.00  0.00    -0.444 OA 
HETATM    6  N   UNL     1     -11.556  14.827  70.632  1.00  0.00    -0.342 N  
HETATM    7  H   UNL     1     -11.639  13.811  70.587  1.00  0.00     0.000 HD 
ENDROOT
BRANCH   6   8
HETATM    8  C   UNL     1     -11.117  15.494  69.466  1.00  0.00    -0.286 A  
HETATM    9  C   UNL     1     -10.700  16.831  69.473  1.00  0.00    -0.273 A  
HETATM   10  C   UNL     1     -10.296  17.500  68.302  1.00  0.00    -0.379 A  
HETATM   11  C   UNL     1      -9.910  18.953  68.376  1.00  0.00    -0.381 C  
HETATM   12  C   UNL     1     -10.327  16.778  67.105  1.00  0.00    -0.297 A  
HETATM   13  F   UNL     1     -10.075  19.491  69.619  1.00  0.00    -0.432 F  
HETATM   14  F   UNL     1      -8.613  19.186  68.056  1.00  0.00    -0.302 F  
HETATM   15  N   UNL     1      -9.967  17.409  65.844  1.00  0.00    -0.204 N  
HETATM   16  F   UNL     1     -10.665  19.724  67.548  1.00  0.00    -0.526 F  
HETATM   17  C   UNL     1     -10.743  15.439  67.067  1.00  0.00    -0.321 A  
HETATM   18  C   UNL     1     -11.142  14.803  68.249  1.00  0.00    -0.284 A  
HETATM   19  O   UNL     1      -8.830  17.878  65.752  1.00  0.00    -0.495 OA 
HETATM   20  O   UNL     1     -10.822  17.398  64.949  1.00  0.00    -0.814 OA 
ENDBRANCH   6   8
TORSDOF 1
ENDMDL
MODEL        6
REMARK 921   NORMALIZED FREE ENERGY PREDICTED BY IDOCK:   -6.64 KCAL/MOL
REMARK 922        TOTAL FREE ENERGY PREDICTED BY IDOCK:   -7.33 KCAL/MOL
REMARK 923 INTER-LIGAND FREE ENERGY PREDICTED BY IDOCK:   -7.66 KCAL/MOL
REMARK 924 INTRA-LIGAND FREE ENERGY PREDICTED BY IDOCK:    0.33 KCAL/MOL
REMARK 927      BINDING AFFINITY PREDICTED BY RF-SCORE:    0.00 PKD
ROOT
HETATM    1  C   UNL     1     -12.497  15.430  74.169  1.00  0.00    -0.785 C  
HETATM    2  C   UNL     1     -12.432  14.538  72.926  1.00  0.00    -0.337 C  
HETATM    3  C   UNL     1     -13.808  13.934  72.654  1.00  0.00    -0.515 C  
HETATM    4  C   UNL     1     -11.937  15.361  71.738  1.00  0.00    -0.403 C  
HETATM    5  O   UNL     1     -11.708  16.561  71.856  1.00  0.00    -0.458 OA 
HETATM    6  N   UNL     1     -11.742  14.632  70.571  1.00  0.00    -0.287 N  
HETATM    7  H   UNL     1     -11.832  13.617  70.633  1.00  0.00     0.000 HD 
ENDROOT
BRANCH   6   8
HETATM    8  C   UNL     1     -11.431  15.180  69.306  1.00  0.00    -0.311 A  
HETATM    9  C   UNL     1     -11.701  14.509  68.105  1.00  0.00    -0.369 A  
HETATM   10  C   UNL     1     -11.357  15.045  66.851  1.00  0.00    -0.302 A  
HETATM   11  C   UNL     1     -11.630  14.245  65.604  1.00  0.00    -0.346 C  
HETATM   12  C   UNL     1     -10.721  16.291  66.834  1.00  0.00    -0.217 A  
HETATM   13  F   UNL     1     -12.138  13.006  65.862  1.00  0.00    -0.402 F  
HETATM   14  F   UNL     1     -12.525  14.831  64.770  1.00  0.00    -0.411 F  
HETATM   15  N   UNL     1     -10.294  16.894  65.580  1.00  0.00    -0.293 N  
HETATM   16  F   UNL     1     -10.500  14.028  64.881  1.00  0.00    -0.346 F  
HETATM   17  C   UNL     1     -10.436  16.984  68.020  1.00  0.00    -0.353 A  
HETATM   18  C   UNL     1     -10.788  16.421  69.253  1.00  0.00    -0.327 A  
HETATM   19  O   UNL     1     -11.165  17.116  64.735  1.00  0.00    -0.860 OA 
HETATM   20  O   UNL     1      -9.091  17.166  65.473  1.00  0.00    -0.343 OA 
ENDBRANCH   6   8
TORSDOF 1
ENDMDL
MODEL        7
REMARK 921   NORMALIZED FREE ENERGY PREDICTED BY IDOCK:   -6.62 KCAL/MOL
REMARK 922        TOTAL FREE ENERGY PREDICTED BY IDOCK:   -7.31 KCAL/MOL
REMARK 923 INTER-LIGAND FREE ENERGY PREDICTED BY IDOCK:   -7.01 KCAL/MOL
REMARK 924 INTRA-LIGAND FREE ENERGY PREDICTED BY IDOCK:   -0.31 KCAL/MOL
REMARK 927      BINDING AFFINITY PREDICTED BY RF-SCORE:    0.00 PKD
ROOT
HETATM    1  C   UNL     1      -8.032  19.880  65.970  1.00  0.00    -0.328 C  
HETATM    2  C   UNL     1      -9.297  19.276  66.588  1.00  0.00    -0.387 C  
HETATM    3  C   UNL     1     -10.530  19.826  65.875  1.00  0.00    -0.587 C  
HETATM    4  C   UNL     1      -9.228  17.753  66.495  1.00  0.00    -0.265 C  
HETATM    5  O   UNL     1      -8.285  17.199  65.939  1.00  0.00    -0.526 OA 
HETATM    6  N   UNL     1     -10.280  17.089  67.114  1.00  0.00    -0.300 N  
HETATM    7  H   UNL     1     -10.930  17.651  67.663  1.00  0.00     0.000 HD 
ENDROOT
BRANCH   6   8
HETATM    8  C   UNL     1     -10.523  15.698  67.045  1.00  0.00    -0.303 A  
HETATM    9  C   UNL     1     -11.052  15.079  65.905  1.00  0.00    -0.334 A  
HETATM   10  C   UNL     1     -11.324  13.699  65.855  1.00  0.00    -0.317 A  
HETATM   11  C   UNL     1     -11.942  13.111  64.614  1.00  0.00    -0.388 C  
HETATM   12  C   UNL     1     -11.049  12.947  67.001  1.00  0.00    -0.275 A  
HETATM   13  F   UNL     1     -12.243  14.047  63.669  1.00  0.00    -0.503 F  
HETATM   14  F   UNL     1     -11.143  12.213  63.985  1.00  0.00    -0.320 F  
HETATM   15  N   UNL     1     -11.341  11.522  67.046  1.00  0.00    -0.301 N  
HETATM   16  F   UNL     1     -13.115  12.477  64.881  1.00  0.00    -0.551 F  
HETATM   17  C   UNL     1     -10.521  13.539  68.158  1.00  0.00    -0.249 A  
HETATM   18  C   UNL     1     -10.265  14.916  68.176  1.00  0.00    -0.226 A  
HETATM   19  O   UNL     1     -10.785  10.804  66.211  1.00  0.00    -0.220 OA 
HETATM   20  O   UNL     1     -12.104  11.136  67.941  1.00  0.00    -0.627 OA 
ENDBRANCH   6   8
TORSDOF 1
ENDMDL
MODEL        8
REMARK 921   NORMALIZED FREE ENERGY PREDICTED BY IDOCK:   -6.60 KCAL/MOL
REMARK 922        TOTAL FREE ENERGY PREDICTED BY IDOCK:   -7.29 KCAL/MOL
REMARK 923 INTER-LIGAND FREE ENERGY PREDICTED BY IDOCK:   -6.99 KCAL/MOL
REMARK 924 INTRA-LIGAND FREE ENERGY PREDICTED BY IDOCK:   -0.30 KCAL/MOL
REMARK 927      BINDING AFFINITY PREDICTED BY RF-SCORE:    0.00 PKD
ROOT
HETATM    1  C   UNL     1     -11.288   9.363  71.433  1.00  0.00    -0.451 C  
HETATM    2  C   UNL     1     -12.292  10.305  70.761  1.00  0.00    -0.445 C  
HETATM    3  C   UNL     1     -12.941  11.201  71.814  1.00  0.00    -0.526 C  
HETATM    4  C   UNL     1     -11.576  11.127  69.692  1.00  0.00    -0.326 C  
HETATM    5  O   UNL     1     -10.366  11.014  69.516  1.00  0.00    -0.164 OA 
HETATM    6  N   UNL     1     -12.408  11.951  68.943  1.00  0.00     0.024 N  
HETATM    7  H   UNL     1     -13.413  11.856  69.087  1.00  0.00     0.000 HD 
ENDROOT
BRANCH   6   8
HETATM    8  C   UNL     1     -11.975  12.910  67.999  1.00  0.00    -0.275 A  
HETATM    9  C   UNL     1     -11.950  12.655  66.621  1.00  0.00    -0.382 A  
HETATM   10  C   UNL     1     -11.486  13.602  65.689  1.00  0.00    -0.320 A  
HETATM   11  C   UNL     1     -11.438  13.240  64.228  1.00  0.00    -0.396 C  
HETATM   12  C   UNL     1     -11.039  14.830  66.187  1.00  0.00    -0.339 A  
HETATM   13  F   UNL     1     -11.801  11.949  63.983  1.00  0.00    -0.425 F  
HETATM   14  F   UNL     1     -12.259  13.995  63.456  1.00  0.00    -0.493 F  
HETATM   15  N   UNL     1     -10.503  15.847  65.293  1.00  0.00    -0.398 N  
HETATM   16  F   UNL     1     -10.186  13.367  63.713  1.00  0.00    -0.283 F  
HETATM   17  C   UNL     1     -11.050  15.113  67.561  1.00  0.00    -0.319 A  
HETATM   18  C   UNL     1     -11.514  14.147  68.463  1.00  0.00    -0.333 A  
HETATM   19  O   UNL     1     -11.248  16.264  64.403  1.00  0.00    -0.716 OA 
HETATM   20  O   UNL     1      -9.350  16.236  65.517  1.00  0.00    -0.424 OA 
ENDBRANCH   6   8
TORSDOF 1
ENDMDL
MODEL        9
REMARK 921   NORMALIZED FREE ENERGY PREDICTED BY IDOCK:   -6.58 KCAL/MOL
REMARK 922        TOTAL FREE ENERGY PREDICTED BY IDOCK:   -7.27 KCAL/MOL
REMARK 923 INTER-LIGAND FREE ENERGY PREDICTED BY IDOCK:   -6.95 KCAL/MOL
REMARK 924 INTRA-LIGAND FREE ENERGY PREDICTED BY IDOCK:   -0.31 KCAL/MOL
REMARK 927      BINDING AFFINITY PREDICTED BY RF-SCORE:    0.00 PKD
ROOT
HETATM    1  C   UNL     1     -11.380   9.572  70.803  1.00  0.00    -0.387 C  
HETATM    2  C   UNL     1     -12.293  10.691  70.294  1.00  0.00    -0.406 C  
HETATM    3  C   UNL     1     -12.870  11.464  71.478  1.00  0.00    -0.508 C  
HETATM    4  C   UNL     1     -11.500  11.605  69.362  1.00  0.00    -0.307 C  
HETATM    5  O   UNL     1     -10.304  11.417  69.162  1.00  0.00    -0.186 OA 
HETATM    6  N   UNL     1     -12.252  12.606  68.757  1.00  0.00    -0.076 N  
HETATM    7  H   UNL     1     -13.264  12.577  68.892  1.00  0.00     0.000 HD 
ENDROOT
BRANCH   6   8
HETATM    8  C   UNL     1     -11.732  13.660  67.973  1.00  0.00    -0.352 A  
HETATM    9  C   UNL     1     -11.366  14.898  68.518  1.00  0.00    -0.314 A  
HETATM   10  C   UNL     1     -10.881  15.955  67.726  1.00  0.00    -0.324 A  
HETATM   11  C   UNL     1     -10.557  17.276  68.373  1.00  0.00    -0.368 C  
HETATM   12  C   UNL     1     -10.775  15.733  66.349  1.00  0.00    -0.277 A  
HETATM   13  F   UNL     1     -10.857  17.310  69.703  1.00  0.00    -0.279 F  
HETATM   14  F   UNL     1      -9.245  17.611  68.293  1.00  0.00    -0.249 F  
HETATM   15  N   UNL     1     -10.322  16.789  65.456  1.00  0.00    -0.272 N  
HETATM   16  F   UNL     1     -11.260  18.300  67.819  1.00  0.00    -0.324 F  
HETATM   17  C   UNL     1     -11.135  14.505  65.775  1.00  0.00    -0.324 A  
HETATM   18  C   UNL     1     -11.618  13.474  66.591  1.00  0.00    -0.396 A  
HETATM   19  O   UNL     1      -9.200  17.258  65.658  1.00  0.00    -0.501 OA 
HETATM   20  O   UNL     1     -11.090  17.113  64.541  1.00  0.00    -1.105 OA 
ENDBRANCH   6   8
TORSDOF 1
ENDMDL
MODEL       10
REMARK 921   NORMALIZED FREE ENERGY PREDICTED BY IDOCK:   -6.56 KCAL/MOL
REMARK 922        TOTAL FREE ENERGY PREDICTED BY IDOCK:   -7.25 KCAL/MOL
REMARK 923 INTER-LIGAND FREE ENERGY PREDICTED BY IDOCK:   -7.04 KCAL/MOL
REMARK 924 INTRA-LIGAND FREE ENERGY PREDICTED BY IDOCK:   -0.21 KCAL/MOL
REMARK 927      BINDING AFFINITY PREDICTED BY RF-SCORE:    0.00 PKD
ROOT
HETATM    1  C   UNL     1     -12.040  16.154  72.284  1.00  0.00    -0.616 C  
HETATM    2  C   UNL     1     -12.127  14.684  71.860  1.00  0.00    -0.375 C  
HETATM    3  C   UNL     1     -13.570  14.200  71.976  1.00  0.00    -0.540 C  
HETATM    4  C   UNL     1     -11.600  14.538  70.434  1.00  0.00    -0.248 C  
HETATM    5  O   UNL     1     -11.239  15.520  69.793  1.00  0.00    -0.255 OA 
HETATM    6  N   UNL     1     -11.537  13.228  69.973  1.00  0.00    -0.513 N  
HETATM    7  H   UNL     1     -11.733  12.486  70.645  1.00  0.00     0.000 HD 
ENDROOT
BRANCH   6   8
HETATM    8  C   UNL     1     -11.226  12.840  68.650  1.00  0.00    -0.282 A  
HETATM    9  C   UNL     1     -11.981  13.253  67.544  1.00  0.00    -0.371 A  
HETATM   10  C   UNL     1     -11.686  12.835  66.234  1.00  0.00    -0.460 A  
HETATM   11  C   UNL     1     -12.573  13.276  65.099  1.00  0.00    -0.453 C  
HETATM   12  C   UNL     1     -10.596  11.975  66.061  1.00  0.00    -0.268 A  
HETATM   13  F   UNL     1     -13.649  14.004  65.511  1.00  0.00    -0.357 F  
HETATM   14  F   UNL     1     -11.940  14.057  64.189  1.00  0.00    -0.425 F  
HETATM   15  N   UNL     1     -10.251  11.463  64.743  1.00  0.00    -0.267 N  
HETATM   16  F   UNL     1     -13.092  12.219  64.418  1.00  0.00    -0.531 F  
HETATM   17  C   UNL     1      -9.823  11.544  67.149  1.00  0.00    -0.210 A  
HETATM   18  C   UNL     1     -10.146  11.975  68.442  1.00  0.00    -0.211 A  
HETATM   19  O   UNL     1      -9.979  12.291  63.870  1.00  0.00    -0.338 OA 
HETATM   20  O   UNL     1     -10.228  10.233  64.611  1.00  0.00    -0.322 OA 
ENDBRANCH   6   8
TORSDOF 1
ENDMDL
MODEL       11
REMARK 921   NORMALIZED FREE ENERGY PREDICTED BY IDOCK:   -6.50 KCAL/MOL
REMARK 922        TOTAL FREE ENERGY PREDICTED BY IDOCK:   -7.18 KCAL/MOL
REMARK 923 INTER-LIGAND FREE ENERGY PREDICTED BY IDOCK:   -6.88 KCAL/MOL
REMARK 924 INTRA-LIGAND FREE ENERGY PREDICTED BY IDOCK:   -0.30 KCAL/MOL
REMARK 927      BINDING AFFINITY PREDICTED BY RF-SCORE:    0.00 PKD
ROOT
HETATM    1  C   UNL     1      -9.859   6.760  70.807  1.00  0.00    -0.194 C  
HETATM    2  C   UNL     1     -11.192   7.429  70.457  1.00  0.00    -0.296 C  
HETATM    3  C   UNL     1     -12.328   6.733  71.203  1.00  0.00    -0.386 C  
HETATM    4  C   UNL     1     -11.119   8.914  70.808  1.00  0.00    -0.261 C  
HETATM    5  O   UNL     1     -10.118   9.387  71.338  1.00  0.00    -0.301 OA 
HETATM    6  N   UNL     1     -12.241   9.649  70.443  1.00  0.00    -0.475 N  
HETATM    7  H   UNL     1     -12.950   9.174  69.884  1.00  0.00     0.000 HD 
ENDROOT
BRANCH   6   8
HETATM    8  C   UNL     1     -12.480  11.000  70.782  1.00  0.00    -0.396 A  
HETATM    9  C   UNL     1     -11.943  12.068  70.052  1.00  0.00    -0.400 A  
HETATM   10  C   UNL     1     -12.157  13.411  70.416  1.00  0.00    -0.405 A  
HETATM   11  C   UNL     1     -11.505  14.507  69.615  1.00  0.00    -0.288 C  
HETATM   12  C   UNL     1     -12.935  13.655  71.552  1.00  0.00    -0.360 A  
HETATM   13  F   UNL     1     -10.687  14.039  68.630  1.00  0.00    -0.230 F  
HETATM   14  F   UNL     1     -12.391  15.321  68.988  1.00  0.00    -0.278 F  
HETATM   15  N   UNL     1     -13.168  15.013  72.020  1.00  0.00    -0.336 N  
HETATM   16  F   UNL     1     -10.718  15.303  70.388  1.00  0.00    -0.280 F  
HETATM   17  C   UNL     1     -13.484  12.605  72.303  1.00  0.00    -0.541 A  
HETATM   18  C   UNL     1     -13.249  11.280  71.917  1.00  0.00    -0.491 A  
HETATM   19  O   UNL     1     -13.724  15.791  71.240  1.00  0.00    -0.560 OA 
HETATM   20  O   UNL     1     -12.816  15.273  73.177  1.00  0.00    -0.406 OA 
ENDBRANCH   6   8
TORSDOF 1
ENDMDL
MODEL       12
REMARK 921   NORMALIZED FREE ENERGY PREDICTED BY IDOCK:   -6.36 KCAL/MOL
REMARK 922        TOTAL FREE ENERGY PREDICTED BY IDOCK:   -7.04 KCAL/MOL
REMARK 923 INTER-LIGAND FREE ENERGY PREDICTED BY IDOCK:   -7.06 KCAL/MOL
REMARK 924 INTRA-LIGAND FREE ENERGY PREDICTED BY IDOCK:    0.03 KCAL/MOL
REMARK 927      BINDING AFFINITY PREDICTED BY RF-SCORE:    0.00 PKD
ROOT
HETATM    1  C   UNL     1     -13.570  15.697  72.732  1.00  0.00    -0.678 C  
HETATM    2  C   UNL     1     -12.831  14.455  72.224  1.00  0.00    -0.425 C  
HETATM    3  C   UNL     1     -13.635  13.203  72.564  1.00  0.00    -0.595 C  
HETATM    4  C   UNL     1     -12.603  14.583  70.719  1.00  0.00    -0.351 C  
HETATM    5  O   UNL     1     -13.036  15.548  70.097  1.00  0.00    -0.241 OA 
HETATM    6  N   UNL     1     -11.851  13.557  70.160  1.00  0.00    -0.451 N  
HETATM    7  H   UNL     1     -11.428  12.884  70.800  1.00  0.00     0.000 HD 
ENDROOT
BRANCH   6   8
HETATM    8  C   UNL     1     -11.624  13.368  68.778  1.00  0.00    -0.325 A  
HETATM    9  C   UNL     1     -11.299  14.423  67.915  1.00  0.00    -0.322 A  
HETATM   10  C   UNL     1     -11.109  14.233  66.533  1.00  0.00    -0.323 A  
HETATM   11  C   UNL     1     -10.813  15.422  65.657  1.00  0.00    -0.355 C  
HETATM   12  C   UNL     1     -11.259  12.935  66.034  1.00  0.00    -0.293 A  
HETATM   13  F   UNL     1     -10.839  16.606  66.332  1.00  0.00    -0.277 F  
HETATM   14  F   UNL     1      -9.592  15.372  65.070  1.00  0.00    -0.239 F  
HETATM   15  N   UNL     1     -11.121  12.663  64.611  1.00  0.00    -0.299 N  
HETATM   16  F   UNL     1     -11.726  15.558  64.658  1.00  0.00    -0.373 F  
HETATM   17  C   UNL     1     -11.586  11.860  66.874  1.00  0.00    -0.358 A  
HETATM   18  C   UNL     1     -11.773  12.083  68.244  1.00  0.00    -0.396 A  
HETATM   19  O   UNL     1     -10.041  12.944  64.084  1.00  0.00    -0.350 OA 
HETATM   20  O   UNL     1     -12.090  12.140  64.046  1.00  0.00    -0.414 OA 
ENDBRANCH   6   8
TORSDOF 1
ENDMDL
MODEL       13
REMARK 921   NORMALIZED FREE ENERGY PREDICTED BY IDOCK:   -6.30 KCAL/MOL
REMARK 922        TOTAL FREE ENERGY PREDICTED BY IDOCK:   -6.97 KCAL/MOL
REMARK 923 INTER-LIGAND FREE ENERGY PREDICTED BY IDOCK:   -7.23 KCAL/MOL
REMARK 924 INTRA-LIGAND FREE ENERGY PREDICTED BY IDOCK:    0.25 KCAL/MOL
REMARK 927      BINDING AFFINITY PREDICTED BY RF-SCORE:    0.00 PKD
ROOT
HETATM    1  C   UNL     1     -14.003  15.839  72.585  1.00  0.00    -0.557 C  
HETATM    2  C   UNL     1     -13.168  15.310  71.414  1.00  0.00    -0.555 C  
HETATM    3  C   UNL     1     -11.795  15.978  71.419  1.00  0.00    -0.531 C  
HETATM    4  C   UNL     1     -13.053  13.791  71.521  1.00  0.00    -0.357 C  
HETATM    5  O   UNL     1     -13.543  13.188  72.471  1.00  0.00    -0.579 OA 
HETATM    6  N   UNL     1     -12.398  13.185  70.456  1.00  0.00    -0.334 N  
HETATM    7  H   UNL     1     -12.157  13.774  69.658  1.00  0.00     0.000 HD 
ENDROOT
BRANCH   6   8
HETATM    8  C   UNL     1     -12.036  11.820  70.386  1.00  0.00    -0.352 A  
HETATM    9  C   UNL     1     -12.605  10.846  71.218  1.00  0.00    -0.526 A  
HETATM   10  C   UNL     1     -12.216   9.494  71.167  1.00  0.00    -0.421 A  
HETATM   11  C   UNL     1     -12.831   8.511  72.127  1.00  0.00    -0.369 C  
HETATM   12  C   UNL     1     -11.223   9.143  70.246  1.00  0.00    -0.218 A  
HETATM   13  F   UNL     1     -13.681   9.093  73.021  1.00  0.00    -0.456 F  
HETATM   14  F   UNL     1     -13.562   7.544  71.518  1.00  0.00    -0.371 F  
HETATM   15  N   UNL     1     -10.734   7.775  70.161  1.00  0.00    -0.238 N  
HETATM   16  F   UNL     1     -11.892   7.879  72.881  1.00  0.00    -0.390 F  
HETATM   17  C   UNL     1     -10.635  10.097  69.403  1.00  0.00    -0.261 A  
HETATM   18  C   UNL     1     -11.042  11.435  69.481  1.00  0.00    -0.274 A  
HETATM   19  O   UNL     1     -11.559   6.897  69.894  1.00  0.00    -0.272 OA 
HETATM   20  O   UNL     1      -9.521   7.604  70.334  1.00  0.00    -0.164 OA 
ENDBRANCH   6   8
TORSDOF 1
ENDMDL
MODEL       14
REMARK 921   NORMALIZED FREE ENERGY PREDICTED BY IDOCK:   -6.30 KCAL/MOL
REMARK 922        TOTAL FREE ENERGY PREDICTED BY IDOCK:   -6.97 KCAL/MOL
REMARK 923 INTER-LIGAND FREE ENERGY PREDICTED BY IDOCK:   -6.72 KCAL/MOL
REMARK 924 INTRA-LIGAND FREE ENERGY PREDICTED BY IDOCK:   -0.25 KCAL/MOL
REMARK 927      BINDING AFFINITY PREDICTED BY RF-SCORE:    0.00 PKD
ROOT
HETATM    1  C   UNL     1      -6.845  19.879  66.973  1.00  0.00    -0.236 C  
HETATM    2  C   UNL     1      -8.234  19.398  67.404  1.00  0.00    -0.319 C  
HETATM    3  C   UNL     1      -9.265  20.490  67.132  1.00  0.00    -0.485 C  
HETATM    4  C   UNL     1      -8.575  18.108  66.661  1.00  0.00    -0.267 C  
HETATM    5  O   UNL     1      -7.808  17.642  65.824  1.00  0.00    -0.548 OA 
HETATM    6  N   UNL     1      -9.775  17.520  67.044  1.00  0.00    -0.274 N  
HETATM    7  H   UNL     1     -10.258  17.924  67.847  1.00  0.00     0.000 HD 
ENDROOT
BRANCH   6   8
HETATM    8  C   UNL     1     -10.382  16.410  66.413  1.00  0.00    -0.313 A  
HETATM    9  C   UNL     1     -10.437  15.142  67.006  1.00  0.00    -0.282 A  
HETATM   10  C   UNL     1     -11.012  14.033  66.357  1.00  0.00    -0.308 A  
HETATM   11  C   UNL     1     -10.988  12.687  67.033  1.00  0.00    -0.265 C  
HETATM   12  C   UNL     1     -11.535  14.235  65.076  1.00  0.00    -0.364 A  
HETATM   13  F   UNL     1     -10.316  12.693  68.219  1.00  0.00    -0.212 F  
HETATM   14  F   UNL     1     -12.223  12.206  67.325  1.00  0.00    -0.323 F  
HETATM   15  N   UNL     1     -12.108  13.131  64.321  1.00  0.00    -0.397 N  
HETATM   16  F   UNL     1     -10.368  11.746  66.272  1.00  0.00    -0.231 F  
HETATM   17  C   UNL     1     -11.492  15.493  64.457  1.00  0.00    -0.311 A  
HETATM   18  C   UNL     1     -10.909  16.576  65.128  1.00  0.00    -0.247 A  
HETATM   19  O   UNL     1     -13.066  12.539  64.825  1.00  0.00    -0.853 OA 
HETATM   20  O   UNL     1     -11.607  12.891  63.216  1.00  0.00    -0.488 OA 
ENDBRANCH   6   8
TORSDOF 1
ENDMDL
MODEL       15
REMARK 921   NORMALIZED FREE ENERGY PREDICTED BY IDOCK:   -6.28 KCAL/MOL
REMARK 922        TOTAL FREE ENERGY PREDICTED BY IDOCK:   -6.95 KCAL/MOL
REMARK 923 INTER-LIGAND FREE ENERGY PREDICTED BY IDOCK:   -6.64 KCAL/MOL
REMARK 924 INTRA-LIGAND FREE ENERGY PREDICTED BY IDOCK:   -0.31 KCAL/MOL
REMARK 927      BINDING AFFINITY PREDICTED BY RF-SCORE:    0.00 PKD
ROOT
HETATM    1  C   UNL     1     -12.651  12.261  64.462  1.00  0.00    -0.416 C  
HETATM    2  C   UNL     1     -12.098  12.865  65.757  1.00  0.00    -0.513 C  
HETATM    3  C   UNL     1     -11.194  11.851  66.453  1.00  0.00    -0.387 C  
HETATM    4  C   UNL     1     -11.346  14.155  65.431  1.00  0.00    -0.322 C  
HETATM    5  O   UNL     1     -11.215  14.531  64.271  1.00  0.00    -0.240 OA 
HETATM    6  N   UNL     1     -10.882  14.849  66.543  1.00  0.00    -0.317 N  
HETATM    7  H   UNL     1     -11.173  14.511  67.460  1.00  0.00     0.000 HD 
ENDROOT
BRANCH   6   8
HETATM    8  C   UNL     1     -10.040  15.984  66.506  1.00  0.00    -0.287 A  
HETATM    9  C   UNL     1     -10.533  17.292  66.593  1.00  0.00    -0.257 A  
HETATM   10  C   UNL     1      -9.693  18.419  66.522  1.00  0.00    -0.353 A  
HETATM   11  C   UNL     1     -10.298  19.797  66.569  1.00  0.00    -0.506 C  
HETATM   12  C   UNL     1      -8.323  18.192  66.354  1.00  0.00    -0.245 A  
HETATM   13  F   UNL     1     -11.661  19.785  66.606  1.00  0.00    -0.212 F  
HETATM   14  F   UNL     1      -9.918  20.518  67.654  1.00  0.00    -0.527 F  
HETATM   15  N   UNL     1      -7.392  19.304  66.228  1.00  0.00    -0.251 N  
HETATM   16  F   UNL     1      -9.974  20.534  65.473  1.00  0.00    -0.440 F  
HETATM   17  C   UNL     1      -7.801  16.893  66.262  1.00  0.00    -0.346 A  
HETATM   18  C   UNL     1      -8.665  15.793  66.333  1.00  0.00    -0.372 A  
HETATM   19  O   UNL     1      -7.338  20.103  67.165  1.00  0.00    -0.245 OA 
HETATM   20  O   UNL     1      -6.704  19.342  65.200  1.00  0.00    -0.407 OA 
ENDBRANCH   6   8
TORSDOF 1
ENDMDL
MODEL       16
REMARK 921   NORMALIZED FREE ENERGY PREDICTED BY IDOCK:   -6.21 KCAL/MOL
REMARK 922        TOTAL FREE ENERGY PREDICTED BY IDOCK:   -6.88 KCAL/MOL
REMARK 923 INTER-LIGAND FREE ENERGY PREDICTED BY IDOCK:   -6.61 KCAL/MOL
REMARK 924 INTRA-LIGAND FREE ENERGY PREDICTED BY IDOCK:   -0.27 KCAL/MOL
REMARK 927      BINDING AFFINITY PREDICTED BY RF-SCORE:    0.00 PKD
ROOT
HETATM    1  C   UNL     1     -13.959  13.134  72.493  1.00  0.00    -0.409 C  
HETATM    2  C   UNL     1     -13.932  14.455  71.717  1.00  0.00    -0.537 C  
HETATM    3  C   UNL     1     -13.874  15.625  72.695  1.00  0.00    -0.648 C  
HETATM    4  C   UNL     1     -12.735  14.458  70.767  1.00  0.00    -0.360 C  
HETATM    5  O   UNL     1     -11.945  13.520  70.748  1.00  0.00    -0.305 OA 
HETATM    6  N   UNL     1     -12.662  15.569  69.935  1.00  0.00    -0.605 N  
HETATM    7  H   UNL     1     -13.452  16.215  69.945  1.00  0.00     0.000 HD 
ENDROOT
BRANCH   6   8
HETATM    8  C   UNL     1     -11.582  15.878  69.077  1.00  0.00    -0.389 A  
HETATM    9  C   UNL     1     -11.648  15.701  67.688  1.00  0.00    -0.089 A  
HETATM   10  C   UNL     1     -10.557  15.979  66.842  1.00  0.00    -0.300 A  
HETATM   11  C   UNL     1     -10.682  15.715  65.365  1.00  0.00    -0.408 C  
HETATM   12  C   UNL     1      -9.381  16.443  67.439  1.00  0.00    -0.221 A  
HETATM   13  F   UNL     1     -11.870  15.143  65.019  1.00  0.00    -0.349 F  
HETATM   14  F   UNL     1     -10.589  16.835  64.605  1.00  0.00    -0.189 F  
HETATM   15  N   UNL     1      -8.195  16.712  66.639  1.00  0.00    -0.236 N  
HETATM   16  F   UNL     1      -9.726  14.856  64.919  1.00  0.00    -0.295 F  
HETATM   17  C   UNL     1      -9.286  16.628  68.826  1.00  0.00    -0.253 A  
HETATM   18  C   UNL     1     -10.388  16.339  69.641  1.00  0.00    -0.261 A  
HETATM   19  O   UNL     1      -8.297  17.554  65.743  1.00  0.00    -0.538 OA 
HETATM   20  O   UNL     1      -7.166  16.096  66.942  1.00  0.00    -0.216 OA 
ENDBRANCH   6   8
TORSDOF 1
ENDMDL
MODEL       17
REMARK 921   NORMALIZED FREE ENERGY PREDICTED BY IDOCK:   -6.18 KCAL/MOL
REMARK 922        TOTAL FREE ENERGY PREDICTED BY IDOCK:   -6.85 KCAL/MOL
REMARK 923 INTER-LIGAND FREE ENERGY PREDICTED BY IDOCK:   -6.53 KCAL/MOL
REMARK 924 INTRA-LIGAND FREE ENERGY PREDICTED BY IDOCK:   -0.32 KCAL/MOL
REMARK 927      BINDING AFFINITY PREDICTED BY RF-SCORE:    0.00 PKD
ROOT
HETATM    1  C   UNL     1     -11.585  12.098  65.572  1.00  0.00    -0.398 C  
HETATM    2  C   UNL     1     -10.967  13.318  64.882  1.00  0.00    -0.345 C  
HETATM    3  C   UNL     1     -12.042  14.063  64.094  1.00  0.00    -0.456 C  
HETATM    4  C   UNL     1     -10.319  14.218  65.932  1.00  0.00    -0.314 C  
HETATM    5  O   UNL     1     -10.388  13.943  67.126  1.00  0.00    -0.262 OA 
HETATM    6  N   UNL     1      -9.636  15.312  65.414  1.00  0.00    -0.349 N  
HETATM    7  H   UNL     1      -9.530  15.359  64.400  1.00  0.00     0.000 HD 
ENDROOT
BRANCH   6   8
HETATM    8  C   UNL     1      -9.079  16.365  66.174  1.00  0.00    -0.326 A  
HETATM    9  C   UNL     1      -9.823  17.481  66.577  1.00  0.00    -0.315 A  
HETATM   10  C   UNL     1      -9.253  18.542  67.305  1.00  0.00    -0.281 A  
HETATM   11  C   UNL     1     -10.100  19.736  67.659  1.00  0.00    -0.417 C  
HETATM   12  C   UNL     1      -7.893  18.451  67.619  1.00  0.00    -0.234 A  
HETATM   13  F   UNL     1     -11.361  19.672  67.143  1.00  0.00    -0.523 F  
HETATM   14  F   UNL     1     -10.269  19.904  68.995  1.00  0.00    -0.510 F  
HETATM   15  N   UNL     1      -7.218  19.526  68.332  1.00  0.00    -0.306 N  
HETATM   16  F   UNL     1      -9.574  20.895  67.180  1.00  0.00    -0.575 F  
HETATM   17  C   UNL     1      -7.123  17.347  67.227  1.00  0.00    -0.193 A  
HETATM   18  C   UNL     1      -7.719  16.309  66.500  1.00  0.00    -0.260 A  
HETATM   19  O   UNL     1      -7.651  19.821  69.449  1.00  0.00    -0.263 OA 
HETATM   20  O   UNL     1      -6.242  20.040  67.772  1.00  0.00    -0.206 OA 
ENDBRANCH   6   8
TORSDOF 1
ENDMDL
MODEL       18
REMARK 921   NORMALIZED FREE ENERGY PREDICTED BY IDOCK:   -6.17 KCAL/MOL
REMARK 922        TOTAL FREE ENERGY PREDICTED BY IDOCK:   -6.83 KCAL/MOL
REMARK 923 INTER-LIGAND FREE ENERGY PREDICTED BY IDOCK:   -7.08 KCAL/MOL
REMARK 924 INTRA-LIGAND FREE ENERGY PREDICTED BY IDOCK:    0.25 KCAL/MOL
REMARK 927      BINDING AFFINITY PREDICTED BY RF-SCORE:    0.00 PKD
ROOT
HETATM    1  C   UNL     1     -10.767  11.044  64.246  1.00  0.00    -0.348 C  
HETATM    2  C   UNL     1     -10.728  12.523  63.849  1.00  0.00    -0.473 C  
HETATM    3  C   UNL     1     -12.098  12.954  63.333  1.00  0.00    -0.610 C  
HETATM    4  C   UNL     1     -10.294  13.357  65.053  1.00  0.00    -0.347 C  
HETATM    5  O   UNL     1     -10.088  12.831  66.142  1.00  0.00    -0.256 OA 
HETATM    6  N   UNL     1     -10.126  14.711  64.786  1.00  0.00    -0.525 N  
HETATM    7  H   UNL     1     -10.191  15.008  63.812  1.00  0.00     0.000 HD 
ENDROOT
BRANCH   6   8
HETATM    8  C   UNL     1      -9.872  15.710  65.753  1.00  0.00    -0.351 A  
HETATM    9  C   UNL     1     -10.317  17.031  65.608  1.00  0.00    -0.226 A  
HETATM   10  C   UNL     1     -10.031  18.030  66.558  1.00  0.00    -0.371 A  
HETATM   11  C   UNL     1     -10.496  19.440  66.311  1.00  0.00    -0.493 C  
HETATM   12  C   UNL     1      -9.273  17.660  67.674  1.00  0.00    -0.245 A  
HETATM   13  F   UNL     1     -11.105  19.601  65.102  1.00  0.00    -0.501 F  
HETATM   14  F   UNL     1     -11.395  19.883  67.225  1.00  0.00    -0.437 F  
HETATM   15  N   UNL     1      -8.899  18.642  68.680  1.00  0.00    -0.321 N  
HETATM   16  F   UNL     1      -9.463  20.325  66.314  1.00  0.00    -0.437 F  
HETATM   17  C   UNL     1      -8.813  16.346  67.844  1.00  0.00    -0.184 A  
HETATM   18  C   UNL     1      -9.111  15.376  66.878  1.00  0.00    -0.265 A  
HETATM   19  O   UNL     1      -9.813  19.232  69.261  1.00  0.00    -0.375 OA 
HETATM   20  O   UNL     1      -7.689  18.786  68.897  1.00  0.00    -0.314 OA 
ENDBRANCH   6   8
TORSDOF 1
ENDMDL
MODEL       19
REMARK 921   NORMALIZED FREE ENERGY PREDICTED BY IDOCK:   -6.11 KCAL/MOL
REMARK 922        TOTAL FREE ENERGY PREDICTED BY IDOCK:   -6.78 KCAL/MOL
REMARK 923 INTER-LIGAND FREE ENERGY PREDICTED BY IDOCK:   -6.46 KCAL/MOL
REMARK 924 INTRA-LIGAND FREE ENERGY PREDICTED BY IDOCK:   -0.31 KCAL/MOL
REMARK 927      BINDING AFFINITY PREDICTED BY RF-SCORE:    0.00 PKD
ROOT
HETATM    1  C   UNL     1     -11.527   7.720  72.547  1.00  0.00    -0.428 C  
HETATM    2  C   UNL     1     -12.461   8.453  71.578  1.00  0.00    -0.342 C  
HETATM    3  C   UNL     1     -13.622   9.073  72.352  1.00  0.00    -0.533 C  
HETATM    4  C   UNL     1     -11.667   9.511  70.815  1.00  0.00    -0.298 C  
HETATM    5  O   UNL     1     -10.479   9.704  71.058  1.00  0.00    -0.304 OA 
HETATM    6  N   UNL     1     -12.389  10.177  69.832  1.00  0.00    -0.509 N  
HETATM    7  H   UNL     1     -13.328   9.834  69.627  1.00  0.00     0.000 HD 
ENDROOT
BRANCH   6   8
HETATM    8  C   UNL     1     -11.930  11.290  69.091  1.00  0.00    -0.336 A  
HETATM    9  C   UNL     1     -11.896  12.587  69.621  1.00  0.00    -0.382 A  
HETATM   10  C   UNL     1     -11.470  13.697  68.867  1.00  0.00    -0.344 A  
HETATM   11  C   UNL     1     -11.511  15.070  69.484  1.00  0.00    -0.294 C  
HETATM   12  C   UNL     1     -11.075  13.465  67.545  1.00  0.00    -0.274 A  
HETATM   13  F   UNL     1     -12.050  15.080  70.736  1.00  0.00    -0.283 F  
HETATM   14  F   UNL     1     -10.287  15.640  69.617  1.00  0.00    -0.211 F  
HETATM   15  N   UNL     1     -10.662  14.564  66.686  1.00  0.00    -0.300 N  
HETATM   16  F   UNL     1     -12.271  15.932  68.757  1.00  0.00    -0.367 F  
HETATM   17  C   UNL     1     -11.100  12.178  66.988  1.00  0.00    -0.347 A  
HETATM   18  C   UNL     1     -11.533  11.095  67.764  1.00  0.00    -0.349 A  
HETATM   19  O   UNL     1      -9.698  15.238  67.056  1.00  0.00    -0.220 OA 
HETATM   20  O   UNL     1     -11.295  14.718  65.633  1.00  0.00    -0.342 OA 
ENDBRANCH   6   8
TORSDOF 1
ENDMDL
MODEL       20
REMARK 921   NORMALIZED FREE ENERGY PREDICTED BY IDOCK:   -6.09 KCAL/MOL
REMARK 922        TOTAL FREE ENERGY PREDICTED BY IDOCK:   -6.75 KCAL/MOL
REMARK 923 INTER-LIGAND FREE ENERGY PREDICTED BY IDOCK:   -6.44 KCAL/MOL
REMARK 924 INTRA-LIGAND FREE ENERGY PREDICTED BY IDOCK:   -0.32 KCAL/MOL
REMARK 927      BINDING AFFINITY PREDICTED BY RF-SCORE:    0.00 PKD
ROOT
HETATM    1  C   UNL     1      -9.120   8.368  71.980  1.00  0.00    -0.296 C  
HETATM    2  C   UNL     1     -10.271   8.402  70.969  1.00  0.00    -0.245 C  
HETATM    3  C   UNL     1     -11.569   8.778  71.680  1.00  0.00    -0.390 C  
HETATM    4  C   UNL     1      -9.936   9.393  69.856  1.00  0.00    -0.212 C  
HETATM    5  O   UNL     1      -8.901  10.051  69.890  1.00  0.00    -0.205 OA 
HETATM    6  N   UNL     1     -10.866   9.438  68.824  1.00  0.00    -0.395 N  
HETATM    7  H   UNL     1     -11.614   8.744  68.837  1.00  0.00     0.000 HD 
ENDROOT
BRANCH   6   8
HETATM    8  C   UNL     1     -10.861  10.366  67.758  1.00  0.00    -0.297 A  
HETATM    9  C   UNL     1     -11.352  11.672  67.892  1.00  0.00    -0.369 A  
HETATM   10  C   UNL     1     -11.376  12.580  66.817  1.00  0.00    -0.390 A  
HETATM   11  C   UNL     1     -11.966  13.951  67.020  1.00  0.00    -0.424 C  
HETATM   12  C   UNL     1     -10.889  12.133  65.584  1.00  0.00    -0.284 A  
HETATM   13  F   UNL     1     -12.497  14.128  68.263  1.00  0.00    -0.324 F  
HETATM   14  F   UNL     1     -11.068  14.956  66.868  1.00  0.00    -0.307 F  
HETATM   15  N   UNL     1     -10.919  12.997  64.413  1.00  0.00    -0.353 N  
HETATM   16  F   UNL     1     -12.985  14.200  66.154  1.00  0.00    -0.483 F  
HETATM   17  C   UNL     1     -10.394  10.831  65.420  1.00  0.00    -0.315 A  
HETATM   18  C   UNL     1     -10.387   9.950  66.509  1.00  0.00    -0.259 A  
HETATM   19  O   UNL     1     -10.304  14.064  64.483  1.00  0.00    -0.419 OA 
HETATM   20  O   UNL     1     -11.534  12.577  63.425  1.00  0.00    -0.472 OA 
ENDBRANCH   6   8
TORSDOF 1
ENDMDL
MODEL       21
REMARK 921   NORMALIZED FREE ENERGY PREDICTED BY IDOCK:   -6.04 KCAL/MOL
REMARK 922        TOTAL FREE ENERGY PREDICTED BY IDOCK:   -6.70 KCAL/MOL
REMARK 923 INTER-LIGAND FREE ENERGY PREDICTED BY IDOCK:   -6.39 KCAL/MOL
REMARK 924 INTRA-LIGAND FREE ENERGY PREDICTED BY IDOCK:   -0.30 KCAL/MOL
REMARK 927      BINDING AFFINITY PREDICTED BY RF-SCORE:    0.00 PKD
ROOT
HETATM    1  C   UNL     1      -7.040  19.796  68.568  1.00  0.00    -0.353 C  
HETATM    2  C   UNL     1      -8.495  19.319  68.603  1.00  0.00    -0.403 C  
HETATM    3  C   UNL     1      -9.335  20.158  67.644  1.00  0.00    -0.487 C  
HETATM    4  C   UNL     1      -8.549  17.835  68.244  1.00  0.00    -0.277 C  
HETATM    5  O   UNL     1      -7.531  17.224  67.935  1.00  0.00    -0.175 OA 
HETATM    6  N   UNL     1      -9.813  17.263  68.339  1.00  0.00    -0.293 N  
HETATM    7  H   UNL     1     -10.556  17.836  68.741  1.00  0.00     0.000 HD 
ENDROOT
BRANCH   6   8
HETATM    8  C   UNL     1     -10.153  15.955  67.926  1.00  0.00    -0.235 A  
HETATM    9  C   UNL     1     -10.680  15.678  66.657  1.00  0.00    -0.296 A  
HETATM   10  C   UNL     1     -11.048  14.378  66.264  1.00  0.00    -0.331 A  
HETATM   11  C   UNL     1     -11.658  14.161  64.904  1.00  0.00    -0.379 C  
HETATM   12  C   UNL     1     -10.873  13.349  67.195  1.00  0.00    -0.276 A  
HETATM   13  F   UNL     1     -11.854  15.320  64.213  1.00  0.00    -0.413 F  
HETATM   14  F   UNL     1     -10.903  13.383  64.090  1.00  0.00    -0.371 F  
HETATM   15  N   UNL     1     -11.270  11.984  66.882  1.00  0.00    -0.301 N  
HETATM   16  F   UNL     1     -12.883  13.577  64.983  1.00  0.00    -0.434 F  
HETATM   17  C   UNL     1     -10.350  13.597  68.473  1.00  0.00    -0.244 A  
HETATM   18  C   UNL     1      -9.997  14.903  68.835  1.00  0.00    -0.233 A  
HETATM   19  O   UNL     1     -10.734  11.450  65.908  1.00  0.00    -0.264 OA 
HETATM   20  O   UNL     1     -12.093  11.454  67.639  1.00  0.00    -0.630 OA 
ENDBRANCH   6   8
TORSDOF 1
ENDMDL
MODEL       22
REMARK 921   NORMALIZED FREE ENERGY PREDICTED BY IDOCK:   -6.03 KCAL/MOL
REMARK 922        TOTAL FREE ENERGY PREDICTED BY IDOCK:   -6.69 KCAL/MOL
REMARK 923 INTER-LIGAND FREE ENERGY PREDICTED BY IDOCK:   -6.42 KCAL/MOL
REMARK 924 INTRA-LIGAND FREE ENERGY PREDICTED BY IDOCK:   -0.27 KCAL/MOL
REMARK 927      BINDING AFFINITY PREDICTED BY RF-SCORE:    0.00 PKD
ROOT
HETATM    1  C   UNL     1     -11.452  14.441  66.692  1.00  0.00    -0.372 C  
HETATM    2  C   UNL     1     -11.121  14.087  68.145  1.00  0.00    -0.280 C  
HETATM    3  C   UNL     1     -11.847  15.045  69.086  1.00  0.00    -0.338 C  
HETATM    4  C   UNL     1     -11.512  12.635  68.412  1.00  0.00    -0.310 C  
HETATM    5  O   UNL     1     -12.054  11.959  67.544  1.00  0.00    -0.573 OA 
HETATM    6  N   UNL     1     -11.167  12.167  69.675  1.00  0.00    -0.472 N  
HETATM    7  H   UNL     1     -10.595  12.778  70.260  1.00  0.00     0.000 HD 
ENDROOT
BRANCH   6   8
HETATM    8  C   UNL     1     -11.543  10.917  70.216  1.00  0.00    -0.334 A  
HETATM    9  C   UNL     1     -10.927   9.716  69.840  1.00  0.00    -0.281 A  
HETATM   10  C   UNL     1     -11.329   8.470  70.357  1.00  0.00    -0.193 A  
HETATM   11  C   UNL     1     -10.657   7.214  69.868  1.00  0.00    -0.230 C  
HETATM   12  C   UNL     1     -12.386   8.463  71.273  1.00  0.00    -0.266 A  
HETATM   13  F   UNL     1      -9.744   7.443  68.882  1.00  0.00    -0.147 F  
HETATM   14  F   UNL     1      -9.978   6.551  70.837  1.00  0.00    -0.187 F  
HETATM   15  N   UNL     1     -12.891   7.213  71.821  1.00  0.00    -0.347 N  
HETATM   16  F   UNL     1     -11.547   6.334  69.337  1.00  0.00    -0.468 F  
HETATM   17  C   UNL     1     -13.023   9.650  71.666  1.00  0.00    -0.501 A  
HETATM   18  C   UNL     1     -12.601  10.873  71.130  1.00  0.00    -0.532 A  
HETATM   19  O   UNL     1     -12.094   6.509  72.447  1.00  0.00    -0.228 OA 
HETATM   20  O   UNL     1     -14.090   6.969  71.642  1.00  0.00    -0.359 OA 
ENDBRANCH   6   8
TORSDOF 1
ENDMDL
MODEL       23
REMARK 921   NORMALIZED FREE ENERGY PREDICTED BY IDOCK:   -5.97 KCAL/MOL
REMARK 922        TOTAL FREE ENERGY PREDICTED BY IDOCK:   -6.63 KCAL/MOL
REMARK 923 INTER-LIGAND FREE ENERGY PREDICTED BY IDOCK:   -6.44 KCAL/MOL
REMARK 924 INTRA-LIGAND FREE ENERGY PREDICTED BY IDOCK:   -0.19 KCAL/MOL
REMARK 927      BINDING AFFINITY PREDICTED BY RF-SCORE:    0.00 PKD
ROOT
HETATM    1  C   UNL     1      -9.768   5.070  67.111  1.00  0.00    -0.180 C  
HETATM    2  C   UNL     1      -9.042   6.389  66.823  1.00  0.00    -0.147 C  
HETATM    3  C   UNL     1      -8.329   6.300  65.476  1.00  0.00    -0.147 C  
HETATM    4  C   UNL     1     -10.051   7.536  66.848  1.00  0.00    -0.266 C  
HETATM    5  O   UNL     1     -11.246   7.320  67.025  1.00  0.00    -0.221 OA 
HETATM    6  N   UNL     1      -9.492   8.799  66.697  1.00  0.00    -0.185 N  
HETATM    7  H   UNL     1      -8.473   8.863  66.698  1.00  0.00     0.000 HD 
ENDROOT
BRANCH   6   8
HETATM    8  C   UNL     1     -10.217  10.002  66.542  1.00  0.00    -0.224 A  
HETATM    9  C   UNL     1     -10.219  10.734  65.346  1.00  0.00    -0.341 A  
HETATM   10  C   UNL     1     -10.916  11.949  65.210  1.00  0.00    -0.354 A  
HETATM   11  C   UNL     1     -10.830  12.709  63.912  1.00  0.00    -0.429 C  
HETATM   12  C   UNL     1     -11.619  12.418  66.324  1.00  0.00    -0.393 A  
HETATM   13  F   UNL     1      -9.987  12.133  63.007  1.00  0.00    -0.404 F  
HETATM   14  F   UNL     1     -12.020  12.821  63.271  1.00  0.00    -0.527 F  
HETATM   15  N   UNL     1     -12.330  13.687  66.278  1.00  0.00    -0.430 N  
HETATM   16  F   UNL     1     -10.358  13.971  64.091  1.00  0.00    -0.345 F  
HETATM   17  C   UNL     1     -11.634  11.708  67.533  1.00  0.00    -0.345 A  
HETATM   18  C   UNL     1     -10.927  10.503  67.638  1.00  0.00    -0.375 A  
HETATM   19  O   UNL     1     -13.218  13.806  65.430  1.00  0.00    -0.722 OA 
HETATM   20  O   UNL     1     -12.007  14.538  67.115  1.00  0.00    -0.406 OA 
ENDBRANCH   6   8
TORSDOF 1
ENDMDL
MODEL       24
REMARK 921   NORMALIZED FREE ENERGY PREDICTED BY IDOCK:   -5.94 KCAL/MOL
REMARK 922        TOTAL FREE ENERGY PREDICTED BY IDOCK:   -6.59 KCAL/MOL
REMARK 923 INTER-LIGAND FREE ENERGY PREDICTED BY IDOCK:   -6.27 KCAL/MOL
REMARK 924 INTRA-LIGAND FREE ENERGY PREDICTED BY IDOCK:   -0.31 KCAL/MOL
REMARK 927      BINDING AFFINITY PREDICTED BY RF-SCORE:    0.00 PKD
ROOT
HETATM    1  C   UNL     1     -11.637  14.716  65.924  1.00  0.00    -0.327 C  
HETATM    2  C   UNL     1     -11.042  14.371  67.293  1.00  0.00    -0.318 C  
HETATM    3  C   UNL     1     -11.658  15.270  68.362  1.00  0.00    -0.365 C  
HETATM    4  C   UNL     1     -11.288  12.894  67.593  1.00  0.00    -0.303 C  
HETATM    5  O   UNL     1     -11.926  12.191  66.815  1.00  0.00    -0.606 OA 
HETATM    6  N   UNL     1     -10.705  12.439  68.770  1.00  0.00    -0.291 N  
HETATM    7  H   UNL     1     -10.083  13.081  69.263  1.00  0.00     0.000 HD 
ENDROOT
BRANCH   6   8
HETATM    8  C   UNL     1     -10.904  11.162  69.342  1.00  0.00    -0.216 A  
HETATM    9  C   UNL     1     -11.942  10.891  70.244  1.00  0.00    -0.448 A  
HETATM   10  C   UNL     1     -12.113   9.626  70.835  1.00  0.00    -0.383 A  
HETATM   11  C   UNL     1     -13.218   9.421  71.837  1.00  0.00    -0.429 C  
HETATM   12  C   UNL     1     -11.198   8.625  70.493  1.00  0.00    -0.241 A  
HETATM   13  F   UNL     1     -13.908  10.564  72.117  1.00  0.00    -0.346 F  
HETATM   14  F   UNL     1     -14.156   8.527  71.435  1.00  0.00    -0.410 F  
HETATM   15  N   UNL     1     -11.280   7.302  71.094  1.00  0.00    -0.253 N  
HETATM   16  F   UNL     1     -12.746   8.984  73.035  1.00  0.00    -0.373 F  
HETATM   17  C   UNL     1     -10.148   8.867  69.594  1.00  0.00    -0.202 A  
HETATM   18  C   UNL     1     -10.003  10.139  69.026  1.00  0.00    -0.216 A  
HETATM   19  O   UNL     1     -12.325   6.668  70.924  1.00  0.00    -0.353 OA 
HETATM   20  O   UNL     1     -10.280   6.902  71.704  1.00  0.00    -0.192 OA 
ENDBRANCH   6   8
TORSDOF 1
ENDMDL
MODEL       25
REMARK 921   NORMALIZED FREE ENERGY PREDICTED BY IDOCK:   -5.93 KCAL/MOL
REMARK 922        TOTAL FREE ENERGY PREDICTED BY IDOCK:   -6.59 KCAL/MOL
REMARK 923 INTER-LIGAND FREE ENERGY PREDICTED BY IDOCK:   -6.27 KCAL/MOL
REMARK 924 INTRA-LIGAND FREE ENERGY PREDICTED BY IDOCK:   -0.31 KCAL/MOL
REMARK 927      BINDING AFFINITY PREDICTED BY RF-SCORE:    0.00 PKD
ROOT
HETATM    1  C   UNL     1      -7.285  19.466  68.932  1.00  0.00    -0.397 C  
HETATM    2  C   UNL     1      -6.963  18.437  67.844  1.00  0.00    -0.218 C  
HETATM    3  C   UNL     1      -5.642  17.744  68.168  1.00  0.00    -0.153 C  
HETATM    4  C   UNL     1      -8.111  17.434  67.741  1.00  0.00    -0.214 C  
HETATM    5  O   UNL     1      -9.073  17.499  68.500  1.00  0.00    -0.268 OA 
HETATM    6  N   UNL     1      -7.976  16.506  66.716  1.00  0.00    -0.225 N  
HETATM    7  H   UNL     1      -7.203  16.638  66.063  1.00  0.00     0.000 HD 
ENDROOT
BRANCH   6   8
HETATM    8  C   UNL     1      -8.822  15.394  66.502  1.00  0.00    -0.312 A  
HETATM    9  C   UNL     1      -9.958  15.455  65.684  1.00  0.00    -0.396 A  
HETATM   10  C   UNL     1     -10.815  14.353  65.503  1.00  0.00    -0.335 A  
HETATM   11  C   UNL     1     -12.047  14.507  64.651  1.00  0.00    -0.473 C  
HETATM   12  C   UNL     1     -10.496  13.171  66.180  1.00  0.00    -0.281 A  
HETATM   13  F   UNL     1     -12.229  15.778  64.194  1.00  0.00    -0.443 F  
HETATM   14  F   UNL     1     -12.039  13.726  63.542  1.00  0.00    -0.490 F  
HETATM   15  N   UNL     1     -11.355  12.000  66.080  1.00  0.00    -0.342 N  
HETATM   16  F   UNL     1     -13.181  14.205  65.337  1.00  0.00    -0.521 F  
HETATM   17  C   UNL     1      -9.367  13.081  67.007  1.00  0.00    -0.236 A  
HETATM   18  C   UNL     1      -8.537  14.197  67.169  1.00  0.00    -0.230 A  
HETATM   19  O   UNL     1     -11.540  11.530  64.955  1.00  0.00    -0.141 OA 
HETATM   20  O   UNL     1     -11.809  11.549  67.139  1.00  0.00    -0.595 OA 
ENDBRANCH   6   8
TORSDOF 1
ENDMDL
MODEL       26
REMARK 921   NORMALIZED FREE ENERGY PREDICTED BY IDOCK:   -5.88 KCAL/MOL
REMARK 922        TOTAL FREE ENERGY PREDICTED BY IDOCK:   -6.53 KCAL/MOL
REMARK 923 INTER-LIGAND FREE ENERGY PREDICTED BY IDOCK:   -6.24 KCAL/MOL
REMARK 924 INTRA-LIGAND FREE ENERGY PREDICTED BY IDOCK:   -0.28 KCAL/MOL
REMARK 927      BINDING AFFINITY PREDICTED BY RF-SCORE:    0.00 PKD
ROOT
HETATM    1  C   UNL     1     -10.905   9.262  69.956  1.00  0.00    -0.264 C  
HETATM    2  C   UNL     1     -11.908  10.414  69.837  1.00  0.00    -0.314 C  
HETATM    3  C   UNL     1     -12.532  10.696  71.201  1.00  0.00    -0.523 C  
HETATM    4  C   UNL     1     -11.197  11.647  69.281  1.00  0.00    -0.265 C  
HETATM    5  O   UNL     1      -9.991  11.628  69.051  1.00  0.00    -0.120 OA 
HETATM    6  N   UNL     1     -12.030  12.732  69.035  1.00  0.00    -0.277 N  
HETATM    7  H   UNL     1     -13.034  12.582  69.133  1.00  0.00     0.000 HD 
ENDROOT
BRANCH   6   8
HETATM    8  C   UNL     1     -11.600  14.025  68.660  1.00  0.00    -0.325 A  
HETATM    9  C   UNL     1     -11.217  14.343  67.350  1.00  0.00    -0.337 A  
HETATM   10  C   UNL     1     -10.757  15.624  66.991  1.00  0.00    -0.314 A  
HETATM   11  C   UNL     1     -10.312  15.880  65.575  1.00  0.00    -0.400 C  
HETATM   12  C   UNL     1     -10.689  16.590  67.999  1.00  0.00    -0.343 A  
HETATM   13  F   UNL     1     -10.343  14.764  64.792  1.00  0.00    -0.412 F  
HETATM   14  F   UNL     1     -11.075  16.794  64.924  1.00  0.00    -0.415 F  
HETATM   15  N   UNL     1     -10.183  17.926  67.719  1.00  0.00    -0.350 N  
HETATM   16  F   UNL     1      -9.028  16.325  65.517  1.00  0.00    -0.252 F  
HETATM   17  C   UNL     1     -11.063  16.300  69.319  1.00  0.00    -0.325 A  
HETATM   18  C   UNL     1     -11.513  15.014  69.645  1.00  0.00    -0.321 A  
HETATM   19  O   UNL     1     -10.779  18.587  66.864  1.00  0.00    -0.383 OA 
HETATM   20  O   UNL     1      -9.212  18.307  68.385  1.00  0.00    -0.301 OA 
ENDBRANCH   6   8
TORSDOF 1
ENDMDL
MODEL       27
REMARK 921   NORMALIZED FREE ENERGY PREDICTED BY IDOCK:   -5.87 KCAL/MOL
REMARK 922        TOTAL FREE ENERGY PREDICTED BY IDOCK:   -6.52 KCAL/MOL
REMARK 923 INTER-LIGAND FREE ENERGY PREDICTED BY IDOCK:   -6.21 KCAL/MOL
REMARK 924 INTRA-LIGAND FREE ENERGY PREDICTED BY IDOCK:   -0.31 KCAL/MOL
REMARK 927      BINDING AFFINITY PREDICTED BY RF-SCORE:    0.00 PKD
ROOT
HETATM    1  C   UNL     1      -8.816   7.631  71.948  1.00  0.00    -0.143 C  
HETATM    2  C   UNL     1     -10.202   7.968  71.389  1.00  0.00    -0.239 C  
HETATM    3  C   UNL     1     -11.176   8.212  72.539  1.00  0.00    -0.459 C  
HETATM    4  C   UNL     1     -10.096   9.188  70.476  1.00  0.00    -0.235 C  
HETATM    5  O   UNL     1      -9.026   9.771  70.327  1.00  0.00    -0.232 OA 
HETATM    6  N   UNL     1     -11.278   9.530  69.830  1.00  0.00    -0.381 N  
HETATM    7  H   UNL     1     -12.066   8.889  69.924  1.00  0.00     0.000 HD 
ENDROOT
BRANCH   6   8
HETATM    8  C   UNL     1     -11.478  10.694  69.052  1.00  0.00    -0.274 A  
HETATM    9  C   UNL     1     -11.202  10.740  67.679  1.00  0.00    -0.370 A  
HETATM   10  C   UNL     1     -11.371  11.912  66.917  1.00  0.00    -0.392 A  
HETATM   11  C   UNL     1     -11.004  11.904  65.457  1.00  0.00    -0.297 C  
HETATM   12  C   UNL     1     -11.829  13.053  67.583  1.00  0.00    -0.351 A  
HETATM   13  F   UNL     1     -10.459  10.724  65.046  1.00  0.00    -0.341 F  
HETATM   14  F   UNL     1     -12.061  12.115  64.632  1.00  0.00    -0.418 F  
HETATM   15  N   UNL     1     -11.989  14.316  66.877  1.00  0.00    -0.433 N  
HETATM   16  F   UNL     1     -10.076  12.852  65.159  1.00  0.00    -0.278 F  
HETATM   17  C   UNL     1     -12.111  13.037  68.957  1.00  0.00    -0.220 A  
HETATM   18  C   UNL     1     -11.928  11.855  69.688  1.00  0.00    -0.365 A  
HETATM   19  O   UNL     1     -12.766  14.332  65.919  1.00  0.00    -0.451 OA 
HETATM   20  O   UNL     1     -11.354  15.284  67.313  1.00  0.00    -0.332 OA 
ENDBRANCH   6   8
TORSDOF 1
ENDMDL
MODEL       28
REMARK 921   NORMALIZED FREE ENERGY PREDICTED BY IDOCK:   -5.85 KCAL/MOL
REMARK 922        TOTAL FREE ENERGY PREDICTED BY IDOCK:   -6.49 KCAL/MOL
REMARK 923 INTER-LIGAND FREE ENERGY PREDICTED BY IDOCK:   -6.41 KCAL/MOL
REMARK 924 INTRA-LIGAND FREE ENERGY PREDICTED BY IDOCK:   -0.09 KCAL/MOL
REMARK 927      BINDING AFFINITY PREDICTED BY RF-SCORE:    0.00 PKD
ROOT
HETATM    1  C   UNL     1     -11.128   6.776  72.752  1.00  0.00    -0.292 C  
HETATM    2  C   UNL     1     -11.795   7.235  71.452  1.00  0.00    -0.338 C  
HETATM    3  C   UNL     1     -13.310   7.097  71.574  1.00  0.00    -0.413 C  
HETATM    4  C   UNL     1     -11.385   8.677  71.156  1.00  0.00    -0.275 C  
HETATM    5  O   UNL     1     -10.672   9.301  71.936  1.00  0.00    -0.339 OA 
HETATM    6  N   UNL     1     -11.852   9.172  69.944  1.00  0.00    -0.351 N  
HETATM    7  H   UNL     1     -12.317   8.515  69.318  1.00  0.00     0.000 HD 
ENDROOT
BRANCH   6   8
HETATM    8  C   UNL     1     -11.735  10.512  69.508  1.00  0.00    -0.241 A  
HETATM    9  C   UNL     1     -12.039  11.603  70.333  1.00  0.00    -0.462 A  
HETATM   10  C   UNL     1     -11.953  12.934  69.881  1.00  0.00    -0.377 A  
HETATM   11  C   UNL     1     -12.346  14.055  70.806  1.00  0.00    -0.373 C  
HETATM   12  C   UNL     1     -11.550  13.141  68.558  1.00  0.00    -0.326 A  
HETATM   13  F   UNL     1     -12.830  13.619  72.004  1.00  0.00    -0.399 F  
HETATM   14  F   UNL     1     -11.320  14.887  71.116  1.00  0.00    -0.328 F  
HETATM   15  N   UNL     1     -11.477  14.484  68.002  1.00  0.00    -0.305 N  
HETATM   16  F   UNL     1     -13.333  14.828  70.279  1.00  0.00    -0.288 F  
HETATM   17  C   UNL     1     -11.241  12.067  67.709  1.00  0.00    -0.331 A  
HETATM   18  C   UNL     1     -11.341  10.755  68.188  1.00  0.00    -0.377 A  
HETATM   19  O   UNL     1     -10.721  15.285  68.557  1.00  0.00    -0.235 OA 
HETATM   20  O   UNL     1     -12.159  14.708  66.994  1.00  0.00    -0.357 OA 
ENDBRANCH   6   8
TORSDOF 1
ENDMDL
MODEL       29
REMARK 921   NORMALIZED FREE ENERGY PREDICTED BY IDOCK:   -5.75 KCAL/MOL
REMARK 922        TOTAL FREE ENERGY PREDICTED BY IDOCK:   -6.40 KCAL/MOL
REMARK 923 INTER-LIGAND FREE ENERGY PREDICTED BY IDOCK:   -6.08 KCAL/MOL
REMARK 924 INTRA-LIGAND FREE ENERGY PREDICTED BY IDOCK:   -0.31 KCAL/MOL
REMARK 927      BINDING AFFINITY PREDICTED BY RF-SCORE:    0.00 PKD
ROOT
HETATM    1  C   UNL     1      -6.842   7.012  65.922  1.00  0.00    -0.057 C  
HETATM    2  C   UNL     1      -8.326   7.362  65.775  1.00  0.00    -0.141 C  
HETATM    3  C   UNL     1      -9.073   6.981  67.051  1.00  0.00    -0.150 C  
HETATM    4  C   UNL     1      -8.466   8.851  65.467  1.00  0.00    -0.159 C  
HETATM    5  O   UNL     1      -7.480   9.580  65.422  1.00  0.00    -0.094 OA 
HETATM    6  N   UNL     1      -9.768   9.269  65.214  1.00  0.00    -0.454 N  
HETATM    7  H   UNL     1     -10.485   8.547  65.142  1.00  0.00     0.000 HD 
ENDROOT
BRANCH   6   8
HETATM    8  C   UNL     1     -10.179  10.611  65.048  1.00  0.00    -0.310 A  
HETATM    9  C   UNL     1     -10.428  11.464  66.132  1.00  0.00    -0.303 A  
HETATM   10  C   UNL     1     -10.871  12.789  65.960  1.00  0.00    -0.301 A  
HETATM   11  C   UNL     1     -11.169  13.632  67.171  1.00  0.00    -0.309 C  
HETATM   12  C   UNL     1     -11.062  13.239  64.650  1.00  0.00    -0.357 A  
HETATM   13  F   UNL     1     -11.036  12.951  68.345  1.00  0.00    -0.235 F  
HETATM   14  F   UNL     1     -10.360  14.713  67.292  1.00  0.00    -0.249 F  
HETATM   15  N   UNL     1     -11.559  14.582  64.388  1.00  0.00    -0.348 N  
HETATM   16  F   UNL     1     -12.448  14.095  67.167  1.00  0.00    -0.433 F  
HETATM   17  C   UNL     1     -10.823  12.408  63.546  1.00  0.00    -0.487 A  
HETATM   18  C   UNL     1     -10.387  11.093  63.751  1.00  0.00    -0.447 A  
HETATM   19  O   UNL     1     -10.890  15.525  64.816  1.00  0.00    -0.430 OA 
HETATM   20  O   UNL     1     -12.602  14.673  63.728  1.00  0.00    -0.820 OA 
ENDBRANCH   6   8
TORSDOF 1
ENDMDL
MODEL       30
REMARK 921   NORMALIZED FREE ENERGY PREDICTED BY IDOCK:   -5.75 KCAL/MOL
REMARK 922        TOTAL FREE ENERGY PREDICTED BY IDOCK:   -6.39 KCAL/MOL
REMARK 923 INTER-LIGAND FREE ENERGY PREDICTED BY IDOCK:   -6.20 KCAL/MOL
REMARK 924 INTRA-LIGAND FREE ENERGY PREDICTED BY IDOCK:   -0.19 KCAL/MOL
REMARK 927      BINDING AFFINITY PREDICTED BY RF-SCORE:    0.00 PKD
ROOT
HETATM    1  C   UNL     1     -13.497  14.751  72.697  1.00  0.00    -0.570 C  
HETATM    2  C   UNL     1     -12.985  15.383  71.399  1.00  0.00    -0.532 C  
HETATM    3  C   UNL     1     -11.771  16.259  71.697  1.00  0.00    -0.490 C  
HETATM    4  C   UNL     1     -12.646  14.279  70.399  1.00  0.00    -0.343 C  
HETATM    5  O   UNL     1     -12.751  13.096  70.708  1.00  0.00    -0.273 OA 
HETATM    6  N   UNL     1     -12.263  14.735  69.143  1.00  0.00    -0.555 N  
HETATM    7  H   UNL     1     -12.348  15.735  68.962  1.00  0.00     0.000 HD 
ENDROOT
BRANCH   6   8
HETATM    8  C   UNL     1     -11.764  13.927  68.096  1.00  0.00    -0.353 A  
HETATM    9  C   UNL     1     -10.632  13.114  68.243  1.00  0.00    -0.260 A  
HETATM   10  C   UNL     1     -10.121  12.338  67.186  1.00  0.00    -0.218 A  
HETATM   11  C   UNL     1      -8.869  11.529  67.401  1.00  0.00    -0.157 C  
HETATM   12  C   UNL     1     -10.786  12.404  65.958  1.00  0.00    -0.273 A  
HETATM   13  F   UNL     1      -8.316  11.712  68.634  1.00  0.00    -0.144 F  
HETATM   14  F   UNL     1      -9.064  10.190  67.292  1.00  0.00    -0.135 F  
HETATM   15  N   UNL     1     -10.296  11.666  64.803  1.00  0.00    -0.267 N  
HETATM   16  F   UNL     1      -7.892  11.858  66.515  1.00  0.00    -0.141 F  
HETATM   17  C   UNL     1     -11.920  13.210  65.781  1.00  0.00    -0.473 A  
HETATM   18  C   UNL     1     -12.402  13.974  66.852  1.00  0.00    -0.321 A  
HETATM   19  O   UNL     1     -10.217  10.439  64.909  1.00  0.00    -0.338 OA 
HETATM   20  O   UNL     1     -10.025  12.326  63.792  1.00  0.00    -0.359 OA 
ENDBRANCH   6   8
TORSDOF 1
ENDMDL
MODEL       31
REMARK 921   NORMALIZED FREE ENERGY PREDICTED BY IDOCK:   -5.67 KCAL/MOL
REMARK 922        TOTAL FREE ENERGY PREDICTED BY IDOCK:   -6.31 KCAL/MOL
REMARK 923 INTER-LIGAND FREE ENERGY PREDICTED BY IDOCK:   -6.10 KCAL/MOL
REMARK 924 INTRA-LIGAND FREE ENERGY PREDICTED BY IDOCK:   -0.21 KCAL/MOL
REMARK 927      BINDING AFFINITY PREDICTED BY RF-SCORE:    0.00 PKD
ROOT
HETATM    1  C   UNL     1     -12.536  12.024  63.477  1.00  0.00    -0.654 C  
HETATM    2  C   UNL     1     -11.354  12.320  64.406  1.00  0.00    -0.396 C  
HETATM    3  C   UNL     1     -10.042  12.071  63.665  1.00  0.00    -0.439 C  
HETATM    4  C   UNL     1     -11.451  13.762  64.902  1.00  0.00    -0.343 C  
HETATM    5  O   UNL     1     -12.348  14.503  64.511  1.00  0.00    -0.525 OA 
HETATM    6  N   UNL     1     -10.483  14.118  65.833  1.00  0.00    -0.296 N  
HETATM    7  H   UNL     1      -9.877  13.377  66.185  1.00  0.00     0.000 HD 
ENDROOT
BRANCH   6   8
HETATM    8  C   UNL     1     -10.269  15.423  66.333  1.00  0.00    -0.286 A  
HETATM    9  C   UNL     1      -9.142  16.185  65.996  1.00  0.00    -0.354 A  
HETATM   10  C   UNL     1      -8.918  17.470  66.524  1.00  0.00    -0.284 A  
HETATM   11  C   UNL     1      -7.658  18.210  66.159  1.00  0.00    -0.243 C  
HETATM   12  C   UNL     1      -9.870  17.976  67.416  1.00  0.00    -0.309 A  
HETATM   13  F   UNL     1      -6.812  17.479  65.379  1.00  0.00    -0.187 F  
HETATM   14  F   UNL     1      -7.884  19.354  65.466  1.00  0.00    -0.261 F  
HETATM   15  N   UNL     1      -9.690  19.279  68.039  1.00  0.00    -0.330 N  
HETATM   16  F   UNL     1      -6.932  18.551  67.257  1.00  0.00    -0.196 F  
HETATM   17  C   UNL     1     -11.006  17.235  67.773  1.00  0.00    -0.163 A  
HETATM   18  C   UNL     1     -11.198  15.957  67.233  1.00  0.00    -0.094 A  
HETATM   19  O   UNL     1      -9.596  20.254  67.290  1.00  0.00    -0.393 OA 
HETATM   20  O   UNL     1      -9.677  19.308  69.276  1.00  0.00    -0.349 OA 
ENDBRANCH   6   8
TORSDOF 1
ENDMDL
MODEL       32
REMARK 921   NORMALIZED FREE ENERGY PREDICTED BY IDOCK:   -5.67 KCAL/MOL
REMARK 922        TOTAL FREE ENERGY PREDICTED BY IDOCK:   -6.30 KCAL/MOL
REMARK 923 INTER-LIGAND FREE ENERGY PREDICTED BY IDOCK:   -6.00 KCAL/MOL
REMARK 924 INTRA-LIGAND FREE ENERGY PREDICTED BY IDOCK:   -0.30 KCAL/MOL
REMARK 927      BINDING AFFINITY PREDICTED BY RF-SCORE:    0.00 PKD
ROOT
HETATM    1  C   UNL     1      -9.487  19.215  68.006  1.00  0.00    -0.390 C  
HETATM    2  C   UNL     1     -10.575  18.229  67.568  1.00  0.00    -0.432 C  
HETATM    3  C   UNL     1     -10.395  17.887  66.091  1.00  0.00    -0.352 C  
HETATM    4  C   UNL     1     -10.506  16.979  68.444  1.00  0.00    -0.370 C  
HETATM    5  O   UNL     1      -9.638  16.860  69.303  1.00  0.00    -0.200 OA 
HETATM    6  N   UNL     1     -11.512  16.050  68.205  1.00  0.00    -0.304 N  
HETATM    7  H   UNL     1     -12.258  16.323  67.564  1.00  0.00     0.000 HD 
ENDROOT
BRANCH   6   8
HETATM    8  C   UNL     1     -11.587  14.759  68.775  1.00  0.00    -0.320 A  
HETATM    9  C   UNL     1     -11.082  13.620  68.134  1.00  0.00    -0.281 A  
HETATM   10  C   UNL     1     -11.191  12.333  68.692  1.00  0.00    -0.305 A  
HETATM   11  C   UNL     1     -10.673  11.147  67.922  1.00  0.00    -0.216 C  
HETATM   12  C   UNL     1     -11.831  12.219  69.930  1.00  0.00    -0.311 A  
HETATM   13  F   UNL     1     -10.204  11.473  66.684  1.00  0.00    -0.224 F  
HETATM   14  F   UNL     1      -9.646  10.508  68.536  1.00  0.00    -0.142 F  
HETATM   15  N   UNL     1     -12.022  10.918  70.554  1.00  0.00    -0.343 N  
HETATM   16  F   UNL     1     -11.642  10.217  67.706  1.00  0.00    -0.365 F  
HETATM   17  C   UNL     1     -12.347  13.341  70.594  1.00  0.00    -0.416 A  
HETATM   18  C   UNL     1     -12.227  14.608  70.010  1.00  0.00    -0.385 A  
HETATM   19  O   UNL     1     -11.010  10.258  70.804  1.00  0.00    -0.306 OA 
HETATM   20  O   UNL     1     -13.186  10.589  70.814  1.00  0.00    -0.335 OA 
ENDBRANCH   6   8
TORSDOF 1
ENDMDL
MODEL       33
REMARK 921   NORMALIZED FREE ENERGY PREDICTED BY IDOCK:   -5.66 KCAL/MOL
REMARK 922        TOTAL FREE ENERGY PREDICTED BY IDOCK:   -6.30 KCAL/MOL
REMARK 923 INTER-LIGAND FREE ENERGY PREDICTED BY IDOCK:   -6.22 KCAL/MOL
REMARK 924 INTRA-LIGAND FREE ENERGY PREDICTED BY IDOCK:   -0.08 KCAL/MOL
REMARK 927      BINDING AFFINITY PREDICTED BY RF-SCORE:    0.00 PKD
ROOT
HETATM    1  C   UNL     1     -11.768  13.026  69.638  1.00  0.00    -0.364 C  
HETATM    2  C   UNL     1     -10.965  13.227  68.349  1.00  0.00    -0.289 C  
HETATM    3  C   UNL     1     -11.877  13.032  67.140  1.00  0.00    -0.431 C  
HETATM    4  C   UNL     1     -10.336  14.619  68.357  1.00  0.00    -0.237 C  
HETATM    5  O   UNL     1     -10.550  15.401  69.279  1.00  0.00    -0.226 OA 
HETATM    6  N   UNL     1      -9.500  14.882  67.279  1.00  0.00    -0.209 N  
HETATM    7  H   UNL     1      -9.290  14.106  66.650  1.00  0.00     0.000 HD 
ENDROOT
BRANCH   6   8
HETATM    8  C   UNL     1      -8.917  16.134  66.981  1.00  0.00    -0.211 A  
HETATM    9  C   UNL     1      -9.646  17.331  67.004  1.00  0.00    -0.262 A  
HETATM   10  C   UNL     1      -9.068  18.570  66.672  1.00  0.00    -0.306 A  
HETATM   11  C   UNL     1      -9.925  19.809  66.667  1.00  0.00    -0.441 C  
HETATM   12  C   UNL     1      -7.718  18.575  66.309  1.00  0.00    -0.254 A  
HETATM   13  F   UNL     1     -11.239  19.553  66.928  1.00  0.00    -0.530 F  
HETATM   14  F   UNL     1      -9.551  20.730  67.589  1.00  0.00    -0.520 F  
HETATM   15  N   UNL     1      -7.056  19.809  65.911  1.00  0.00    -0.283 N  
HETATM   16  F   UNL     1      -9.912  20.432  65.459  1.00  0.00    -0.491 F  
HETATM   17  C   UNL     1      -6.963  17.393  66.275  1.00  0.00    -0.319 A  
HETATM   18  C   UNL     1      -7.570  16.175  66.607  1.00  0.00    -0.238 A  
HETATM   19  O   UNL     1      -7.034  20.728  66.734  1.00  0.00    -0.277 OA 
HETATM   20  O   UNL     1      -6.540  19.828  64.787  1.00  0.00    -0.329 OA 
ENDBRANCH   6   8
TORSDOF 1
ENDMDL
MODEL       34
REMARK 921   NORMALIZED FREE ENERGY PREDICTED BY IDOCK:   -5.64 KCAL/MOL
REMARK 922        TOTAL FREE ENERGY PREDICTED BY IDOCK:   -6.28 KCAL/MOL
REMARK 923 INTER-LIGAND FREE ENERGY PREDICTED BY IDOCK:   -6.17 KCAL/MOL
REMARK 924 INTRA-LIGAND FREE ENERGY PREDICTED BY IDOCK:   -0.11 KCAL/MOL
REMARK 927      BINDING AFFINITY PREDICTED BY RF-SCORE:    0.00 PKD
ROOT
HETATM    1  C   UNL     1      -6.251  18.698  69.419  1.00  0.00    -0.280 C  
HETATM    2  C   UNL     1      -6.285  17.345  68.702  1.00  0.00    -0.175 C  
HETATM    3  C   UNL     1      -5.975  16.228  69.696  1.00  0.00    -0.176 C  
HETATM    4  C   UNL     1      -7.654  17.152  68.052  1.00  0.00    -0.191 C  
HETATM    5  O   UNL     1      -8.540  17.989  68.191  1.00  0.00    -0.258 OA 
HETATM    6  N   UNL     1      -7.772  15.998  67.286  1.00  0.00    -0.164 N  
HETATM    7  H   UNL     1      -6.925  15.451  67.131  1.00  0.00     0.000 HD 
ENDROOT
BRANCH   6   8
HETATM    8  C   UNL     1      -8.968  15.521  66.705  1.00  0.00    -0.287 A  
HETATM    9  C   UNL     1      -9.515  14.270  67.022  1.00  0.00    -0.259 A  
HETATM   10  C   UNL     1     -10.688  13.786  66.414  1.00  0.00    -0.281 A  
HETATM   11  C   UNL     1     -11.189  12.410  66.764  1.00  0.00    -0.310 C  
HETATM   12  C   UNL     1     -11.305  14.603  65.461  1.00  0.00    -0.341 A  
HETATM   13  F   UNL     1     -10.364  11.739  67.618  1.00  0.00    -0.195 F  
HETATM   14  F   UNL     1     -12.403  12.413  67.370  1.00  0.00    -0.281 F  
HETATM   15  N   UNL     1     -12.497  14.158  64.755  1.00  0.00    -0.405 N  
HETATM   16  F   UNL     1     -11.298  11.612  65.668  1.00  0.00    -0.360 F  
HETATM   17  C   UNL     1     -10.780  15.859  65.122  1.00  0.00    -0.449 A  
HETATM   18  C   UNL     1      -9.608  16.310  65.743  1.00  0.00    -0.266 A  
HETATM   19  O   UNL     1     -13.488  13.883  65.438  1.00  0.00    -0.672 OA 
HETATM   20  O   UNL     1     -12.433  14.119  63.520  1.00  0.00    -0.817 OA 
ENDBRANCH   6   8
TORSDOF 1
ENDMDL
MODEL       35
REMARK 921   NORMALIZED FREE ENERGY PREDICTED BY IDOCK:   -5.64 KCAL/MOL
REMARK 922        TOTAL FREE ENERGY PREDICTED BY IDOCK:   -6.27 KCAL/MOL
REMARK 923 INTER-LIGAND FREE ENERGY PREDICTED BY IDOCK:   -5.98 KCAL/MOL
REMARK 924 INTRA-LIGAND FREE ENERGY PREDICTED BY IDOCK:   -0.29 KCAL/MOL
REMARK 927      BINDING AFFINITY PREDICTED BY RF-SCORE:    0.00 PKD
ROOT
HETATM    1  C   UNL     1      -8.021   8.230  71.400  1.00  0.00    -0.139 C  
HETATM    2  C   UNL     1      -7.800   9.552  70.658  1.00  0.00    -0.149 C  
HETATM    3  C   UNL     1      -6.516   9.472  69.836  1.00  0.00    -0.053 C  
HETATM    4  C   UNL     1      -9.013   9.844  69.776  1.00  0.00    -0.221 C  
HETATM    5  O   UNL     1      -9.944   9.048  69.702  1.00  0.00    -0.181 OA 
HETATM    6  N   UNL     1      -8.971  11.072  69.126  1.00  0.00    -0.377 N  
HETATM    7  H   UNL     1      -8.213  11.708  69.374  1.00  0.00     0.000 HD 
ENDROOT
BRANCH   6   8
HETATM    8  C   UNL     1      -9.893  11.512  68.149  1.00  0.00    -0.194 A  
HETATM    9  C   UNL     1      -9.638  11.418  66.774  1.00  0.00    -0.207 A  
HETATM   10  C   UNL     1     -10.546  11.890  65.807  1.00  0.00    -0.309 A  
HETATM   11  C   UNL     1     -10.183  11.804  64.348  1.00  0.00    -0.289 C  
HETATM   12  C   UNL     1     -11.732  12.471  66.266  1.00  0.00    -0.404 A  
HETATM   13  F   UNL     1      -8.926  11.321  64.135  1.00  0.00    -0.154 F  
HETATM   14  F   UNL     1     -11.003  10.995  63.633  1.00  0.00    -0.427 F  
HETATM   15  N   UNL     1     -12.703  13.022  65.332  1.00  0.00    -0.430 N  
HETATM   16  F   UNL     1     -10.207  13.023  63.745  1.00  0.00    -0.414 F  
HETATM   17  C   UNL     1     -12.013  12.581  67.636  1.00  0.00    -0.287 A  
HETATM   18  C   UNL     1     -11.087  12.105  68.573  1.00  0.00    -0.295 A  
HETATM   19  O   UNL     1     -13.181  12.253  64.495  1.00  0.00    -0.799 OA 
HETATM   20  O   UNL     1     -12.996  14.216  65.472  1.00  0.00    -0.657 OA 
ENDBRANCH   6   8
TORSDOF 1
ENDMDL
MODEL       36
REMARK 921   NORMALIZED FREE ENERGY PREDICTED BY IDOCK:   -5.62 KCAL/MOL
REMARK 922        TOTAL FREE ENERGY PREDICTED BY IDOCK:   -6.26 KCAL/MOL
REMARK 923 INTER-LIGAND FREE ENERGY PREDICTED BY IDOCK:   -6.01 KCAL/MOL
REMARK 924 INTRA-LIGAND FREE ENERGY PREDICTED BY IDOCK:   -0.25 KCAL/MOL
REMARK 927      BINDING AFFINITY PREDICTED BY RF-SCORE:    0.00 PKD
ROOT
HETATM    1  C   UNL     1     -12.138   8.661  72.471  1.00  0.00    -0.368 C  
HETATM    2  C   UNL     1     -10.928   9.088  71.634  1.00  0.00    -0.435 C  
HETATM    3  C   UNL     1     -10.114   7.857  71.242  1.00  0.00    -0.210 C  
HETATM    4  C   UNL     1     -11.410   9.855  70.404  1.00  0.00    -0.307 C  
HETATM    5  O   UNL     1     -12.608  10.003  70.184  1.00  0.00    -0.083 OA 
HETATM    6  N   UNL     1     -10.393  10.381  69.616  1.00  0.00    -0.290 N  
HETATM    7  H   UNL     1      -9.440  10.313  69.975  1.00  0.00     0.000 HD 
ENDROOT
BRANCH   6   8
HETATM    8  C   UNL     1     -10.569  11.002  68.359  1.00  0.00    -0.193 A  
HETATM    9  C   UNL     1     -11.129  12.280  68.220  1.00  0.00    -0.282 A  
HETATM   10  C   UNL     1     -11.334  12.878  66.963  1.00  0.00    -0.355 A  
HETATM   11  C   UNL     1     -11.990  14.232  66.887  1.00  0.00    -0.438 C  
HETATM   12  C   UNL     1     -10.958  12.147  65.832  1.00  0.00    -0.292 A  
HETATM   13  F   UNL     1     -12.390  14.704  68.101  1.00  0.00    -0.283 F  
HETATM   14  F   UNL     1     -11.184  15.196  66.376  1.00  0.00    -0.338 F  
HETATM   15  N   UNL     1     -11.176  12.677  64.494  1.00  0.00    -0.317 N  
HETATM   16  F   UNL     1     -13.113  14.211  66.120  1.00  0.00    -0.444 F  
HETATM   17  C   UNL     1     -10.397  10.866  65.940  1.00  0.00    -0.310 A  
HETATM   18  C   UNL     1     -10.210  10.296  67.206  1.00  0.00    -0.267 A  
HETATM   19  O   UNL     1     -10.631  13.749  64.216  1.00  0.00    -0.367 OA 
HETATM   20  O   UNL     1     -11.867  11.994  63.729  1.00  0.00    -0.429 OA 
ENDBRANCH   6   8
TORSDOF 1
ENDMDL
MODEL       37
REMARK 921   NORMALIZED FREE ENERGY PREDICTED BY IDOCK:   -5.62 KCAL/MOL
REMARK 922        TOTAL FREE ENERGY PREDICTED BY IDOCK:   -6.26 KCAL/MOL
REMARK 923 INTER-LIGAND FREE ENERGY PREDICTED BY IDOCK:   -5.94 KCAL/MOL
REMARK 924 INTRA-LIGAND FREE ENERGY PREDICTED BY IDOCK:   -0.31 KCAL/MOL
REMARK 927      BINDING AFFINITY PREDICTED BY RF-SCORE:    0.00 PKD
ROOT
HETATM    1  C   UNL     1     -11.551   7.664  72.027  1.00  0.00    -0.334 C  
HETATM    2  C   UNL     1     -12.507   8.658  71.359  1.00  0.00    -0.337 C  
HETATM    3  C   UNL     1     -13.336   9.370  72.426  1.00  0.00    -0.503 C  
HETATM    4  C   UNL     1     -11.701   9.650  70.523  1.00  0.00    -0.242 C  
HETATM    5  O   UNL     1     -10.475   9.605  70.502  1.00  0.00    -0.264 OA 
HETATM    6  N   UNL     1     -12.470  10.545  69.788  1.00  0.00    -0.547 N  
HETATM    7  H   UNL     1     -13.479  10.396  69.778  1.00  0.00     0.000 HD 
ENDROOT
BRANCH   6   8
HETATM    8  C   UNL     1     -11.969  11.645  69.055  1.00  0.00    -0.305 A  
HETATM    9  C   UNL     1     -11.603  11.548  67.705  1.00  0.00    -0.338 A  
HETATM   10  C   UNL     1     -11.073  12.639  66.991  1.00  0.00    -0.322 A  
HETATM   11  C   UNL     1     -10.652  12.449  65.557  1.00  0.00    -0.275 C  
HETATM   12  C   UNL     1     -10.915  13.846  67.679  1.00  0.00    -0.264 A  
HETATM   13  F   UNL     1     -10.775  11.160  65.127  1.00  0.00    -0.333 F  
HETATM   14  F   UNL     1     -11.372  13.189  64.678  1.00  0.00    -0.311 F  
HETATM   15  N   UNL     1     -10.334  15.008  67.024  1.00  0.00    -0.265 N  
HETATM   16  F   UNL     1      -9.345  12.769  65.364  1.00  0.00    -0.091 F  
HETATM   17  C   UNL     1     -11.271  13.971  69.030  1.00  0.00    -0.311 A  
HETATM   18  C   UNL     1     -11.792  12.865  69.715  1.00  0.00    -0.380 A  
HETATM   19  O   UNL     1     -10.909  15.437  66.021  1.00  0.00    -0.318 OA 
HETATM   20  O   UNL     1      -9.322  15.495  67.544  1.00  0.00    -0.204 OA 
ENDBRANCH   6   8
TORSDOF 1
ENDMDL
MODEL       38
REMARK 921   NORMALIZED FREE ENERGY PREDICTED BY IDOCK:   -5.62 KCAL/MOL
REMARK 922        TOTAL FREE ENERGY PREDICTED BY IDOCK:   -6.25 KCAL/MOL
REMARK 923 INTER-LIGAND FREE ENERGY PREDICTED BY IDOCK:   -6.20 KCAL/MOL
REMARK 924 INTRA-LIGAND FREE ENERGY PREDICTED BY IDOCK:   -0.05 KCAL/MOL
REMARK 927      BINDING AFFINITY PREDICTED BY RF-SCORE:    0.00 PKD
ROOT
HETATM    1  C   UNL     1     -12.894  14.316  71.081  1.00  0.00    -0.429 C  
HETATM    2  C   UNL     1     -11.647  14.189  70.200  1.00  0.00    -0.292 C  
HETATM    3  C   UNL     1     -12.006  13.472  68.901  1.00  0.00    -0.378 C  
HETATM    4  C   UNL     1     -11.073  15.579  69.933  1.00  0.00    -0.310 C  
HETATM    5  O   UNL     1     -11.634  16.584  70.359  1.00  0.00    -0.151 OA 
HETATM    6  N   UNL     1      -9.878  15.584  69.223  1.00  0.00    -0.252 N  
HETATM    7  H   UNL     1      -9.436  14.682  69.045  1.00  0.00     0.000 HD 
ENDROOT
BRANCH   6   8
HETATM    8  C   UNL     1      -9.225  16.735  68.727  1.00  0.00    -0.260 A  
HETATM    9  C   UNL     1      -9.913  17.781  68.096  1.00  0.00    -0.342 A  
HETATM   10  C   UNL     1      -9.253  18.908  67.574  1.00  0.00    -0.319 A  
HETATM   11  C   UNL     1     -10.051  19.968  66.861  1.00  0.00    -0.467 C  
HETATM   12  C   UNL     1      -7.861  18.957  67.703  1.00  0.00    -0.243 A  
HETATM   13  F   UNL     1     -11.372  19.655  66.740  1.00  0.00    -0.466 F  
HETATM   14  F   UNL     1     -10.024  21.174  67.482  1.00  0.00    -0.585 F  
HETATM   15  N   UNL     1      -7.099  20.068  67.151  1.00  0.00    -0.223 N  
HETATM   16  F   UNL     1      -9.610  20.169  65.591  1.00  0.00    -0.439 F  
HETATM   17  C   UNL     1      -7.146  17.925  68.328  1.00  0.00    -0.232 A  
HETATM   18  C   UNL     1      -7.832  16.814  68.833  1.00  0.00    -0.244 A  
HETATM   19  O   UNL     1      -7.367  21.198  67.568  1.00  0.00    -0.391 OA 
HETATM   20  O   UNL     1      -6.219  19.788  66.328  1.00  0.00    -0.178 OA 
ENDBRANCH   6   8
TORSDOF 1
ENDMDL
MODEL       39
REMARK 921   NORMALIZED FREE ENERGY PREDICTED BY IDOCK:   -5.58 KCAL/MOL
REMARK 922        TOTAL FREE ENERGY PREDICTED BY IDOCK:   -6.21 KCAL/MOL
REMARK 923 INTER-LIGAND FREE ENERGY PREDICTED BY IDOCK:   -6.24 KCAL/MOL
REMARK 924 INTRA-LIGAND FREE ENERGY PREDICTED BY IDOCK:    0.03 KCAL/MOL
REMARK 927      BINDING AFFINITY PREDICTED BY RF-SCORE:    0.00 PKD
ROOT
HETATM    1  C   UNL     1     -13.959  15.417  72.800  1.00  0.00    -0.519 C  
HETATM    2  C   UNL     1     -13.102  15.477  71.532  1.00  0.00    -0.573 C  
HETATM    3  C   UNL     1     -11.770  16.157  71.843  1.00  0.00    -0.575 C  
HETATM    4  C   UNL     1     -12.896  14.061  70.996  1.00  0.00    -0.340 C  
HETATM    5  O   UNL     1     -13.344  13.089  71.595  1.00  0.00    -0.372 OA 
HETATM    6  N   UNL     1     -12.212  13.996  69.787  1.00  0.00    -0.342 N  
HETATM    7  H   UNL     1     -12.012  14.878  69.315  1.00  0.00     0.000 HD 
ENDROOT
BRANCH   6   8
HETATM    8  C   UNL     1     -11.771  12.809  69.159  1.00  0.00    -0.322 A  
HETATM    9  C   UNL     1     -11.302  11.703  69.881  1.00  0.00    -0.230 A  
HETATM   10  C   UNL     1     -10.832  10.537  69.248  1.00  0.00    -0.284 A  
HETATM   11  C   UNL     1     -10.292   9.407  70.086  1.00  0.00    -0.233 C  
HETATM   12  C   UNL     1     -10.843  10.512  67.850  1.00  0.00    -0.282 A  
HETATM   13  F   UNL     1     -10.257   9.696  71.418  1.00  0.00    -0.361 F  
HETATM   14  F   UNL     1     -11.018   8.265  69.987  1.00  0.00    -0.244 F  
HETATM   15  N   UNL     1     -10.334   9.361  67.120  1.00  0.00    -0.251 N  
HETATM   16  F   UNL     1      -9.013   9.092  69.752  1.00  0.00    -0.132 F  
HETATM   17  C   UNL     1     -11.306  11.605  67.102  1.00  0.00    -0.373 A  
HETATM   18  C   UNL     1     -11.763  12.753  67.762  1.00  0.00    -0.412 A  
HETATM   19  O   UNL     1     -10.876   8.273  67.332  1.00  0.00    -0.219 OA 
HETATM   20  O   UNL     1      -9.415   9.570  66.318  1.00  0.00    -0.176 OA 
ENDBRANCH   6   8
TORSDOF 1
ENDMDL
MODEL       40
REMARK 921   NORMALIZED FREE ENERGY PREDICTED BY IDOCK:   -5.56 KCAL/MOL
REMARK 922        TOTAL FREE ENERGY PREDICTED BY IDOCK:   -6.19 KCAL/MOL
REMARK 923 INTER-LIGAND FREE ENERGY PREDICTED BY IDOCK:   -5.95 KCAL/MOL
REMARK 924 INTRA-LIGAND FREE ENERGY PREDICTED BY IDOCK:   -0.24 KCAL/MOL
REMARK 927      BINDING AFFINITY PREDICTED BY RF-SCORE:    0.00 PKD
ROOT
HETATM    1  C   UNL     1     -10.455  15.852  65.680  1.00  0.00    -0.411 C  
HETATM    2  C   UNL     1     -11.510  14.762  65.896  1.00  0.00    -0.319 C  
HETATM    3  C   UNL     1     -11.996  14.243  64.545  1.00  0.00    -0.478 C  
HETATM    4  C   UNL     1     -10.911  13.641  66.744  1.00  0.00    -0.292 C  
HETATM    5  O   UNL     1      -9.737  13.679  67.100  1.00  0.00    -0.232 OA 
HETATM    6  N   UNL     1     -11.808  12.638  67.090  1.00  0.00    -0.366 N  
HETATM    7  H   UNL     1     -12.790  12.786  66.855  1.00  0.00     0.000 HD 
ENDROOT
BRANCH   6   8
HETATM    8  C   UNL     1     -11.473  11.429  67.741  1.00  0.00    -0.281 A  
HETATM    9  C   UNL     1     -11.828  11.164  69.071  1.00  0.00    -0.418 A  
HETATM   10  C   UNL     1     -11.461   9.972  69.724  1.00  0.00    -0.240 A  
HETATM   11  C   UNL     1     -11.832   9.778  71.171  1.00  0.00    -0.382 C  
HETATM   12  C   UNL     1     -10.714   9.042  68.995  1.00  0.00    -0.141 A  
HETATM   13  F   UNL     1     -12.446  10.865  71.719  1.00  0.00    -0.435 F  
HETATM   14  F   UNL     1     -12.685   8.743  71.377  1.00  0.00    -0.312 F  
HETATM   15  N   UNL     1     -10.258   7.804  69.611  1.00  0.00    -0.201 N  
HETATM   16  F   UNL     1     -10.741   9.550  71.950  1.00  0.00    -0.409 F  
HETATM   17  C   UNL     1     -10.342   9.281  67.664  1.00  0.00    -0.311 A  
HETATM   18  C   UNL     1     -10.720  10.479  67.044  1.00  0.00    -0.310 A  
HETATM   19  O   UNL     1     -11.121   7.045  70.058  1.00  0.00    -0.265 OA 
HETATM   20  O   UNL     1      -9.038   7.596  69.611  1.00  0.00    -0.147 OA 
ENDBRANCH   6   8
TORSDOF 1
ENDMDL
MODEL       41
REMARK 921   NORMALIZED FREE ENERGY PREDICTED BY IDOCK:   -5.56 KCAL/MOL
REMARK 922        TOTAL FREE ENERGY PREDICTED BY IDOCK:   -6.18 KCAL/MOL
REMARK 923 INTER-LIGAND FREE ENERGY PREDICTED BY IDOCK:   -5.87 KCAL/MOL
REMARK 924 INTRA-LIGAND FREE ENERGY PREDICTED BY IDOCK:   -0.31 KCAL/MOL
REMARK 927      BINDING AFFINITY PREDICTED BY RF-SCORE:    0.00 PKD
ROOT
HETATM    1  C   UNL     1     -11.011   7.592  72.854  1.00  0.00    -0.456 C  
HETATM    2  C   UNL     1     -10.229   8.769  72.260  1.00  0.00    -0.310 C  
HETATM    3  C   UNL     1      -8.843   8.298  71.825  1.00  0.00    -0.230 C  
HETATM    4  C   UNL     1     -11.014   9.357  71.089  1.00  0.00    -0.360 C  
HETATM    5  O   UNL     1     -12.073   8.854  70.725  1.00  0.00    -0.234 OA 
HETATM    6  N   UNL     1     -10.449  10.497  70.530  1.00  0.00    -0.315 N  
HETATM    7  H   UNL     1      -9.643  10.901  71.006  1.00  0.00     0.000 HD 
ENDROOT
BRANCH   6   8
HETATM    8  C   UNL     1     -10.899  11.141  69.355  1.00  0.00    -0.216 A  
HETATM    9  C   UNL     1     -10.414  10.814  68.082  1.00  0.00    -0.214 A  
HETATM   10  C   UNL     1     -10.841  11.483  66.919  1.00  0.00    -0.331 A  
HETATM   11  C   UNL     1     -10.238  11.114  65.590  1.00  0.00    -0.256 C  
HETATM   12  C   UNL     1     -11.780  12.508  67.074  1.00  0.00    -0.367 A  
HETATM   13  F   UNL     1      -9.250  10.180  65.689  1.00  0.00    -0.173 F  
HETATM   14  F   UNL     1     -11.134  10.596  64.714  1.00  0.00    -0.209 F  
HETATM   15  N   UNL     1     -12.241  13.277  65.928  1.00  0.00    -0.437 N  
HETATM   16  F   UNL     1      -9.662  12.183  64.978  1.00  0.00    -0.251 F  
HETATM   17  C   UNL     1     -12.282  12.858  68.336  1.00  0.00     0.003 A  
HETATM   18  C   UNL     1     -11.833  12.175  69.474  1.00  0.00    -0.386 A  
HETATM   19  O   UNL     1     -12.788  12.655  65.014  1.00  0.00    -0.765 OA 
HETATM   20  O   UNL     1     -12.074  14.502  65.974  1.00  0.00    -0.364 OA 
ENDBRANCH   6   8
TORSDOF 1
ENDMDL
MODEL       42
REMARK 921   NORMALIZED FREE ENERGY PREDICTED BY IDOCK:   -5.53 KCAL/MOL
REMARK 922        TOTAL FREE ENERGY PREDICTED BY IDOCK:   -6.16 KCAL/MOL
REMARK 923 INTER-LIGAND FREE ENERGY PREDICTED BY IDOCK:   -5.85 KCAL/MOL
REMARK 924 INTRA-LIGAND FREE ENERGY PREDICTED BY IDOCK:   -0.32 KCAL/MOL
REMARK 927      BINDING AFFINITY PREDICTED BY RF-SCORE:    0.00 PKD
ROOT
HETATM    1  C   UNL     1     -10.486  15.434  65.013  1.00  0.00    -0.411 C  
HETATM    2  C   UNL     1     -11.522  14.384  65.423  1.00  0.00    -0.344 C  
HETATM    3  C   UNL     1     -11.722  13.386  64.285  1.00  0.00    -0.455 C  
HETATM    4  C   UNL     1     -11.058  13.689  66.702  1.00  0.00    -0.306 C  
HETATM    5  O   UNL     1      -9.976  13.964  67.211  1.00  0.00    -0.237 OA 
HETATM    6  N   UNL     1     -11.968  12.779  67.228  1.00  0.00    -0.343 N  
HETATM    7  H   UNL     1     -12.891  12.737  66.795  1.00  0.00     0.000 HD 
ENDROOT
BRANCH   6   8
HETATM    8  C   UNL     1     -11.720  11.908  68.313  1.00  0.00    -0.321 A  
HETATM    9  C   UNL     1     -11.134  10.645  68.148  1.00  0.00    -0.343 A  
HETATM   10  C   UNL     1     -10.921   9.768  69.228  1.00  0.00    -0.222 A  
HETATM   11  C   UNL     1     -10.335   8.406  68.970  1.00  0.00    -0.218 C  
HETATM   12  C   UNL     1     -11.323  10.199  70.497  1.00  0.00    -0.338 A  
HETATM   13  F   UNL     1     -10.137   8.148  67.646  1.00  0.00    -0.193 F  
HETATM   14  F   UNL     1      -9.125   8.217  69.554  1.00  0.00    -0.146 F  
HETATM   15  N   UNL     1     -11.177   9.335  71.659  1.00  0.00    -0.370 N  
HETATM   16  F   UNL     1     -11.146   7.409  69.414  1.00  0.00    -0.226 F  
HETATM   17  C   UNL     1     -11.914  11.456  70.691  1.00  0.00    -0.413 A  
HETATM   18  C   UNL     1     -12.115  12.304  69.595  1.00  0.00    -0.277 A  
HETATM   19  O   UNL     1     -10.038   8.954  71.940  1.00  0.00    -0.321 OA 
HETATM   20  O   UNL     1     -12.207   9.074  72.293  1.00  0.00    -0.361 OA 
ENDBRANCH   6   8
TORSDOF 1
ENDMDL
MODEL       43
REMARK 921   NORMALIZED FREE ENERGY PREDICTED BY IDOCK:   -5.52 KCAL/MOL
REMARK 922        TOTAL FREE ENERGY PREDICTED BY IDOCK:   -6.15 KCAL/MOL
REMARK 923 INTER-LIGAND FREE ENERGY PREDICTED BY IDOCK:   -5.84 KCAL/MOL
REMARK 924 INTRA-LIGAND FREE ENERGY PREDICTED BY IDOCK:   -0.31 KCAL/MOL
REMARK 927      BINDING AFFINITY PREDICTED BY RF-SCORE:    0.00 PKD
ROOT
HETATM    1  C   UNL     1     -11.764   8.985  71.833  1.00  0.00    -0.445 C  
HETATM    2  C   UNL     1     -10.688   9.391  70.820  1.00  0.00    -0.373 C  
HETATM    3  C   UNL     1     -10.338   8.196  69.936  1.00  0.00    -0.214 C  
HETATM    4  C   UNL     1     -11.193  10.571  69.993  1.00  0.00    -0.315 C  
HETATM    5  O   UNL     1     -12.325  11.016  70.156  1.00  0.00    -0.310 OA 
HETATM    6  N   UNL     1     -10.262  11.093  69.103  1.00  0.00    -0.367 N  
HETATM    7  H   UNL     1      -9.309  10.730  69.156  1.00  0.00     0.000 HD 
ENDROOT
BRANCH   6   8
HETATM    8  C   UNL     1     -10.525  12.084  68.130  1.00  0.00    -0.202 A  
HETATM    9  C   UNL     1     -10.301  13.448  68.362  1.00  0.00    -0.253 A  
HETATM   10  C   UNL     1     -10.597  14.432  67.401  1.00  0.00    -0.270 A  
HETATM   11  C   UNL     1     -10.380  15.884  67.738  1.00  0.00    -0.278 C  
HETATM   12  C   UNL     1     -11.136  14.004  66.183  1.00  0.00    -0.302 A  
HETATM   13  F   UNL     1      -9.970  16.081  69.024  1.00  0.00    -0.199 F  
HETATM   14  F   UNL     1      -9.440  16.484  66.967  1.00  0.00    -0.224 F  
HETATM   15  N   UNL     1     -11.510  14.962  65.154  1.00  0.00    -0.361 N  
HETATM   16  F   UNL     1     -11.521  16.613  67.609  1.00  0.00    -0.162 F  
HETATM   17  C   UNL     1     -11.373  12.645  65.924  1.00  0.00    -0.373 A  
HETATM   18  C   UNL     1     -11.070  11.690  66.903  1.00  0.00    -0.365 A  
HETATM   19  O   UNL     1     -10.621  15.698  64.719  1.00  0.00    -0.448 OA 
HETATM   20  O   UNL     1     -12.687  14.942  64.774  1.00  0.00    -0.376 OA 
ENDBRANCH   6   8
TORSDOF 1
ENDMDL
MODEL       44
REMARK 921   NORMALIZED FREE ENERGY PREDICTED BY IDOCK:   -5.51 KCAL/MOL
REMARK 922        TOTAL FREE ENERGY PREDICTED BY IDOCK:   -6.14 KCAL/MOL
REMARK 923 INTER-LIGAND FREE ENERGY PREDICTED BY IDOCK:   -6.22 KCAL/MOL
REMARK 924 INTRA-LIGAND FREE ENERGY PREDICTED BY IDOCK:    0.08 KCAL/MOL
REMARK 927      BINDING AFFINITY PREDICTED BY RF-SCORE:    0.00 PKD
ROOT
HETATM    1  C   UNL     1     -13.218  12.599  72.041  1.00  0.00    -0.531 C  
HETATM    2  C   UNL     1     -12.540  11.433  71.315  1.00  0.00    -0.480 C  
HETATM    3  C   UNL     1     -13.499  10.247  71.240  1.00  0.00    -0.267 C  
HETATM    4  C   UNL     1     -12.104  11.889  69.924  1.00  0.00    -0.272 C  
HETATM    5  O   UNL     1     -12.356  13.022  69.525  1.00  0.00    -0.178 OA 
HETATM    6  N   UNL     1     -11.386  10.942  69.205  1.00  0.00    -0.258 N  
HETATM    7  H   UNL     1     -11.117  10.087  69.694  1.00  0.00     0.000 HD 
ENDROOT
BRANCH   6   8
HETATM    8  C   UNL     1     -10.997  11.064  67.851  1.00  0.00    -0.264 A  
HETATM    9  C   UNL     1     -11.747  11.785  66.913  1.00  0.00    -0.221 A  
HETATM   10  C   UNL     1     -11.372  11.874  65.559  1.00  0.00    -0.334 A  
HETATM   11  C   UNL     1     -12.254  12.623  64.595  1.00  0.00    -0.452 C  
HETATM   12  C   UNL     1     -10.208  11.205  65.167  1.00  0.00    -0.289 A  
HETATM   13  F   UNL     1     -13.402  13.086  65.166  1.00  0.00    -0.376 F  
HETATM   14  F   UNL     1     -11.659  13.715  64.053  1.00  0.00    -0.393 F  
HETATM   15  N   UNL     1      -9.776  11.212  63.777  1.00  0.00    -0.272 N  
HETATM   16  F   UNL     1     -12.658  11.839  63.560  1.00  0.00    -0.603 F  
HETATM   17  C   UNL     1      -9.439  10.474  66.084  1.00  0.00    -0.222 A  
HETATM   18  C   UNL     1      -9.841  10.402  67.424  1.00  0.00    -0.210 A  
HETATM   19  O   UNL     1      -9.545  12.309  63.263  1.00  0.00    -0.295 OA 
HETATM   20  O   UNL     1      -9.643  10.111  63.229  1.00  0.00    -0.301 OA 
ENDBRANCH   6   8
TORSDOF 1
ENDMDL
MODEL       45
REMARK 921   NORMALIZED FREE ENERGY PREDICTED BY IDOCK:   -5.49 KCAL/MOL
REMARK 922        TOTAL FREE ENERGY PREDICTED BY IDOCK:   -6.11 KCAL/MOL
REMARK 923 INTER-LIGAND FREE ENERGY PREDICTED BY IDOCK:   -5.87 KCAL/MOL
REMARK 924 INTRA-LIGAND FREE ENERGY PREDICTED BY IDOCK:   -0.24 KCAL/MOL
REMARK 927      BINDING AFFINITY PREDICTED BY RF-SCORE:    0.00 PKD
ROOT
HETATM    1  C   UNL     1     -12.562  13.947  71.163  1.00  0.00    -0.446 C  
HETATM    2  C   UNL     1     -12.305  15.452  71.031  1.00  0.00    -0.449 C  
HETATM    3  C   UNL     1     -11.741  15.995  72.341  1.00  0.00    -0.573 C  
HETATM    4  C   UNL     1     -11.351  15.700  69.864  1.00  0.00    -0.337 C  
HETATM    5  O   UNL     1     -10.875  14.764  69.229  1.00  0.00    -0.250 OA 
HETATM    6  N   UNL     1     -11.121  17.042  69.582  1.00  0.00    -0.273 N  
HETATM    7  H   UNL     1     -11.681  17.729  70.088  1.00  0.00     0.000 HD 
ENDROOT
BRANCH   6   8
HETATM    8  C   UNL     1     -10.174  17.533  68.654  1.00  0.00    -0.373 A  
HETATM    9  C   UNL     1      -8.795  17.334  68.806  1.00  0.00    -0.233 A  
HETATM   10  C   UNL     1      -7.856  17.855  67.896  1.00  0.00    -0.230 A  
HETATM   11  C   UNL     1      -6.387  17.647  68.150  1.00  0.00    -0.172 C  
HETATM   12  C   UNL     1      -8.347  18.595  66.815  1.00  0.00    -0.281 A  
HETATM   13  F   UNL     1      -6.130  17.010  69.328  1.00  0.00    -0.165 F  
HETATM   14  F   UNL     1      -5.772  16.901  67.199  1.00  0.00    -0.131 F  
HETATM   15  N   UNL     1      -7.440  19.203  65.854  1.00  0.00    -0.268 N  
HETATM   16  F   UNL     1      -5.711  18.825  68.224  1.00  0.00    -0.181 F  
HETATM   17  C   UNL     1      -9.722  18.811  66.639  1.00  0.00    -0.370 A  
HETATM   18  C   UNL     1     -10.631  18.282  67.565  1.00  0.00    -0.432 A  
HETATM   19  O   UNL     1      -6.682  18.450  65.238  1.00  0.00    -0.490 OA 
HETATM   20  O   UNL     1      -7.522  20.429  65.707  1.00  0.00    -0.218 OA 
ENDBRANCH   6   8
TORSDOF 1
ENDMDL
MODEL       46
REMARK 921   NORMALIZED FREE ENERGY PREDICTED BY IDOCK:   -5.47 KCAL/MOL
REMARK 922        TOTAL FREE ENERGY PREDICTED BY IDOCK:   -6.10 KCAL/MOL
REMARK 923 INTER-LIGAND FREE ENERGY PREDICTED BY IDOCK:   -5.78 KCAL/MOL
REMARK 924 INTRA-LIGAND FREE ENERGY PREDICTED BY IDOCK:   -0.31 KCAL/MOL
REMARK 927      BINDING AFFINITY PREDICTED BY RF-SCORE:    0.00 PKD
ROOT
HETATM    1  C   UNL     1     -11.335   4.694  73.170  1.00  0.00    -0.355 C  
HETATM    2  C   UNL     1     -10.756   6.102  73.346  1.00  0.00    -0.280 C  
HETATM    3  C   UNL     1      -9.231   6.038  73.312  1.00  0.00    -0.132 C  
HETATM    4  C   UNL     1     -11.303   7.014  72.250  1.00  0.00    -0.268 C  
HETATM    5  O   UNL     1     -12.043   6.573  71.376  1.00  0.00    -0.337 OA 
HETATM    6  N   UNL     1     -10.923   8.346  72.364  1.00  0.00    -0.360 N  
HETATM    7  H   UNL     1     -10.422   8.618  73.210  1.00  0.00     0.000 HD 
ENDROOT
BRANCH   6   8
HETATM    8  C   UNL     1     -11.175   9.354  71.406  1.00  0.00    -0.381 A  
HETATM    9  C   UNL     1     -10.296   9.627  70.349  1.00  0.00    -0.350 A  
HETATM   10  C   UNL     1     -10.536  10.655  69.418  1.00  0.00    -0.270 A  
HETATM   11  C   UNL     1      -9.522  10.927  68.339  1.00  0.00    -0.178 C  
HETATM   12  C   UNL     1     -11.699  11.415  69.582  1.00  0.00    -0.345 A  
HETATM   13  F   UNL     1      -8.405  10.152  68.444  1.00  0.00    -0.104 F  
HETATM   14  F   UNL     1      -9.992  10.708  67.086  1.00  0.00    -0.198 F  
HETATM   15  N   UNL     1     -11.998  12.524  68.688  1.00  0.00    -0.284 N  
HETATM   16  F   UNL     1      -9.074  12.211  68.373  1.00  0.00    -0.180 F  
HETATM   17  C   UNL     1     -12.596  11.165  70.632  1.00  0.00    -0.408 A  
HETATM   18  C   UNL     1     -12.326  10.137  71.544  1.00  0.00    -0.505 A  
HETATM   19  O   UNL     1     -12.109  12.266  67.487  1.00  0.00    -0.514 OA 
HETATM   20  O   UNL     1     -12.149  13.636  69.209  1.00  0.00    -0.334 OA 
ENDBRANCH   6   8
TORSDOF 1
ENDMDL
MODEL       47
REMARK 921   NORMALIZED FREE ENERGY PREDICTED BY IDOCK:   -5.46 KCAL/MOL
REMARK 922        TOTAL FREE ENERGY PREDICTED BY IDOCK:   -6.09 KCAL/MOL
REMARK 923 INTER-LIGAND FREE ENERGY PREDICTED BY IDOCK:   -5.77 KCAL/MOL
REMARK 924 INTRA-LIGAND FREE ENERGY PREDICTED BY IDOCK:   -0.31 KCAL/MOL
REMARK 927      BINDING AFFINITY PREDICTED BY RF-SCORE:    0.00 PKD
ROOT
HETATM    1  C   UNL     1     -10.650  10.257  66.944  1.00  0.00    -0.282 C  
HETATM    2  C   UNL     1      -9.984  11.218  65.955  1.00  0.00    -0.277 C  
HETATM    3  C   UNL     1     -10.652  11.094  64.587  1.00  0.00    -0.386 C  
HETATM    4  C   UNL     1     -10.077  12.644  66.496  1.00  0.00    -0.248 C  
HETATM    5  O   UNL     1     -10.666  12.881  67.545  1.00  0.00    -0.223 OA 
HETATM    6  N   UNL     1      -9.417  13.597  65.728  1.00  0.00    -0.506 N  
HETATM    7  H   UNL     1      -8.845  13.259  64.953  1.00  0.00     0.000 HD 
ENDROOT
BRANCH   6   8
HETATM    8  C   UNL     1      -9.474  14.994  65.932  1.00  0.00    -0.278 A  
HETATM    9  C   UNL     1      -8.521  15.685  66.693  1.00  0.00    -0.323 A  
HETATM   10  C   UNL     1      -8.603  17.072  66.921  1.00  0.00    -0.250 A  
HETATM   11  C   UNL     1      -7.572  17.740  67.792  1.00  0.00    -0.212 C  
HETATM   12  C   UNL     1      -9.685  17.755  66.358  1.00  0.00    -0.308 A  
HETATM   13  F   UNL     1      -6.682  16.863  68.340  1.00  0.00    -0.146 F  
HETATM   14  F   UNL     1      -6.815  18.652  67.133  1.00  0.00    -0.192 F  
HETATM   15  N   UNL     1      -9.866  19.182  66.582  1.00  0.00    -0.331 N  
HETATM   16  F   UNL     1      -8.138  18.385  68.847  1.00  0.00    -0.313 F  
HETATM   17  C   UNL     1     -10.655  17.089  65.594  1.00  0.00    -0.206 A  
HETATM   18  C   UNL     1     -10.548  15.708  65.389  1.00  0.00    -0.436 A  
HETATM   19  O   UNL     1      -8.957  19.930  66.213  1.00  0.00    -0.364 OA 
HETATM   20  O   UNL     1     -10.933  19.535  67.100  1.00  0.00    -0.492 OA 
ENDBRANCH   6   8
TORSDOF 1
ENDMDL
MODEL       48
REMARK 921   NORMALIZED FREE ENERGY PREDICTED BY IDOCK:   -5.46 KCAL/MOL
REMARK 922        TOTAL FREE ENERGY PREDICTED BY IDOCK:   -6.08 KCAL/MOL
REMARK 923 INTER-LIGAND FREE ENERGY PREDICTED BY IDOCK:   -5.82 KCAL/MOL
REMARK 924 INTRA-LIGAND FREE ENERGY PREDICTED BY IDOCK:   -0.26 KCAL/MOL
REMARK 927      BINDING AFFINITY PREDICTED BY RF-SCORE:    0.00 PKD
ROOT
HETATM    1  C   UNL     1      -7.741  20.500  66.866  1.00  0.00    -0.323 C  
HETATM    2  C   UNL     1      -8.857  19.592  67.392  1.00  0.00    -0.363 C  
HETATM    3  C   UNL     1     -10.205  20.292  67.241  1.00  0.00    -0.495 C  
HETATM    4  C   UNL     1      -8.827  18.265  66.635  1.00  0.00    -0.284 C  
HETATM    5  O   UNL     1      -8.027  18.078  65.724  1.00  0.00    -0.532 OA 
HETATM    6  N   UNL     1      -9.735  17.318  67.094  1.00  0.00    -0.252 N  
HETATM    7  H   UNL     1     -10.250  17.538  67.947  1.00  0.00     0.000 HD 
ENDROOT
BRANCH   6   8
HETATM    8  C   UNL     1     -10.004  16.075  66.477  1.00  0.00    -0.279 A  
HETATM    9  C   UNL     1      -9.558  14.857  67.007  1.00  0.00    -0.245 A  
HETATM   10  C   UNL     1      -9.799  13.626  66.369  1.00  0.00    -0.302 A  
HETATM   11  C   UNL     1      -9.244  12.361  66.968  1.00  0.00    -0.208 C  
HETATM   12  C   UNL     1     -10.509  13.653  65.164  1.00  0.00    -0.374 A  
HETATM   13  F   UNL     1      -8.477  12.582  68.073  1.00  0.00    -0.139 F  
HETATM   14  F   UNL     1     -10.201  11.486  67.367  1.00  0.00    -0.204 F  
HETATM   15  N   UNL     1     -10.763  12.427  64.420  1.00  0.00    -0.315 N  
HETATM   16  F   UNL     1      -8.440  11.695  66.098  1.00  0.00    -0.176 F  
HETATM   17  C   UNL     1     -10.966  14.857  64.609  1.00  0.00    -0.323 A  
HETATM   18  C   UNL     1     -10.706  16.066  65.267  1.00  0.00    -0.417 A  
HETATM   19  O   UNL     1     -11.399  11.540  64.994  1.00  0.00    -0.215 OA 
HETATM   20  O   UNL     1     -10.346  12.385  63.256  1.00  0.00    -0.376 OA 
ENDBRANCH   6   8
TORSDOF 1
ENDMDL
MODEL       49
REMARK 921   NORMALIZED FREE ENERGY PREDICTED BY IDOCK:   -5.41 KCAL/MOL
REMARK 922        TOTAL FREE ENERGY PREDICTED BY IDOCK:   -6.03 KCAL/MOL
REMARK 923 INTER-LIGAND FREE ENERGY PREDICTED BY IDOCK:   -5.81 KCAL/MOL
REMARK 924 INTRA-LIGAND FREE ENERGY PREDICTED BY IDOCK:   -0.23 KCAL/MOL
REMARK 927      BINDING AFFINITY PREDICTED BY RF-SCORE:    0.00 PKD
ROOT
HETATM    1  C   UNL     1      -8.838  19.520  68.643  1.00  0.00    -0.386 C  
HETATM    2  C   UNL     1     -10.117  18.734  68.337  1.00  0.00    -0.443 C  
HETATM    3  C   UNL     1     -10.718  19.222  67.021  1.00  0.00    -0.565 C  
HETATM    4  C   UNL     1      -9.792  17.242  68.285  1.00  0.00    -0.304 C  
HETATM    5  O   UNL     1      -8.640  16.844  68.425  1.00  0.00    -0.222 OA 
HETATM    6  N   UNL     1     -10.896  16.416  68.111  1.00  0.00    -0.337 N  
HETATM    7  H   UNL     1     -11.818  16.854  68.147  1.00  0.00     0.000 HD 
ENDROOT
BRANCH   6   8
HETATM    8  C   UNL     1     -10.849  15.022  67.887  1.00  0.00    -0.280 A  
HETATM    9  C   UNL     1     -11.292  14.090  68.835  1.00  0.00    -0.314 A  
HETATM   10  C   UNL     1     -11.210  12.701  68.620  1.00  0.00    -0.323 A  
HETATM   11  C   UNL     1     -11.657  11.757  69.705  1.00  0.00    -0.323 C  
HETATM   12  C   UNL     1     -10.658  12.268  67.410  1.00  0.00    -0.222 A  
HETATM   13  F   UNL     1     -12.039  12.395  70.848  1.00  0.00    -0.444 F  
HETATM   14  F   UNL     1     -12.718  10.990  69.351  1.00  0.00    -0.319 F  
HETATM   15  N   UNL     1     -10.498  10.849  67.129  1.00  0.00    -0.224 N  
HETATM   16  F   UNL     1     -10.664  10.907  70.081  1.00  0.00    -0.279 F  
HETATM   17  C   UNL     1     -10.205  13.178  66.444  1.00  0.00    -0.286 A  
HETATM   18  C   UNL     1     -10.297  14.553  66.690  1.00  0.00    -0.274 A  
HETATM   19  O   UNL     1     -11.518  10.154  67.131  1.00  0.00    -0.103 OA 
HETATM   20  O   UNL     1      -9.352  10.455  66.878  1.00  0.00    -0.159 OA 
ENDBRANCH   6   8
TORSDOF 1
ENDMDL
MODEL       50
REMARK 921   NORMALIZED FREE ENERGY PREDICTED BY IDOCK:   -5.40 KCAL/MOL
REMARK 922        TOTAL FREE ENERGY PREDICTED BY IDOCK:   -6.02 KCAL/MOL
REMARK 923 INTER-LIGAND FREE ENERGY PREDICTED BY IDOCK:   -5.74 KCAL/MOL
REMARK 924 INTRA-LIGAND FREE ENERGY PREDICTED BY IDOCK:   -0.28 KCAL/MOL
REMARK 927      BINDING AFFINITY PREDICTED BY RF-SCORE:    0.00 PKD
ROOT
HETATM    1  C   UNL     1     -10.075   6.084  67.250  1.00  0.00    -0.205 C  
HETATM    2  C   UNL     1     -10.567   7.214  68.161  1.00  0.00    -0.241 C  
HETATM    3  C   UNL     1      -9.786   7.195  69.472  1.00  0.00    -0.162 C  
HETATM    4  C   UNL     1     -10.413   8.550  67.436  1.00  0.00    -0.280 C  
HETATM    5  O   UNL     1      -9.907   8.605  66.319  1.00  0.00    -0.267 OA 
HETATM    6  N   UNL     1     -10.920   9.643  68.128  1.00  0.00    -0.469 N  
HETATM    7  H   UNL     1     -11.442   9.455  68.984  1.00  0.00     0.000 HD 
ENDROOT
BRANCH   6   8
HETATM    8  C   UNL     1     -10.772  10.995  67.743  1.00  0.00    -0.227 A  
HETATM    9  C   UNL     1     -11.529  11.575  66.715  1.00  0.00    -0.233 A  
HETATM   10  C   UNL     1     -11.353  12.912  66.314  1.00  0.00    -0.364 A  
HETATM   11  C   UNL     1     -12.164  13.453  65.166  1.00  0.00    -0.434 C  
HETATM   12  C   UNL     1     -10.379  13.662  66.981  1.00  0.00    -0.260 A  
HETATM   13  F   UNL     1     -12.959  12.513  64.581  1.00  0.00    -0.535 F  
HETATM   14  F   UNL     1     -13.002  14.458  65.522  1.00  0.00    -0.477 F  
HETATM   15  N   UNL     1     -10.105  15.039  66.597  1.00  0.00    -0.255 N  
HETATM   16  F   UNL     1     -11.376  13.932  64.167  1.00  0.00    -0.377 F  
HETATM   17  C   UNL     1      -9.605  13.108  68.012  1.00  0.00    -0.220 A  
HETATM   18  C   UNL     1      -9.802  11.773  68.385  1.00  0.00    -0.199 A  
HETATM   19  O   UNL     1     -11.040  15.841  66.665  1.00  0.00    -0.241 OA 
HETATM   20  O   UNL     1      -8.944  15.305  66.261  1.00  0.00    -0.299 OA 
ENDBRANCH   6   8
TORSDOF 1
ENDMDL
MODEL       51
REMARK 921   NORMALIZED FREE ENERGY PREDICTED BY IDOCK:   -5.34 KCAL/MOL
REMARK 922        TOTAL FREE ENERGY PREDICTED BY IDOCK:   -5.96 KCAL/MOL
REMARK 923 INTER-LIGAND FREE ENERGY PREDICTED BY IDOCK:   -5.65 KCAL/MOL
REMARK 924 INTRA-LIGAND FREE ENERGY PREDICTED BY IDOCK:   -0.31 KCAL/MOL
REMARK 927      BINDING AFFINITY PREDICTED BY RF-SCORE:    0.00 PKD
ROOT
HETATM    1  C   UNL     1     -10.018   7.717  67.930  1.00  0.00    -0.212 C  
HETATM    2  C   UNL     1      -9.241   8.649  66.994  1.00  0.00    -0.186 C  
HETATM    3  C   UNL     1      -9.029   7.965  65.646  1.00  0.00    -0.077 C  
HETATM    4  C   UNL     1     -10.005   9.963  66.842  1.00  0.00    -0.212 C  
HETATM    5  O   UNL     1     -11.095  10.124  67.383  1.00  0.00    -0.283 OA 
HETATM    6  N   UNL     1      -9.347  10.930  66.091  1.00  0.00    -0.180 N  
HETATM    7  H   UNL     1      -8.387  10.731  65.810  1.00  0.00     0.000 HD 
ENDROOT
BRANCH   6   8
HETATM    8  C   UNL     1      -9.898  12.167  65.685  1.00  0.00    -0.237 A  
HETATM    9  C   UNL     1      -9.794  13.331  66.458  1.00  0.00    -0.281 A  
HETATM   10  C   UNL     1     -10.375  14.550  66.064  1.00  0.00    -0.320 A  
HETATM   11  C   UNL     1     -10.267  15.748  66.971  1.00  0.00    -0.280 C  
HETATM   12  C   UNL     1     -11.077  14.569  64.855  1.00  0.00    -0.394 A  
HETATM   13  F   UNL     1      -9.651  15.471  68.155  1.00  0.00    -0.195 F  
HETATM   14  F   UNL     1      -9.562  16.774  66.432  1.00  0.00    -0.239 F  
HETATM   15  N   UNL     1     -11.743  15.779  64.398  1.00  0.00    -0.310 N  
HETATM   16  F   UNL     1     -11.488  16.243  67.308  1.00  0.00    -0.117 F  
HETATM   17  C   UNL     1     -11.200  13.419  64.061  1.00  0.00    -0.318 A  
HETATM   18  C   UNL     1     -10.613  12.219  64.484  1.00  0.00    -0.346 A  
HETATM   19  O   UNL     1     -11.041  16.779  64.224  1.00  0.00    -1.106 OA 
HETATM   20  O   UNL     1     -12.961  15.702  64.189  1.00  0.00    -0.356 OA 
ENDBRANCH   6   8
TORSDOF 1
ENDMDL
MODEL       52
REMARK 921   NORMALIZED FREE ENERGY PREDICTED BY IDOCK:   -5.34 KCAL/MOL
REMARK 922        TOTAL FREE ENERGY PREDICTED BY IDOCK:   -5.95 KCAL/MOL
REMARK 923 INTER-LIGAND FREE ENERGY PREDICTED BY IDOCK:   -5.65 KCAL/MOL
REMARK 924 INTRA-LIGAND FREE ENERGY PREDICTED BY IDOCK:   -0.31 KCAL/MOL
REMARK 927      BINDING AFFINITY PREDICTED BY RF-SCORE:    0.00 PKD
ROOT
HETATM    1  C   UNL     1      -5.830   8.182  62.848  1.00  0.00    -0.073 C  
HETATM    2  C   UNL     1      -7.358   8.144  62.958  1.00  0.00    -0.102 C  
HETATM    3  C   UNL     1      -7.780   6.989  63.862  1.00  0.00    -0.119 C  
HETATM    4  C   UNL     1      -7.859   9.485  63.490  1.00  0.00    -0.134 C  
HETATM    5  O   UNL     1      -7.071  10.372  63.806  1.00  0.00    -0.092 OA 
HETATM    6  N   UNL     1      -9.243   9.606  63.540  1.00  0.00    -0.400 N  
HETATM    7  H   UNL     1      -9.793   8.856  63.120  1.00  0.00     0.000 HD 
ENDROOT
BRANCH   6   8
HETATM    8  C   UNL     1      -9.950  10.682  64.123  1.00  0.00    -0.342 A  
HETATM    9  C   UNL     1     -10.077  10.838  65.510  1.00  0.00    -0.335 A  
HETATM   10  C   UNL     1     -10.812  11.892  66.084  1.00  0.00    -0.334 A  
HETATM   11  C   UNL     1     -10.950  11.968  67.582  1.00  0.00    -0.238 C  
HETATM   12  C   UNL     1     -11.427  12.797  65.214  1.00  0.00    -0.325 A  
HETATM   13  F   UNL     1     -10.377  10.912  68.228  1.00  0.00    -0.164 F  
HETATM   14  F   UNL     1     -10.377  13.072  68.124  1.00  0.00    -0.213 F  
HETATM   15  N   UNL     1     -12.241  13.890  65.727  1.00  0.00    -0.432 N  
HETATM   16  F   UNL     1     -12.252  11.967  67.974  1.00  0.00    -0.354 F  
HETATM   17  C   UNL     1     -11.319  12.665  63.822  1.00  0.00    -0.529 A  
HETATM   18  C   UNL     1     -10.584  11.602  63.282  1.00  0.00    -0.420 A  
HETATM   19  O   UNL     1     -11.691  14.697  66.481  1.00  0.00    -0.369 OA 
HETATM   20  O   UNL     1     -13.415  13.941  65.340  1.00  0.00    -0.672 OA 
ENDBRANCH   6   8
TORSDOF 1
ENDMDL
MODEL       53
REMARK 921   NORMALIZED FREE ENERGY PREDICTED BY IDOCK:   -5.33 KCAL/MOL
REMARK 922        TOTAL FREE ENERGY PREDICTED BY IDOCK:   -5.95 KCAL/MOL
REMARK 923 INTER-LIGAND FREE ENERGY PREDICTED BY IDOCK:   -5.93 KCAL/MOL
REMARK 924 INTRA-LIGAND FREE ENERGY PREDICTED BY IDOCK:   -0.02 KCAL/MOL
REMARK 927      BINDING AFFINITY PREDICTED BY RF-SCORE:    0.00 PKD
ROOT
HETATM    1  C   UNL     1     -14.026  13.442  72.261  1.00  0.00    -0.605 C  
HETATM    2  C   UNL     1     -13.357  14.818  72.186  1.00  0.00    -0.471 C  
HETATM    3  C   UNL     1     -12.615  15.101  73.491  1.00  0.00    -0.682 C  
HETATM    4  C   UNL     1     -12.413  14.857  70.986  1.00  0.00    -0.330 C  
HETATM    5  O   UNL     1     -12.245  13.864  70.285  1.00  0.00    -0.318 OA 
HETATM    6  N   UNL     1     -11.820  16.093  70.757  1.00  0.00    -0.522 N  
HETATM    7  H   UNL     1     -12.144  16.879  71.322  1.00  0.00     0.000 HD 
ENDROOT
BRANCH   6   8
HETATM    8  C   UNL     1     -10.807  16.351  69.807  1.00  0.00    -0.343 A  
HETATM    9  C   UNL     1     -10.872  17.422  68.905  1.00  0.00    -0.009 A  
HETATM   10  C   UNL     1      -9.876  17.653  67.938  1.00  0.00    -0.300 A  
HETATM   11  C   UNL     1     -10.038  18.793  66.967  1.00  0.00    -0.358 C  
HETATM   12  C   UNL     1      -8.797  16.764  67.899  1.00  0.00    -0.218 A  
HETATM   13  F   UNL     1     -11.225  19.450  67.104  1.00  0.00    -0.558 F  
HETATM   14  F   UNL     1      -9.084  19.749  67.089  1.00  0.00    -0.329 F  
HETATM   15  N   UNL     1      -7.747  16.909  66.901  1.00  0.00    -0.194 N  
HETATM   16  F   UNL     1     -10.008  18.369  65.675  1.00  0.00    -0.210 F  
HETATM   17  C   UNL     1      -8.706  15.683  68.788  1.00  0.00    -0.197 A  
HETATM   18  C   UNL     1      -9.716  15.478  69.736  1.00  0.00    -0.247 A  
HETATM   19  O   UNL     1      -7.118  17.970  66.894  1.00  0.00    -0.178 OA 
HETATM   20  O   UNL     1      -7.547  15.940  66.157  1.00  0.00     0.144 OA 
ENDBRANCH   6   8
TORSDOF 1
ENDMDL
MODEL       54
REMARK 921   NORMALIZED FREE ENERGY PREDICTED BY IDOCK:   -5.32 KCAL/MOL
REMARK 922        TOTAL FREE ENERGY PREDICTED BY IDOCK:   -5.93 KCAL/MOL
REMARK 923 INTER-LIGAND FREE ENERGY PREDICTED BY IDOCK:   -5.65 KCAL/MOL
REMARK 924 INTRA-LIGAND FREE ENERGY PREDICTED BY IDOCK:   -0.28 KCAL/MOL
REMARK 927      BINDING AFFINITY PREDICTED BY RF-SCORE:    0.00 PKD
ROOT
HETATM    1  C   UNL     1      -9.599   5.536  67.490  1.00  0.00    -0.131 C  
HETATM    2  C   UNL     1      -8.769   6.643  66.831  1.00  0.00    -0.116 C  
HETATM    3  C   UNL     1      -8.173   6.128  65.523  1.00  0.00    -0.144 C  
HETATM    4  C   UNL     1      -9.653   7.867  66.600  1.00  0.00    -0.226 C  
HETATM    5  O   UNL     1     -10.846   7.845  66.884  1.00  0.00    -0.288 OA 
HETATM    6  N   UNL     1      -8.983   8.975  66.095  1.00  0.00    -0.165 N  
HETATM    7  H   UNL     1      -7.966   8.919  66.030  1.00  0.00     0.000 HD 
ENDROOT
BRANCH   6   8
HETATM    8  C   UNL     1      -9.595  10.174  65.662  1.00  0.00    -0.243 A  
HETATM    9  C   UNL     1     -10.038  11.160  66.554  1.00  0.00    -0.265 A  
HETATM   10  C   UNL     1     -10.677  12.336  66.119  1.00  0.00    -0.296 A  
HETATM   11  C   UNL     1     -11.175  13.328  67.136  1.00  0.00    -0.299 C  
HETATM   12  C   UNL     1     -10.864  12.495  64.742  1.00  0.00    -0.298 A  
HETATM   13  F   UNL     1     -11.001  12.910  68.423  1.00  0.00    -0.232 F  
HETATM   14  F   UNL     1     -10.557  14.533  67.065  1.00  0.00    -0.268 F  
HETATM   15  N   UNL     1     -11.555  13.662  64.213  1.00  0.00    -0.389 N  
HETATM   16  F   UNL     1     -12.509  13.560  67.011  1.00  0.00    -0.375 F  
HETATM   17  C   UNL     1     -10.433  11.525  63.826  1.00  0.00    -0.459 A  
HETATM   18  C   UNL     1      -9.804  10.363  64.292  1.00  0.00    -0.388 A  
HETATM   19  O   UNL     1     -11.071  14.768  64.467  1.00  0.00    -0.336 OA 
HETATM   20  O   UNL     1     -12.560  13.451  63.522  1.00  0.00    -0.733 OA 
ENDBRANCH   6   8
TORSDOF 1
ENDMDL
MODEL       55
REMARK 921   NORMALIZED FREE ENERGY PREDICTED BY IDOCK:   -5.30 KCAL/MOL
REMARK 922        TOTAL FREE ENERGY PREDICTED BY IDOCK:   -5.91 KCAL/MOL
REMARK 923 INTER-LIGAND FREE ENERGY PREDICTED BY IDOCK:   -5.62 KCAL/MOL
REMARK 924 INTRA-LIGAND FREE ENERGY PREDICTED BY IDOCK:   -0.29 KCAL/MOL
REMARK 927      BINDING AFFINITY PREDICTED BY RF-SCORE:    0.00 PKD
ROOT
HETATM    1  C   UNL     1     -12.215  12.298  70.134  1.00  0.00    -0.302 C  
HETATM    2  C   UNL     1     -11.175  12.652  69.067  1.00  0.00    -0.322 C  
HETATM    3  C   UNL     1     -11.649  12.157  67.703  1.00  0.00    -0.413 C  
HETATM    4  C   UNL     1     -10.945  14.162  69.066  1.00  0.00    -0.261 C  
HETATM    5  O   UNL     1     -11.589  14.897  69.809  1.00  0.00    -0.268 OA 
HETATM    6  N   UNL     1      -9.945  14.594  68.203  1.00  0.00    -0.219 N  
HETATM    7  H   UNL     1      -9.385  13.877  67.740  1.00  0.00     0.000 HD 
ENDROOT
BRANCH   6   8
HETATM    8  C   UNL     1      -9.641  15.943  67.912  1.00  0.00    -0.215 A  
HETATM    9  C   UNL     1      -8.541  16.607  68.472  1.00  0.00    -0.234 A  
HETATM   10  C   UNL     1      -8.264  17.960  68.205  1.00  0.00    -0.292 A  
HETATM   11  C   UNL     1      -7.095  18.623  68.884  1.00  0.00    -0.293 C  
HETATM   12  C   UNL     1      -9.136  18.641  67.349  1.00  0.00    -0.279 A  
HETATM   13  F   UNL     1      -6.458  17.810  69.775  1.00  0.00    -0.248 F  
HETATM   14  F   UNL     1      -6.130  19.034  68.023  1.00  0.00    -0.205 F  
HETATM   15  N   UNL     1      -8.944  20.053  67.057  1.00  0.00    -0.335 N  
HETATM   16  F   UNL     1      -7.474  19.715  69.601  1.00  0.00    -0.362 F  
HETATM   17  C   UNL     1     -10.246  18.003  66.775  1.00  0.00    -0.367 A  
HETATM   18  C   UNL     1     -10.497  16.655  67.065  1.00  0.00    -0.283 A  
HETATM   19  O   UNL     1      -7.874  20.381  66.536  1.00  0.00    -0.252 OA 
HETATM   20  O   UNL     1      -9.883  20.812  67.326  1.00  0.00    -0.474 OA 
ENDBRANCH   6   8
TORSDOF 1
ENDMDL
MODEL       56
REMARK 921   NORMALIZED FREE ENERGY PREDICTED BY IDOCK:   -5.29 KCAL/MOL
REMARK 922        TOTAL FREE ENERGY PREDICTED BY IDOCK:   -5.91 KCAL/MOL
REMARK 923 INTER-LIGAND FREE ENERGY PREDICTED BY IDOCK:   -5.61 KCAL/MOL
REMARK 924 INTRA-LIGAND FREE ENERGY PREDICTED BY IDOCK:   -0.30 KCAL/MOL
REMARK 927      BINDING AFFINITY PREDICTED BY RF-SCORE:    0.00 PKD
ROOT
HETATM    1  C   UNL     1      -7.333   4.026  71.986  1.00  0.00    -0.060 C  
HETATM    2  C   UNL     1      -7.387   5.472  72.487  1.00  0.00    -0.095 C  
HETATM    3  C   UNL     1      -6.019   6.128  72.315  1.00  0.00    -0.037 C  
HETATM    4  C   UNL     1      -8.471   6.231  71.724  1.00  0.00    -0.129 C  
HETATM    5  O   UNL     1      -9.106   5.686  70.826  1.00  0.00    -0.144 OA 
HETATM    6  N   UNL     1      -8.682   7.533  72.161  1.00  0.00    -0.112 N  
HETATM    7  H   UNL     1      -8.192   7.828  73.006  1.00  0.00     0.000 HD 
ENDROOT
BRANCH   6   8
HETATM    8  C   UNL     1      -9.520   8.482  71.532  1.00  0.00    -0.222 A  
HETATM    9  C   UNL     1     -10.816   8.763  71.986  1.00  0.00    -0.428 A  
HETATM   10  C   UNL     1     -11.657   9.685  71.334  1.00  0.00    -0.472 A  
HETATM   11  C   UNL     1     -13.057   9.898  71.846  1.00  0.00    -0.459 C  
HETATM   12  C   UNL     1     -11.154  10.323  70.196  1.00  0.00    -0.319 A  
HETATM   13  F   UNL     1     -13.379   9.078  72.887  1.00  0.00    -0.490 F  
HETATM   14  F   UNL     1     -13.282  11.156  72.300  1.00  0.00    -0.595 F  
HETATM   15  N   UNL     1     -11.976  11.257  69.441  1.00  0.00    -0.333 N  
HETATM   16  F   UNL     1     -13.992   9.650  70.890  1.00  0.00    -0.371 F  
HETATM   17  C   UNL     1      -9.862  10.061  69.718  1.00  0.00    -0.270 A  
HETATM   18  C   UNL     1      -9.051   9.135  70.387  1.00  0.00    -0.270 A  
HETATM   19  O   UNL     1     -12.402  12.248  70.041  1.00  0.00    -0.200 OA 
HETATM   20  O   UNL     1     -12.158  10.999  68.244  1.00  0.00    -0.604 OA 
ENDBRANCH   6   8
TORSDOF 1
ENDMDL
MODEL       57
REMARK 921   NORMALIZED FREE ENERGY PREDICTED BY IDOCK:   -5.28 KCAL/MOL
REMARK 922        TOTAL FREE ENERGY PREDICTED BY IDOCK:   -5.90 KCAL/MOL
REMARK 923 INTER-LIGAND FREE ENERGY PREDICTED BY IDOCK:   -5.58 KCAL/MOL
REMARK 924 INTRA-LIGAND FREE ENERGY PREDICTED BY IDOCK:   -0.31 KCAL/MOL
REMARK 927      BINDING AFFINITY PREDICTED BY RF-SCORE:    0.00 PKD
ROOT
HETATM    1  C   UNL     1      -9.554  15.045  66.275  1.00  0.00    -0.335 C  
HETATM    2  C   UNL     1     -10.792  14.175  66.520  1.00  0.00    -0.298 C  
HETATM    3  C   UNL     1     -11.071  13.320  65.287  1.00  0.00    -0.306 C  
HETATM    4  C   UNL     1     -10.565  13.312  67.760  1.00  0.00    -0.241 C  
HETATM    5  O   UNL     1      -9.497  13.346  68.363  1.00  0.00    -0.212 OA 
HETATM    6  N   UNL     1     -11.662  12.549  68.141  1.00  0.00    -0.336 N  
HETATM    7  H   UNL     1     -12.539  12.710  67.645  1.00  0.00     0.000 HD 
ENDROOT
BRANCH   6   8
HETATM    8  C   UNL     1     -11.663  11.568  69.158  1.00  0.00    -0.329 A  
HETATM    9  C   UNL     1     -11.127  10.287  68.972  1.00  0.00    -0.277 A  
HETATM   10  C   UNL     1     -11.163   9.303  69.978  1.00  0.00    -0.190 A  
HETATM   11  C   UNL     1     -10.615   7.930  69.690  1.00  0.00    -0.234 C  
HETATM   12  C   UNL     1     -11.763   9.646  71.194  1.00  0.00    -0.372 A  
HETATM   13  F   UNL     1     -10.195   7.779  68.402  1.00  0.00    -0.184 F  
HETATM   14  F   UNL     1      -9.543   7.603  70.455  1.00  0.00    -0.166 F  
HETATM   15  N   UNL     1     -11.878   8.673  72.270  1.00  0.00    -0.376 N  
HETATM   16  F   UNL     1     -11.547   6.959  69.882  1.00  0.00    -0.323 F  
HETATM   17  C   UNL     1     -12.309  10.920  71.408  1.00  0.00    -0.403 A  
HETATM   18  C   UNL     1     -12.262  11.875  70.385  1.00  0.00    -0.399 A  
HETATM   19  O   UNL     1     -10.831   8.187  72.707  1.00  0.00    -0.353 OA 
HETATM   20  O   UNL     1     -13.019   8.431  72.684  1.00  0.00    -0.249 OA 
ENDBRANCH   6   8
TORSDOF 1
ENDMDL
MODEL       58
REMARK 921   NORMALIZED FREE ENERGY PREDICTED BY IDOCK:   -5.15 KCAL/MOL
REMARK 922        TOTAL FREE ENERGY PREDICTED BY IDOCK:   -5.76 KCAL/MOL
REMARK 923 INTER-LIGAND FREE ENERGY PREDICTED BY IDOCK:   -5.55 KCAL/MOL
REMARK 924 INTRA-LIGAND FREE ENERGY PREDICTED BY IDOCK:   -0.21 KCAL/MOL
REMARK 927      BINDING AFFINITY PREDICTED BY RF-SCORE:    0.00 PKD
ROOT
HETATM    1  C   UNL     1     -10.079   8.096  72.266  1.00  0.00    -0.338 C  
HETATM    2  C   UNL     1     -10.819   7.840  70.949  1.00  0.00    -0.246 C  
HETATM    3  C   UNL     1     -12.325   7.827  71.199  1.00  0.00    -0.268 C  
HETATM    4  C   UNL     1     -10.429   8.913  69.934  1.00  0.00    -0.214 C  
HETATM    5  O   UNL     1      -9.673   9.829  70.246  1.00  0.00    -0.248 OA 
HETATM    6  N   UNL     1     -10.963   8.729  68.664  1.00  0.00    -0.444 N  
HETATM    7  H   UNL     1     -11.462   7.856  68.489  1.00  0.00     0.000 HD 
ENDROOT
BRANCH   6   8
HETATM    8  C   UNL     1     -10.872   9.650  67.597  1.00  0.00    -0.212 A  
HETATM    9  C   UNL     1     -10.146   9.383  66.428  1.00  0.00    -0.332 A  
HETATM   10  C   UNL     1     -10.031  10.319  65.383  1.00  0.00    -0.371 A  
HETATM   11  C   UNL     1      -9.190   9.984  64.180  1.00  0.00    -0.271 C  
HETATM   12  C   UNL     1     -10.674  11.550  65.547  1.00  0.00    -0.272 A  
HETATM   13  F   UNL     1      -8.552   8.784  64.287  1.00  0.00    -0.173 F  
HETATM   14  F   UNL     1      -9.901   9.909  63.027  1.00  0.00    -0.249 F  
HETATM   15  N   UNL     1     -10.568  12.588  64.532  1.00  0.00    -0.316 N  
HETATM   16  F   UNL     1      -8.205  10.899  63.977  1.00  0.00    -0.094 F  
HETATM   17  C   UNL     1     -11.406  11.846  66.707  1.00  0.00    -0.393 A  
HETATM   18  C   UNL     1     -11.497  10.895  67.730  1.00  0.00    -0.323 A  
HETATM   19  O   UNL     1     -10.973  12.313  63.400  1.00  0.00    -0.441 OA 
HETATM   20  O   UNL     1     -10.107  13.678  64.894  1.00  0.00    -0.343 OA 
ENDBRANCH   6   8
TORSDOF 1
ENDMDL
MODEL       59
REMARK 921   NORMALIZED FREE ENERGY PREDICTED BY IDOCK:   -5.12 KCAL/MOL
REMARK 922        TOTAL FREE ENERGY PREDICTED BY IDOCK:   -5.73 KCAL/MOL
REMARK 923 INTER-LIGAND FREE ENERGY PREDICTED BY IDOCK:   -5.64 KCAL/MOL
REMARK 924 INTRA-LIGAND FREE ENERGY PREDICTED BY IDOCK:   -0.09 KCAL/MOL
REMARK 927      BINDING AFFINITY PREDICTED BY RF-SCORE:    0.00 PKD
ROOT
HETATM    1  C   UNL     1     -10.241   5.217  68.560  1.00  0.00    -0.214 C  
HETATM    2  C   UNL     1      -9.621   6.606  68.750  1.00  0.00    -0.131 C  
HETATM    3  C   UNL     1      -8.103   6.514  68.615  1.00  0.00    -0.118 C  
HETATM    4  C   UNL     1     -10.217   7.569  67.725  1.00  0.00    -0.201 C  
HETATM    5  O   UNL     1     -11.021   7.176  66.885  1.00  0.00    -0.363 OA 
HETATM    6  N   UNL     1      -9.802   8.888  67.863  1.00  0.00    -0.161 N  
HETATM    7  H   UNL     1      -9.242   9.119  68.684  1.00  0.00     0.000 HD 
ENDROOT
BRANCH   6   8
HETATM    8  C   UNL     1     -10.093   9.937  66.961  1.00  0.00    -0.218 A  
HETATM    9  C   UNL     1     -10.702  11.133  67.364  1.00  0.00    -0.294 A  
HETATM   10  C   UNL     1     -11.019  12.159  66.454  1.00  0.00    -0.327 A  
HETATM   11  C   UNL     1     -11.721  13.395  66.949  1.00  0.00    -0.389 C  
HETATM   12  C   UNL     1     -10.706  11.946  65.108  1.00  0.00    -0.291 A  
HETATM   13  F   UNL     1     -12.044  13.336  68.273  1.00  0.00    -0.363 F  
HETATM   14  F   UNL     1     -10.987  14.527  66.811  1.00  0.00    -0.292 F  
HETATM   15  N   UNL     1     -11.041  12.939  64.098  1.00  0.00    -0.376 N  
HETATM   16  F   UNL     1     -12.898  13.607  66.301  1.00  0.00    -0.398 F  
HETATM   17  C   UNL     1     -10.098  10.758  64.675  1.00  0.00    -0.410 A  
HETATM   18  C   UNL     1      -9.799   9.755  65.605  1.00  0.00    -0.371 A  
HETATM   19  O   UNL     1     -10.553  14.064  64.229  1.00  0.00    -0.290 OA 
HETATM   20  O   UNL     1     -11.766  12.566  63.167  1.00  0.00    -0.430 OA 
ENDBRANCH   6   8
TORSDOF 1
ENDMDL
MODEL       60
REMARK 921   NORMALIZED FREE ENERGY PREDICTED BY IDOCK:   -5.12 KCAL/MOL
REMARK 922        TOTAL FREE ENERGY PREDICTED BY IDOCK:   -5.73 KCAL/MOL
REMARK 923 INTER-LIGAND FREE ENERGY PREDICTED BY IDOCK:   -5.42 KCAL/MOL
REMARK 924 INTRA-LIGAND FREE ENERGY PREDICTED BY IDOCK:   -0.31 KCAL/MOL
REMARK 927      BINDING AFFINITY PREDICTED BY RF-SCORE:    0.00 PKD
ROOT
HETATM    1  C   UNL     1      -7.982   5.797  65.628  1.00  0.00    -0.116 C  
HETATM    2  C   UNL     1      -7.599   7.159  65.039  1.00  0.00    -0.104 C  
HETATM    3  C   UNL     1      -7.566   7.069  63.515  1.00  0.00    -0.105 C  
HETATM    4  C   UNL     1      -8.595   8.214  65.516  1.00  0.00    -0.149 C  
HETATM    5  O   UNL     1      -9.553   7.904  66.217  1.00  0.00    -0.195 OA 
HETATM    6  N   UNL     1      -8.292   9.513  65.124  1.00  0.00    -0.134 N  
HETATM    7  H   UNL     1      -7.395   9.665  64.662  1.00  0.00     0.000 HD 
ENDROOT
BRANCH   6   8
HETATM    8  C   UNL     1      -9.125  10.639  65.312  1.00  0.00    -0.195 A  
HETATM    9  C   UNL     1     -10.270  10.870  64.538  1.00  0.00    -0.422 A  
HETATM   10  C   UNL     1     -11.075  12.011  64.708  1.00  0.00    -0.369 A  
HETATM   11  C   UNL     1     -12.261  12.221  63.804  1.00  0.00    -0.546 C  
HETATM   12  C   UNL     1     -10.691  12.931  65.689  1.00  0.00    -0.274 A  
HETATM   13  F   UNL     1     -12.374  11.267  62.836  1.00  0.00    -0.310 F  
HETATM   14  F   UNL     1     -13.450  12.208  64.458  1.00  0.00    -0.346 F  
HETATM   15  N   UNL     1     -11.446  14.158  65.898  1.00  0.00    -0.331 N  
HETATM   16  F   UNL     1     -12.191  13.403  63.137  1.00  0.00    -0.606 F  
HETATM   17  C   UNL     1      -9.549  12.728  66.478  1.00  0.00    -0.257 A  
HETATM   18  C   UNL     1      -8.767  11.583  66.281  1.00  0.00    -0.159 A  
HETATM   19  O   UNL     1     -12.636  14.044  66.201  1.00  0.00    -0.468 OA 
HETATM   20  O   UNL     1     -10.824  15.222  65.785  1.00  0.00    -0.335 OA 
ENDBRANCH   6   8
TORSDOF 1
ENDMDL
MODEL       61
REMARK 921   NORMALIZED FREE ENERGY PREDICTED BY IDOCK:   -5.07 KCAL/MOL
REMARK 922        TOTAL FREE ENERGY PREDICTED BY IDOCK:   -5.67 KCAL/MOL
REMARK 923 INTER-LIGAND FREE ENERGY PREDICTED BY IDOCK:   -5.40 KCAL/MOL
REMARK 924 INTRA-LIGAND FREE ENERGY PREDICTED BY IDOCK:   -0.27 KCAL/MOL
REMARK 927      BINDING AFFINITY PREDICTED BY RF-SCORE:    0.00 PKD
ROOT
HETATM    1  C   UNL     1     -12.416  15.822  73.906  1.00  0.00    -0.751 C  
HETATM    2  C   UNL     1     -12.254  14.657  72.925  1.00  0.00    -0.264 C  
HETATM    3  C   UNL     1     -13.576  13.905  72.797  1.00  0.00    -0.493 C  
HETATM    4  C   UNL     1     -11.782  15.195  71.575  1.00  0.00    -0.390 C  
HETATM    5  O   UNL     1     -11.639  16.400  71.393  1.00  0.00    -0.418 OA 
HETATM    6  N   UNL     1     -11.504  14.215  70.629  1.00  0.00    -0.514 N  
HETATM    7  H   UNL     1     -11.526  13.244  70.940  1.00  0.00     0.000 HD 
ENDROOT
BRANCH   6   8
HETATM    8  C   UNL     1     -11.194  14.455  69.271  1.00  0.00    -0.275 A  
HETATM    9  C   UNL     1      -9.942  14.927  68.854  1.00  0.00    -0.233 A  
HETATM   10  C   UNL     1      -9.652  15.195  67.503  1.00  0.00    -0.207 A  
HETATM   11  C   UNL     1      -8.302  15.751  67.134  1.00  0.00    -0.202 C  
HETATM   12  C   UNL     1     -10.669  14.976  66.569  1.00  0.00    -0.312 A  
HETATM   13  F   UNL     1      -7.512  16.006  68.215  1.00  0.00    -0.126 F  
HETATM   14  F   UNL     1      -7.572  14.922  66.346  1.00  0.00     0.188 F  
HETATM   15  N   UNL     1     -10.463  15.271  65.158  1.00  0.00    -0.406 N  
HETATM   16  F   UNL     1      -8.402  16.936  66.473  1.00  0.00    -0.216 F  
HETATM   17  C   UNL     1     -11.932  14.506  66.957  1.00  0.00    -0.371 A  
HETATM   18  C   UNL     1     -12.191  14.253  68.310  1.00  0.00    -0.181 A  
HETATM   19  O   UNL     1      -9.549  14.673  64.585  1.00  0.00     0.227 OA 
HETATM   20  O   UNL     1     -11.243  16.077  64.636  1.00  0.00    -0.463 OA 
ENDBRANCH   6   8
TORSDOF 1
ENDMDL
MODEL       62
REMARK 921   NORMALIZED FREE ENERGY PREDICTED BY IDOCK:   -5.05 KCAL/MOL
REMARK 922        TOTAL FREE ENERGY PREDICTED BY IDOCK:   -5.65 KCAL/MOL
REMARK 923 INTER-LIGAND FREE ENERGY PREDICTED BY IDOCK:   -5.39 KCAL/MOL
REMARK 924 INTRA-LIGAND FREE ENERGY PREDICTED BY IDOCK:   -0.27 KCAL/MOL
REMARK 927      BINDING AFFINITY PREDICTED BY RF-SCORE:    0.00 PKD
ROOT
HETATM    1  C   UNL     1     -10.850  12.396  63.639  1.00  0.00    -0.509 C  
HETATM    2  C   UNL     1     -10.881  12.811  65.113  1.00  0.00    -0.318 C  
HETATM    3  C   UNL     1     -12.282  13.293  65.483  1.00  0.00    -0.506 C  
HETATM    4  C   UNL     1     -10.448  11.629  65.979  1.00  0.00    -0.251 C  
HETATM    5  O   UNL     1     -10.191  10.540  65.475  1.00  0.00    -0.272 OA 
HETATM    6  N   UNL     1     -10.342  11.916  67.335  1.00  0.00    -0.205 N  
HETATM    7  H   UNL     1     -10.446  12.891  67.617  1.00  0.00     0.000 HD 
ENDROOT
BRANCH   6   8
HETATM    8  C   UNL     1     -10.102  10.967  68.356  1.00  0.00    -0.184 A  
HETATM    9  C   UNL     1     -11.121  10.477  69.184  1.00  0.00    -0.302 A  
HETATM   10  C   UNL     1     -10.869   9.559  70.221  1.00  0.00    -0.319 A  
HETATM   11  C   UNL     1     -12.003   9.114  71.107  1.00  0.00    -0.308 C  
HETATM   12  C   UNL     1      -9.547   9.143  70.408  1.00  0.00    -0.224 A  
HETATM   13  F   UNL     1     -13.181   9.742  70.827  1.00  0.00    -0.366 F  
HETATM   14  F   UNL     1     -12.275   7.788  71.015  1.00  0.00    -0.314 F  
HETATM   15  N   UNL     1      -9.197   8.229  71.485  1.00  0.00    -0.160 N  
HETATM   16  F   UNL     1     -11.758   9.376  72.418  1.00  0.00    -0.341 F  
HETATM   17  C   UNL     1      -8.507   9.619  69.595  1.00  0.00    -0.181 A  
HETATM   18  C   UNL     1      -8.790  10.535  68.574  1.00  0.00    -0.144 A  
HETATM   19  O   UNL     1      -9.745   7.123  71.487  1.00  0.00    -0.165 OA 
HETATM   20  O   UNL     1      -8.352   8.622  72.299  1.00  0.00    -0.317 OA 
ENDBRANCH   6   8
TORSDOF 1
ENDMDL
MODEL       63
REMARK 921   NORMALIZED FREE ENERGY PREDICTED BY IDOCK:   -4.98 KCAL/MOL
REMARK 922        TOTAL FREE ENERGY PREDICTED BY IDOCK:   -5.57 KCAL/MOL
REMARK 923 INTER-LIGAND FREE ENERGY PREDICTED BY IDOCK:   -5.32 KCAL/MOL
REMARK 924 INTRA-LIGAND FREE ENERGY PREDICTED BY IDOCK:   -0.25 KCAL/MOL
REMARK 927      BINDING AFFINITY PREDICTED BY RF-SCORE:    0.00 PKD
ROOT
HETATM    1  C   UNL     1     -11.594  14.568  66.548  1.00  0.00    -0.379 C  
HETATM    2  C   UNL     1     -12.117  13.152  66.810  1.00  0.00    -0.389 C  
HETATM    3  C   UNL     1     -11.804  12.258  65.612  1.00  0.00    -0.423 C  
HETATM    4  C   UNL     1     -11.488  12.610  68.092  1.00  0.00    -0.313 C  
HETATM    5  O   UNL     1     -10.658  13.267  68.713  1.00  0.00    -0.244 OA 
HETATM    6  N   UNL     1     -11.963  11.365  68.487  1.00  0.00    -0.287 N  
HETATM    7  H   UNL     1     -12.753  10.979  67.968  1.00  0.00     0.000 HD 
ENDROOT
BRANCH   6   8
HETATM    8  C   UNL     1     -11.444  10.589  69.548  1.00  0.00    -0.272 A  
HETATM    9  C   UNL     1     -10.144  10.064  69.533  1.00  0.00    -0.248 A  
HETATM   10  C   UNL     1      -9.645   9.263  70.577  1.00  0.00    -0.317 A  
HETATM   11  C   UNL     1      -8.257   8.688  70.470  1.00  0.00    -0.123 C  
HETATM   12  C   UNL     1     -10.500   8.998  71.652  1.00  0.00    -0.355 A  
HETATM   13  F   UNL     1      -7.650   8.969  69.281  1.00  0.00    -0.072 F  
HETATM   14  F   UNL     1      -7.406   9.146  71.422  1.00  0.00    -0.113 F  
HETATM   15  N   UNL     1     -10.074   8.144  72.751  1.00  0.00    -0.299 N  
HETATM   16  F   UNL     1      -8.259   7.332  70.561  1.00  0.00    -0.114 F  
HETATM   17  C   UNL     1     -11.806   9.509  71.693  1.00  0.00    -0.468 A  
HETATM   18  C   UNL     1     -12.274  10.299  70.636  1.00  0.00    -0.422 A  
HETATM   19  O   UNL     1      -9.077   8.496  73.386  1.00  0.00    -0.220 OA 
HETATM   20  O   UNL     1     -10.767   7.145  72.982  1.00  0.00    -0.263 OA 
ENDBRANCH   6   8
TORSDOF 1
ENDMDL
MODEL       64
REMARK 921   NORMALIZED FREE ENERGY PREDICTED BY IDOCK:   -4.96 KCAL/MOL
REMARK 922        TOTAL FREE ENERGY PREDICTED BY IDOCK:   -5.55 KCAL/MOL
REMARK 923 INTER-LIGAND FREE ENERGY PREDICTED BY IDOCK:   -5.77 KCAL/MOL
REMARK 924 INTRA-LIGAND FREE ENERGY PREDICTED BY IDOCK:    0.22 KCAL/MOL
REMARK 927      BINDING AFFINITY PREDICTED BY RF-SCORE:    0.00 PKD
ROOT
HETATM    1  C   UNL     1      -7.046   8.786  69.334  1.00  0.00    -0.057 C  
HETATM    2  C   UNL     1      -7.646  10.155  69.669  1.00  0.00    -0.158 C  
HETATM    3  C   UNL     1      -6.533  11.124  70.058  1.00  0.00    -0.133 C  
HETATM    4  C   UNL     1      -8.439  10.666  68.467  1.00  0.00    -0.136 C  
HETATM    5  O   UNL     1      -8.478  10.026  67.421  1.00  0.00    -0.121 OA 
HETATM    6  N   UNL     1      -9.115  11.861  68.687  1.00  0.00    -0.359 N  
HETATM    7  H   UNL     1      -9.121  12.226  69.639  1.00  0.00     0.000 HD 
ENDROOT
BRANCH   6   8
HETATM    8  C   UNL     1      -9.795  12.610  67.700  1.00  0.00    -0.210 A  
HETATM    9  C   UNL     1     -10.267  12.039  66.510  1.00  0.00    -0.232 A  
HETATM   10  C   UNL     1     -10.912  12.798  65.516  1.00  0.00    -0.310 A  
HETATM   11  C   UNL     1     -11.346  12.128  64.239  1.00  0.00    -0.360 C  
HETATM   12  C   UNL     1     -11.071  14.167  65.752  1.00  0.00    -0.309 A  
HETATM   13  F   UNL     1     -10.978  10.817  64.169  1.00  0.00    -0.400 F  
HETATM   14  F   UNL     1     -12.690  12.131  64.055  1.00  0.00    -0.529 F  
HETATM   15  N   UNL     1     -11.689  15.029  64.756  1.00  0.00    -0.394 N  
HETATM   16  F   UNL     1     -10.797  12.716  63.143  1.00  0.00    -0.450 F  
HETATM   17  C   UNL     1     -10.607  14.766  66.932  1.00  0.00    -0.294 A  
HETATM   18  C   UNL     1      -9.965  13.984  67.900  1.00  0.00    -0.237 A  
HETATM   19  O   UNL     1     -12.845  14.761  64.416  1.00  0.00    -0.534 OA 
HETATM   20  O   UNL     1     -11.016  15.984  64.349  1.00  0.00    -0.554 OA 
ENDBRANCH   6   8
TORSDOF 1
ENDMDL
MODEL       65
REMARK 921   NORMALIZED FREE ENERGY PREDICTED BY IDOCK:   -4.94 KCAL/MOL
REMARK 922        TOTAL FREE ENERGY PREDICTED BY IDOCK:   -5.54 KCAL/MOL
REMARK 923 INTER-LIGAND FREE ENERGY PREDICTED BY IDOCK:   -5.23 KCAL/MOL
REMARK 924 INTRA-LIGAND FREE ENERGY PREDICTED BY IDOCK:   -0.31 KCAL/MOL
REMARK 927      BINDING AFFINITY PREDICTED BY RF-SCORE:    0.00 PKD
ROOT
HETATM    1  C   UNL     1     -10.789  12.705  64.803  1.00  0.00    -0.332 C  
HETATM    2  C   UNL     1     -10.878  13.072  66.288  1.00  0.00    -0.295 C  
HETATM    3  C   UNL     1     -12.105  13.948  66.529  1.00  0.00    -0.484 C  
HETATM    4  C   UNL     1     -10.930  11.793  67.122  1.00  0.00    -0.276 C  
HETATM    5  O   UNL     1     -10.950  10.691  66.583  1.00  0.00    -0.190 OA 
HETATM    6  N   UNL     1     -10.912  11.999  68.496  1.00  0.00    -0.226 N  
HETATM    7  H   UNL     1     -10.753  12.952  68.825  1.00  0.00     0.000 HD 
ENDROOT
BRANCH   6   8
HETATM    8  C   UNL     1     -11.096  10.997  69.476  1.00  0.00    -0.263 A  
HETATM    9  C   UNL     1     -10.040  10.216  69.964  1.00  0.00    -0.241 A  
HETATM   10  C   UNL     1     -10.236   9.197  70.915  1.00  0.00    -0.351 A  
HETATM   11  C   UNL     1      -9.063   8.361  71.355  1.00  0.00    -0.186 C  
HETATM   12  C   UNL     1     -11.542   8.979  71.367  1.00  0.00    -0.326 A  
HETATM   13  F   UNL     1      -7.910   8.661  70.692  1.00  0.00    -0.069 F  
HETATM   14  F   UNL     1      -8.765   8.497  72.671  1.00  0.00    -0.250 F  
HETATM   15  N   UNL     1     -11.835   7.916  72.317  1.00  0.00    -0.338 N  
HETATM   16  F   UNL     1      -9.271   7.035  71.133  1.00  0.00    -0.154 F  
HETATM   17  C   UNL     1     -12.618   9.744  70.895  1.00  0.00    -0.350 A  
HETATM   18  C   UNL     1     -12.390  10.748  69.945  1.00  0.00    -0.340 A  
HETATM   19  O   UNL     1     -11.262   7.961  73.409  1.00  0.00    -0.275 OA 
HETATM   20  O   UNL     1     -12.661   7.065  71.965  1.00  0.00    -0.283 OA 
ENDBRANCH   6   8
TORSDOF 1
ENDMDL
MODEL       66
REMARK 921   NORMALIZED FREE ENERGY PREDICTED BY IDOCK:   -4.93 KCAL/MOL
REMARK 922        TOTAL FREE ENERGY PREDICTED BY IDOCK:   -5.53 KCAL/MOL
REMARK 923 INTER-LIGAND FREE ENERGY PREDICTED BY IDOCK:   -5.30 KCAL/MOL
REMARK 924 INTRA-LIGAND FREE ENERGY PREDICTED BY IDOCK:   -0.23 KCAL/MOL
REMARK 927      BINDING AFFINITY PREDICTED BY RF-SCORE:    0.00 PKD
ROOT
HETATM    1  C   UNL     1     -14.009  13.540  72.392  1.00  0.00    -0.638 C  
HETATM    2  C   UNL     1     -13.381  14.924  72.196  1.00  0.00    -0.473 C  
HETATM    3  C   UNL     1     -12.702  15.368  73.490  1.00  0.00    -0.689 C  
HETATM    4  C   UNL     1     -12.392  14.870  71.034  1.00  0.00    -0.324 C  
HETATM    5  O   UNL     1     -12.165  13.816  70.448  1.00  0.00    -0.325 OA 
HETATM    6  N   UNL     1     -11.830  16.096  70.697  1.00  0.00    -0.494 N  
HETATM    7  H   UNL     1     -12.200  16.924  71.163  1.00  0.00     0.000 HD 
ENDROOT
BRANCH   6   8
HETATM    8  C   UNL     1     -10.788  16.289  69.762  1.00  0.00    -0.356 A  
HETATM    9  C   UNL     1      -9.518  15.717  69.918  1.00  0.00    -0.030 A  
HETATM   10  C   UNL     1      -8.474  15.941  69.001  1.00  0.00    -0.242 A  
HETATM   11  C   UNL     1      -7.119  15.337  69.260  1.00  0.00    -0.177 C  
HETATM   12  C   UNL     1      -8.743  16.771  67.908  1.00  0.00    -0.203 A  
HETATM   13  F   UNL     1      -7.046  14.671  70.448  1.00  0.00    -0.138 F  
HETATM   14  F   UNL     1      -6.740  14.434  68.321  1.00  0.00    -0.084 F  
HETATM   15  N   UNL     1      -7.706  17.088  66.938  1.00  0.00    -0.195 N  
HETATM   16  F   UNL     1      -6.142  16.281  69.316  1.00  0.00    -0.129 F  
HETATM   17  C   UNL     1     -10.004  17.359  67.727  1.00  0.00    -0.301 A  
HETATM   18  C   UNL     1     -11.021  17.119  68.660  1.00  0.00    -0.171 A  
HETATM   19  O   UNL     1      -7.189  16.144  66.335  1.00  0.00    -0.128 OA 
HETATM   20  O   UNL     1      -7.444  18.286  66.772  1.00  0.00    -0.204 OA 
ENDBRANCH   6   8
TORSDOF 1
ENDMDL
MODEL       67
REMARK 921   NORMALIZED FREE ENERGY PREDICTED BY IDOCK:   -4.92 KCAL/MOL
REMARK 922        TOTAL FREE ENERGY PREDICTED BY IDOCK:   -5.51 KCAL/MOL
REMARK 923 INTER-LIGAND FREE ENERGY PREDICTED BY IDOCK:   -5.27 KCAL/MOL
REMARK 924 INTRA-LIGAND FREE ENERGY PREDICTED BY IDOCK:   -0.25 KCAL/MOL
REMARK 927      BINDING AFFINITY PREDICTED BY RF-SCORE:    0.00 PKD
ROOT
HETATM    1  C   UNL     1     -10.229   4.654  71.090  1.00  0.00    -0.199 C  
HETATM    2  C   UNL     1      -9.789   6.106  71.298  1.00  0.00    -0.204 C  
HETATM    3  C   UNL     1      -8.269   6.203  71.198  1.00  0.00    -0.123 C  
HETATM    4  C   UNL     1     -10.477   6.995  70.264  1.00  0.00    -0.208 C  
HETATM    5  O   UNL     1     -11.208   6.512  69.405  1.00  0.00    -0.340 OA 
HETATM    6  N   UNL     1     -10.230   8.355  70.416  1.00  0.00    -0.194 N  
HETATM    7  H   UNL     1      -9.721   8.648  71.250  1.00  0.00     0.000 HD 
ENDROOT
BRANCH   6   8
HETATM    8  C   UNL     1     -10.628   9.365  69.511  1.00  0.00    -0.222 A  
HETATM    9  C   UNL     1     -10.138   9.439  68.200  1.00  0.00    -0.215 A  
HETATM   10  C   UNL     1     -10.512  10.467  67.314  1.00  0.00    -0.300 A  
HETATM   11  C   UNL     1      -9.905  10.513  65.937  1.00  0.00    -0.234 C  
HETATM   12  C   UNL     1     -11.401  11.436  67.790  1.00  0.00    -0.287 A  
HETATM   13  F   UNL     1      -8.968   9.546  65.730  1.00  0.00    -0.155 F  
HETATM   14  F   UNL     1     -10.812  10.351  64.940  1.00  0.00    -0.258 F  
HETATM   15  N   UNL     1     -11.803  12.556  66.952  1.00  0.00    -0.377 N  
HETATM   16  F   UNL     1      -9.266  11.690  65.701  1.00  0.00    -0.219 F  
HETATM   17  C   UNL     1     -11.905  11.389  69.098  1.00  0.00    -0.413 A  
HETATM   18  C   UNL     1     -11.511  10.354  69.956  1.00  0.00    -0.382 A  
HETATM   19  O   UNL     1     -12.365  12.290  65.887  1.00  0.00    -0.618 OA 
HETATM   20  O   UNL     1     -11.575  13.691  67.389  1.00  0.00    -0.317 OA 
ENDBRANCH   6   8
TORSDOF 1
ENDMDL
MODEL       68
REMARK 921   NORMALIZED FREE ENERGY PREDICTED BY IDOCK:   -4.91 KCAL/MOL
REMARK 922        TOTAL FREE ENERGY PREDICTED BY IDOCK:   -5.50 KCAL/MOL
REMARK 923 INTER-LIGAND FREE ENERGY PREDICTED BY IDOCK:   -5.20 KCAL/MOL
REMARK 924 INTRA-LIGAND FREE ENERGY PREDICTED BY IDOCK:   -0.30 KCAL/MOL
REMARK 927      BINDING AFFINITY PREDICTED BY RF-SCORE:    0.00 PKD
ROOT
HETATM    1  C   UNL     1     -10.004  10.981  63.222  1.00  0.00    -0.414 C  
HETATM    2  C   UNL     1     -10.904  12.166  63.588  1.00  0.00    -0.523 C  
HETATM    3  C   UNL     1     -12.369  11.772  63.415  1.00  0.00    -0.476 C  
HETATM    4  C   UNL     1     -10.606  12.603  65.021  1.00  0.00    -0.303 C  
HETATM    5  O   UNL     1      -9.792  11.994  65.708  1.00  0.00    -0.236 OA 
HETATM    6  N   UNL     1     -11.295  13.738  65.433  1.00  0.00    -0.304 N  
HETATM    7  H   UNL     1     -11.837  14.238  64.728  1.00  0.00     0.000 HD 
ENDROOT
BRANCH   6   8
HETATM    8  C   UNL     1     -11.305  14.256  66.748  1.00  0.00    -0.348 A  
HETATM    9  C   UNL     1     -10.493  15.327  67.144  1.00  0.00    -0.280 A  
HETATM   10  C   UNL     1     -10.483  15.816  68.464  1.00  0.00    -0.236 A  
HETATM   11  C   UNL     1      -9.545  16.935  68.831  1.00  0.00    -0.251 C  
HETATM   12  C   UNL     1     -11.322  15.188  69.390  1.00  0.00    -0.294 A  
HETATM   13  F   UNL     1      -8.727  17.309  67.805  1.00  0.00    -0.214 F  
HETATM   14  F   UNL     1     -10.180  18.071  69.213  1.00  0.00    -0.361 F  
HETATM   15  N   UNL     1     -11.340  15.606  70.784  1.00  0.00    -0.340 N  
HETATM   16  F   UNL     1      -8.712  16.589  69.848  1.00  0.00     0.150 F  
HETATM   17  C   UNL     1     -12.145  14.113  69.022  1.00  0.00    -0.348 A  
HETATM   18  C   UNL     1     -12.129  13.648  67.701  1.00  0.00    -0.328 A  
HETATM   19  O   UNL     1     -11.643  16.778  71.018  1.00  0.00    -0.032 OA 
HETATM   20  O   UNL     1     -11.078  14.741  71.629  1.00  0.00    -0.060 OA 
ENDBRANCH   6   8
TORSDOF 1
ENDMDL
MODEL       69
REMARK 921   NORMALIZED FREE ENERGY PREDICTED BY IDOCK:   -4.90 KCAL/MOL
REMARK 922        TOTAL FREE ENERGY PREDICTED BY IDOCK:   -5.49 KCAL/MOL
REMARK 923 INTER-LIGAND FREE ENERGY PREDICTED BY IDOCK:   -5.73 KCAL/MOL
REMARK 924 INTRA-LIGAND FREE ENERGY PREDICTED BY IDOCK:    0.24 KCAL/MOL
REMARK 927      BINDING AFFINITY PREDICTED BY RF-SCORE:    0.00 PKD
ROOT
HETATM    1  C   UNL     1     -11.702  12.956  69.669  1.00  0.00    -0.367 C  
HETATM    2  C   UNL     1     -12.156  14.368  69.286  1.00  0.00    -0.336 C  
HETATM    3  C   UNL     1     -12.725  15.075  70.514  1.00  0.00    -0.406 C  
HETATM    4  C   UNL     1     -10.975  15.135  68.694  1.00  0.00    -0.255 C  
HETATM    5  O   UNL     1      -9.861  14.625  68.632  1.00  0.00    -0.214 OA 
HETATM    6  N   UNL     1     -11.291  16.402  68.217  1.00  0.00    -0.313 N  
HETATM    7  H   UNL     1     -12.277  16.662  68.196  1.00  0.00     0.000 HD 
ENDROOT
BRANCH   6   8
HETATM    8  C   UNL     1     -10.358  17.360  67.759  1.00  0.00    -0.358 A  
HETATM    9  C   UNL     1      -9.066  17.015  67.339  1.00  0.00    -0.225 A  
HETATM   10  C   UNL     1      -8.130  17.977  66.917  1.00  0.00    -0.255 A  
HETATM   11  C   UNL     1      -6.742  17.539  66.530  1.00  0.00    -0.241 C  
HETATM   12  C   UNL     1      -8.532  19.317  66.931  1.00  0.00    -0.289 A  
HETATM   13  F   UNL     1      -6.529  16.205  66.713  1.00  0.00    -0.212 F  
HETATM   14  F   UNL     1      -6.445  17.773  65.227  1.00  0.00    -0.203 F  
HETATM   15  N   UNL     1      -7.610  20.377  66.550  1.00  0.00    -0.245 N  
HETATM   16  F   UNL     1      -5.787  18.162  67.270  1.00  0.00    -0.134 F  
HETATM   17  C   UNL     1      -9.818  19.692  67.347  1.00  0.00    -0.489 A  
HETATM   18  C   UNL     1     -10.725  18.710  67.766  1.00  0.00    -0.394 A  
HETATM   19  O   UNL     1      -7.139  20.333  65.410  1.00  0.00    -0.308 OA 
HETATM   20  O   UNL     1      -7.395  21.258  67.391  1.00  0.00    -0.484 OA 
ENDBRANCH   6   8
TORSDOF 1
ENDMDL
MODEL       70
REMARK 921   NORMALIZED FREE ENERGY PREDICTED BY IDOCK:   -4.87 KCAL/MOL
REMARK 922        TOTAL FREE ENERGY PREDICTED BY IDOCK:   -5.46 KCAL/MOL
REMARK 923 INTER-LIGAND FREE ENERGY PREDICTED BY IDOCK:   -5.69 KCAL/MOL
REMARK 924 INTRA-LIGAND FREE ENERGY PREDICTED BY IDOCK:    0.23 KCAL/MOL
REMARK 927      BINDING AFFINITY PREDICTED BY RF-SCORE:    0.00 PKD
ROOT
HETATM    1  C   UNL     1      -8.418  20.458  67.164  1.00  0.00    -0.393 C  
HETATM    2  C   UNL     1      -9.604  19.488  67.158  1.00  0.00    -0.430 C  
HETATM    3  C   UNL     1     -10.533  19.819  65.992  1.00  0.00    -0.609 C  
HETATM    4  C   UNL     1      -9.083  18.055  67.070  1.00  0.00    -0.258 C  
HETATM    5  O   UNL     1      -7.882  17.827  66.968  1.00  0.00    -0.200 OA 
HETATM    6  N   UNL     1     -10.067  17.077  67.156  1.00  0.00    -0.285 N  
HETATM    7  H   UNL     1     -11.014  17.384  67.380  1.00  0.00     0.000 HD 
ENDROOT
BRANCH   6   8
HETATM    8  C   UNL     1      -9.865  15.692  66.958  1.00  0.00    -0.233 A  
HETATM    9  C   UNL     1     -10.846  14.857  66.408  1.00  0.00    -0.325 A  
HETATM   10  C   UNL     1     -10.650  13.473  66.245  1.00  0.00    -0.288 A  
HETATM   11  C   UNL     1     -11.768  12.627  65.696  1.00  0.00    -0.412 C  
HETATM   12  C   UNL     1      -9.424  12.942  66.660  1.00  0.00    -0.255 A  
HETATM   13  F   UNL     1     -12.917  13.330  65.479  1.00  0.00    -0.512 F  
HETATM   14  F   UNL     1     -11.474  12.047  64.505  1.00  0.00    -0.353 F  
HETATM   15  N   UNL     1      -9.160  11.514  66.566  1.00  0.00    -0.189 N  
HETATM   16  F   UNL     1     -12.115  11.625  66.547  1.00  0.00    -0.208 F  
HETATM   17  C   UNL     1      -8.425  13.754  67.216  1.00  0.00    -0.204 A  
HETATM   18  C   UNL     1      -8.652  15.127  67.368  1.00  0.00    -0.201 A  
HETATM   19  O   UNL     1      -9.218  11.002  65.445  1.00  0.00    -0.203 OA 
HETATM   20  O   UNL     1      -8.866  10.930  67.617  1.00  0.00    -0.132 OA 
ENDBRANCH   6   8
TORSDOF 1
ENDMDL
MODEL       71
REMARK 921   NORMALIZED FREE ENERGY PREDICTED BY IDOCK:   -4.83 KCAL/MOL
REMARK 922        TOTAL FREE ENERGY PREDICTED BY IDOCK:   -5.42 KCAL/MOL
REMARK 923 INTER-LIGAND FREE ENERGY PREDICTED BY IDOCK:   -5.11 KCAL/MOL
REMARK 924 INTRA-LIGAND FREE ENERGY PREDICTED BY IDOCK:   -0.31 KCAL/MOL
REMARK 927      BINDING AFFINITY PREDICTED BY RF-SCORE:    0.00 PKD
ROOT
HETATM    1  C   UNL     1     -11.167  11.587  66.575  1.00  0.00    -0.324 C  
HETATM    2  C   UNL     1     -11.149  12.868  65.735  1.00  0.00    -0.312 C  
HETATM    3  C   UNL     1     -12.581  13.302  65.430  1.00  0.00    -0.526 C  
HETATM    4  C   UNL     1     -10.383  13.955  66.487  1.00  0.00    -0.286 C  
HETATM    5  O   UNL     1      -9.937  13.747  67.611  1.00  0.00    -0.230 OA 
HETATM    6  N   UNL     1     -10.215  15.139  65.778  1.00  0.00    -0.315 N  
HETATM    7  H   UNL     1     -10.508  15.144  64.801  1.00  0.00     0.000 HD 
ENDROOT
BRANCH   6   8
HETATM    8  C   UNL     1      -9.674  16.335  66.300  1.00  0.00    -0.304 A  
HETATM    9  C   UNL     1      -8.324  16.682  66.149  1.00  0.00    -0.305 A  
HETATM   10  C   UNL     1      -7.784  17.858  66.701  1.00  0.00    -0.275 A  
HETATM   11  C   UNL     1      -6.313  18.141  66.545  1.00  0.00    -0.196 C  
HETATM   12  C   UNL     1      -8.648  18.688  67.422  1.00  0.00    -0.269 A  
HETATM   13  F   UNL     1      -5.637  17.136  65.918  1.00  0.00    -0.197 F  
HETATM   14  F   UNL     1      -6.049  19.256  65.819  1.00  0.00    -0.183 F  
HETATM   15  N   UNL     1      -8.158  19.901  68.060  1.00  0.00    -0.295 N  
HETATM   16  F   UNL     1      -5.693  18.297  67.745  1.00  0.00    -0.152 F  
HETATM   17  C   UNL     1     -10.003  18.366  67.591  1.00  0.00    -0.355 A  
HETATM   18  C   UNL     1     -10.509  17.186  67.032  1.00  0.00    -0.282 A  
HETATM   19  O   UNL     1      -7.641  20.753  67.333  1.00  0.00    -0.346 OA 
HETATM   20  O   UNL     1      -8.327  19.996  69.282  1.00  0.00     0.042 OA 
ENDBRANCH   6   8
TORSDOF 1
ENDMDL
MODEL       72
REMARK 921   NORMALIZED FREE ENERGY PREDICTED BY IDOCK:   -4.83 KCAL/MOL
REMARK 922        TOTAL FREE ENERGY PREDICTED BY IDOCK:   -5.42 KCAL/MOL
REMARK 923 INTER-LIGAND FREE ENERGY PREDICTED BY IDOCK:   -5.25 KCAL/MOL
REMARK 924 INTRA-LIGAND FREE ENERGY PREDICTED BY IDOCK:   -0.17 KCAL/MOL
REMARK 927      BINDING AFFINITY PREDICTED BY RF-SCORE:    0.00 PKD
ROOT
HETATM    1  C   UNL     1      -5.326  18.914  70.115  1.00  0.00    -0.221 C  
HETATM    2  C   UNL     1      -6.641  19.261  69.409  1.00  0.00    -0.348 C  
HETATM    3  C   UNL     1      -6.374  20.265  68.290  1.00  0.00    -0.333 C  
HETATM    4  C   UNL     1      -7.279  17.981  68.873  1.00  0.00    -0.259 C  
HETATM    5  O   UNL     1      -6.715  16.898  68.993  1.00  0.00    -0.190 OA 
HETATM    6  N   UNL     1      -8.531  18.159  68.295  1.00  0.00    -0.278 N  
HETATM    7  H   UNL     1      -8.958  19.082  68.378  1.00  0.00     0.000 HD 
ENDROOT
BRANCH   6   8
HETATM    8  C   UNL     1      -9.261  17.167  67.602  1.00  0.00    -0.238 A  
HETATM    9  C   UNL     1      -9.719  15.996  68.221  1.00  0.00    -0.214 A  
HETATM   10  C   UNL     1     -10.415  14.996  67.517  1.00  0.00    -0.256 A  
HETATM   11  C   UNL     1     -10.832  13.739  68.235  1.00  0.00    -0.250 C  
HETATM   12  C   UNL     1     -10.640  15.206  66.152  1.00  0.00    -0.313 A  
HETATM   13  F   UNL     1     -10.399  13.690  69.527  1.00  0.00    -0.028 F  
HETATM   14  F   UNL     1     -12.177  13.575  68.302  1.00  0.00    -0.382 F  
HETATM   15  N   UNL     1     -11.314  14.201  65.344  1.00  0.00    -0.313 N  
HETATM   16  F   UNL     1     -10.327  12.624  67.643  1.00  0.00    -0.210 F  
HETATM   17  C   UNL     1     -10.191  16.367  65.506  1.00  0.00    -0.296 A  
HETATM   18  C   UNL     1      -9.497  17.341  66.234  1.00  0.00    -0.256 A  
HETATM   19  O   UNL     1     -12.459  13.884  65.676  1.00  0.00    -0.453 OA 
HETATM   20  O   UNL     1     -10.695  13.765  64.365  1.00  0.00    -0.407 OA 
ENDBRANCH   6   8
TORSDOF 1
ENDMDL
MODEL       73
REMARK 921   NORMALIZED FREE ENERGY PREDICTED BY IDOCK:   -4.77 KCAL/MOL
REMARK 922        TOTAL FREE ENERGY PREDICTED BY IDOCK:   -5.36 KCAL/MOL
REMARK 923 INTER-LIGAND FREE ENERGY PREDICTED BY IDOCK:   -5.24 KCAL/MOL
REMARK 924 INTRA-LIGAND FREE ENERGY PREDICTED BY IDOCK:   -0.11 KCAL/MOL
REMARK 927      BINDING AFFINITY PREDICTED BY RF-SCORE:    0.00 PKD
ROOT
HETATM    1  C   UNL     1      -9.870  11.731  63.434  1.00  0.00    -0.407 C  
HETATM    2  C   UNL     1      -9.439  10.315  63.828  1.00  0.00    -0.352 C  
HETATM    3  C   UNL     1      -7.916  10.216  63.806  1.00  0.00    -0.153 C  
HETATM    4  C   UNL     1     -10.003   9.981  65.207  1.00  0.00    -0.298 C  
HETATM    5  O   UNL     1     -10.644  10.812  65.844  1.00  0.00    -0.225 OA 
HETATM    6  N   UNL     1      -9.760   8.679  65.631  1.00  0.00    -0.438 N  
HETATM    7  H   UNL     1      -9.338   8.039  64.958  1.00  0.00     0.000 HD 
ENDROOT
BRANCH   6   8
HETATM    8  C   UNL     1     -10.047   8.170  66.918  1.00  0.00    -0.297 A  
HETATM    9  C   UNL     1      -9.669   8.832  68.094  1.00  0.00    -0.177 A  
HETATM   10  C   UNL     1      -9.929   8.303  69.372  1.00  0.00    -0.188 A  
HETATM   11  C   UNL     1      -9.446   9.044  70.591  1.00  0.00    -0.236 C  
HETATM   12  C   UNL     1     -10.585   7.070  69.437  1.00  0.00    -0.230 A  
HETATM   13  F   UNL     1      -8.718  10.156  70.290  1.00  0.00    -0.191 F  
HETATM   14  F   UNL     1     -10.451   9.479  71.392  1.00  0.00    -0.368 F  
HETATM   15  N   UNL     1     -10.852   6.434  70.719  1.00  0.00    -0.252 N  
HETATM   16  F   UNL     1      -8.631   8.277  71.363  1.00  0.00    -0.118 F  
HETATM   17  C   UNL     1     -10.974   6.383  68.277  1.00  0.00    -0.396 A  
HETATM   18  C   UNL     1     -10.697   6.936  67.020  1.00  0.00    -0.432 A  
HETATM   19  O   UNL     1     -11.544   7.060  71.526  1.00  0.00    -0.261 OA 
HETATM   20  O   UNL     1     -10.388   5.299  70.886  1.00  0.00    -0.227 OA 
ENDBRANCH   6   8
TORSDOF 1
ENDMDL
MODEL       74
REMARK 921   NORMALIZED FREE ENERGY PREDICTED BY IDOCK:   -4.74 KCAL/MOL
REMARK 922        TOTAL FREE ENERGY PREDICTED BY IDOCK:   -5.32 KCAL/MOL
REMARK 923 INTER-LIGAND FREE ENERGY PREDICTED BY IDOCK:   -5.49 KCAL/MOL
REMARK 924 INTRA-LIGAND FREE ENERGY PREDICTED BY IDOCK:    0.17 KCAL/MOL
REMARK 927      BINDING AFFINITY PREDICTED BY RF-SCORE:    0.00 PKD
ROOT
HETATM    1  C   UNL     1      -5.299  15.120  69.185  1.00  0.00    -0.094 C  
HETATM    2  C   UNL     1      -6.804  15.387  69.282  1.00  0.00    -0.157 C  
HETATM    3  C   UNL     1      -7.066  16.889  69.210  1.00  0.00    -0.192 C  
HETATM    4  C   UNL     1      -7.523  14.638  68.162  1.00  0.00    -0.123 C  
HETATM    5  O   UNL     1      -6.893  13.995  67.329  1.00  0.00    -0.214 OA 
HETATM    6  N   UNL     1      -8.910  14.725  68.207  1.00  0.00    -0.172 N  
HETATM    7  H   UNL     1      -9.324  15.171  69.026  1.00  0.00     0.000 HD 
ENDROOT
BRANCH   6   8
HETATM    8  C   UNL     1      -9.793  14.247  67.212  1.00  0.00    -0.244 A  
HETATM    9  C   UNL     1      -9.487  13.150  66.396  1.00  0.00    -0.226 A  
HETATM   10  C   UNL     1     -10.356  12.700  65.384  1.00  0.00    -0.311 A  
HETATM   11  C   UNL     1      -9.939  11.547  64.510  1.00  0.00    -0.263 C  
HETATM   12  C   UNL     1     -11.557  13.395  65.210  1.00  0.00    -0.308 A  
HETATM   13  F   UNL     1      -8.677  11.103  64.772  1.00  0.00    -0.149 F  
HETATM   14  F   UNL     1     -10.735  10.456  64.637  1.00  0.00    -0.350 F  
HETATM   15  N   UNL     1     -12.490  13.021  64.157  1.00  0.00    -0.330 N  
HETATM   16  F   UNL     1      -9.937  11.882  63.192  1.00  0.00    -0.381 F  
HETATM   17  C   UNL     1     -11.888  14.498  66.010  1.00  0.00    -0.339 A  
HETATM   18  C   UNL     1     -11.000  14.923  67.006  1.00  0.00    -0.327 A  
HETATM   19  O   UNL     1     -12.939  11.872  64.184  1.00  0.00    -0.500 OA 
HETATM   20  O   UNL     1     -12.784  13.896  63.334  1.00  0.00    -0.806 OA 
ENDBRANCH   6   8
TORSDOF 1
ENDMDL
MODEL       75
REMARK 921   NORMALIZED FREE ENERGY PREDICTED BY IDOCK:   -4.70 KCAL/MOL
REMARK 922        TOTAL FREE ENERGY PREDICTED BY IDOCK:   -5.28 KCAL/MOL
REMARK 923 INTER-LIGAND FREE ENERGY PREDICTED BY IDOCK:   -5.20 KCAL/MOL
REMARK 924 INTRA-LIGAND FREE ENERGY PREDICTED BY IDOCK:   -0.08 KCAL/MOL
REMARK 927      BINDING AFFINITY PREDICTED BY RF-SCORE:    0.00 PKD
ROOT
HETATM    1  C   UNL     1      -8.913   6.130  70.384  1.00  0.00    -0.151 C  
HETATM    2  C   UNL     1      -9.928   6.559  69.320  1.00  0.00    -0.172 C  
HETATM    3  C   UNL     1     -11.319   6.065  69.707  1.00  0.00    -0.344 C  
HETATM    4  C   UNL     1      -9.894   8.079  69.174  1.00  0.00    -0.178 C  
HETATM    5  O   UNL     1      -9.169   8.764  69.889  1.00  0.00    -0.150 OA 
HETATM    6  N   UNL     1     -10.706   8.581  68.163  1.00  0.00    -0.439 N  
HETATM    7  H   UNL     1     -11.155   7.905  67.545  1.00  0.00     0.000 HD 
ENDROOT
BRANCH   6   8
HETATM    8  C   UNL     1     -10.961   9.950  67.922  1.00  0.00    -0.223 A  
HETATM    9  C   UNL     1     -11.275  10.852  68.948  1.00  0.00    -0.327 A  
HETATM   10  C   UNL     1     -11.562  12.206  68.696  1.00  0.00    -0.372 A  
HETATM   11  C   UNL     1     -11.944  13.106  69.842  1.00  0.00    -0.317 C  
HETATM   12  C   UNL     1     -11.527  12.637  67.366  1.00  0.00    -0.337 A  
HETATM   13  F   UNL     1     -12.039  12.449  71.033  1.00  0.00    -0.428 F  
HETATM   14  F   UNL     1     -11.059  14.112  70.059  1.00  0.00    -0.246 F  
HETATM   15  N   UNL     1     -11.853  14.012  67.018  1.00  0.00    -0.406 N  
HETATM   16  F   UNL     1     -13.159  13.685  69.652  1.00  0.00     0.037 F  
HETATM   17  C   UNL     1     -11.218  11.756  66.319  1.00  0.00    -0.370 A  
HETATM   18  C   UNL     1     -10.941  10.413  66.602  1.00  0.00    -0.067 A  
HETATM   19  O   UNL     1     -11.163  14.901  67.522  1.00  0.00    -0.307 OA 
HETATM   20  O   UNL     1     -12.781  14.179  66.217  1.00  0.00    -0.401 OA 
ENDBRANCH   6   8
TORSDOF 1
ENDMDL
MODEL       76
REMARK 921   NORMALIZED FREE ENERGY PREDICTED BY IDOCK:   -4.67 KCAL/MOL
REMARK 922        TOTAL FREE ENERGY PREDICTED BY IDOCK:   -5.25 KCAL/MOL
REMARK 923 INTER-LIGAND FREE ENERGY PREDICTED BY IDOCK:   -5.20 KCAL/MOL
REMARK 924 INTRA-LIGAND FREE ENERGY PREDICTED BY IDOCK:   -0.05 KCAL/MOL
REMARK 927      BINDING AFFINITY PREDICTED BY RF-SCORE:    0.00 PKD
ROOT
HETATM    1  C   UNL     1     -12.274  13.732  63.760  1.00  0.00    -0.364 C  
HETATM    2  C   UNL     1     -12.173  13.839  65.285  1.00  0.00    -0.461 C  
HETATM    3  C   UNL     1     -11.996  12.448  65.888  1.00  0.00    -0.434 C  
HETATM    4  C   UNL     1     -11.009  14.760  65.650  1.00  0.00    -0.344 C  
HETATM    5  O   UNL     1     -10.292  15.243  64.779  1.00  0.00    -0.314 OA 
HETATM    6  N   UNL     1     -10.879  15.014  67.010  1.00  0.00    -0.306 N  
HETATM    7  H   UNL     1     -11.618  14.669  67.623  1.00  0.00     0.000 HD 
ENDROOT
BRANCH   6   8
HETATM    8  C   UNL     1      -9.807  15.710  67.613  1.00  0.00    -0.227 A  
HETATM    9  C   UNL     1      -9.379  16.969  67.170  1.00  0.00    -0.241 A  
HETATM   10  C   UNL     1      -8.289  17.641  67.753  1.00  0.00    -0.226 A  
HETATM   11  C   UNL     1      -7.851  18.967  67.191  1.00  0.00    -0.246 C  
HETATM   12  C   UNL     1      -7.628  17.003  68.808  1.00  0.00    -0.243 A  
HETATM   13  F   UNL     1      -8.555  19.340  66.084  1.00  0.00    -0.312 F  
HETATM   14  F   UNL     1      -7.987  19.997  68.064  1.00  0.00    -0.328 F  
HETATM   15  N   UNL     1      -6.465  17.612  69.436  1.00  0.00    -0.250 N  
HETATM   16  F   UNL     1      -6.549  18.951  66.800  1.00  0.00    -0.185 F  
HETATM   17  C   UNL     1      -8.032  15.743  69.272  1.00  0.00    -0.239 A  
HETATM   18  C   UNL     1      -9.119  15.098  68.667  1.00  0.00    -0.195 A  
HETATM   19  O   UNL     1      -6.619  18.722  69.953  1.00  0.00    -0.143 OA 
HETATM   20  O   UNL     1      -5.418  16.953  69.430  1.00  0.00    -0.140 OA 
ENDBRANCH   6   8
TORSDOF 1
ENDMDL
MODEL       77
REMARK 921   NORMALIZED FREE ENERGY PREDICTED BY IDOCK:   -4.64 KCAL/MOL
REMARK 922        TOTAL FREE ENERGY PREDICTED BY IDOCK:   -5.22 KCAL/MOL
REMARK 923 INTER-LIGAND FREE ENERGY PREDICTED BY IDOCK:   -5.16 KCAL/MOL
REMARK 924 INTRA-LIGAND FREE ENERGY PREDICTED BY IDOCK:   -0.06 KCAL/MOL
REMARK 927      BINDING AFFINITY PREDICTED BY RF-SCORE:    0.00 PKD
ROOT
HETATM    1  C   UNL     1      -7.610  20.001  65.713  1.00  0.00    -0.284 C  
HETATM    2  C   UNL     1      -8.214  19.336  66.953  1.00  0.00    -0.296 C  
HETATM    3  C   UNL     1      -9.632  19.857  67.178  1.00  0.00    -0.508 C  
HETATM    4  C   UNL     1      -8.198  17.819  66.771  1.00  0.00    -0.250 C  
HETATM    5  O   UNL     1      -7.793  17.315  65.728  1.00  0.00    -0.495 OA 
HETATM    6  N   UNL     1      -8.634  17.100  67.878  1.00  0.00    -0.210 N  
HETATM    7  H   UNL     1      -8.813  17.624  68.735  1.00  0.00     0.000 HD 
ENDROOT
BRANCH   6   8
HETATM    8  C   UNL     1      -8.849  15.704  67.914  1.00  0.00    -0.171 A  
HETATM    9  C   UNL     1     -10.078  15.138  68.279  1.00  0.00    -0.223 A  
HETATM   10  C   UNL     1     -10.275  13.746  68.346  1.00  0.00    -0.248 A  
HETATM   11  C   UNL     1     -11.608  13.209  68.798  1.00  0.00    -0.308 C  
HETATM   12  C   UNL     1      -9.187  12.925  68.034  1.00  0.00    -0.212 A  
HETATM   13  F   UNL     1     -12.481  14.186  69.175  1.00  0.00    -0.359 F  
HETATM   14  F   UNL     1     -12.257  12.499  67.843  1.00  0.00    -0.387 F  
HETATM   15  N   UNL     1      -9.297  11.476  68.120  1.00  0.00    -0.179 N  
HETATM   16  F   UNL     1     -11.488  12.396  69.881  1.00  0.00    -0.323 F  
HETATM   17  C   UNL     1      -7.945  13.463  67.666  1.00  0.00    -0.174 A  
HETATM   18  C   UNL     1      -7.780  14.853  67.613  1.00  0.00    -0.197 A  
HETATM   19  O   UNL     1     -10.152  10.932  67.417  1.00  0.00    -0.182 OA 
HETATM   20  O   UNL     1      -8.500  10.900  68.871  1.00  0.00    -0.153 OA 
ENDBRANCH   6   8
TORSDOF 1
ENDMDL
MODEL       78
REMARK 921   NORMALIZED FREE ENERGY PREDICTED BY IDOCK:   -4.63 KCAL/MOL
REMARK 922        TOTAL FREE ENERGY PREDICTED BY IDOCK:   -5.21 KCAL/MOL
REMARK 923 INTER-LIGAND FREE ENERGY PREDICTED BY IDOCK:   -4.90 KCAL/MOL
REMARK 924 INTRA-LIGAND FREE ENERGY PREDICTED BY IDOCK:   -0.31 KCAL/MOL
REMARK 927      BINDING AFFINITY PREDICTED BY RF-SCORE:    0.00 PKD
ROOT
HETATM    1  C   UNL     1      -6.097   8.565  66.837  1.00  0.00    -0.054 C  
HETATM    2  C   UNL     1      -7.585   8.903  66.977  1.00  0.00    -0.094 C  
HETATM    3  C   UNL     1      -7.965   8.949  68.455  1.00  0.00    -0.104 C  
HETATM    4  C   UNL     1      -7.867  10.236  66.285  1.00  0.00    -0.118 C  
HETATM    5  O   UNL     1      -6.960  10.884  65.773  1.00  0.00    -0.093 OA 
HETATM    6  N   UNL     1      -9.208  10.601  66.261  1.00  0.00    -0.166 N  
HETATM    7  H   UNL     1      -9.886   9.915  66.595  1.00  0.00     0.000 HD 
ENDROOT
BRANCH   6   8
HETATM    8  C   UNL     1      -9.710  11.844  65.813  1.00  0.00    -0.237 A  
HETATM    9  C   UNL     1      -9.912  12.931  66.674  1.00  0.00    -0.251 A  
HETATM   10  C   UNL     1     -10.445  14.155  66.227  1.00  0.00    -0.286 A  
HETATM   11  C   UNL     1     -10.684  15.263  67.218  1.00  0.00    -0.311 C  
HETATM   12  C   UNL     1     -10.776  14.258  64.872  1.00  0.00    -0.432 A  
HETATM   13  F   UNL     1     -10.409  14.902  68.504  1.00  0.00    -0.216 F  
HETATM   14  F   UNL     1      -9.931  16.368  66.989  1.00  0.00    -0.239 F  
HETATM   15  N   UNL     1     -11.372  15.474  64.340  1.00  0.00    -0.320 N  
HETATM   16  F   UNL     1     -11.983  15.666  67.227  1.00  0.00    -0.064 F  
HETATM   17  C   UNL     1     -10.587  13.185  63.988  1.00  0.00    -0.303 A  
HETATM   18  C   UNL     1     -10.058  11.979  64.465  1.00  0.00    -0.293 A  
HETATM   19  O   UNL     1     -10.723  16.517  64.455  1.00  0.00    -0.653 OA 
HETATM   20  O   UNL     1     -12.472  15.361  63.785  1.00  0.00    -0.663 OA 
ENDBRANCH   6   8
TORSDOF 1
ENDMDL
MODEL       79
REMARK 921   NORMALIZED FREE ENERGY PREDICTED BY IDOCK:   -4.62 KCAL/MOL
REMARK 922        TOTAL FREE ENERGY PREDICTED BY IDOCK:   -5.20 KCAL/MOL
REMARK 923 INTER-LIGAND FREE ENERGY PREDICTED BY IDOCK:   -5.01 KCAL/MOL
REMARK 924 INTRA-LIGAND FREE ENERGY PREDICTED BY IDOCK:   -0.19 KCAL/MOL
REMARK 927      BINDING AFFINITY PREDICTED BY RF-SCORE:    0.00 PKD
ROOT
HETATM    1  C   UNL     1      -8.145  20.001  67.078  1.00  0.00    -0.357 C  
HETATM    2  C   UNL     1      -9.527  19.694  67.663  1.00  0.00    -0.438 C  
HETATM    3  C   UNL     1     -10.599  19.930  66.602  1.00  0.00    -0.540 C  
HETATM    4  C   UNL     1      -9.551  18.255  68.174  1.00  0.00    -0.304 C  
HETATM    5  O   UNL     1      -8.577  17.522  68.037  1.00  0.00    -0.236 OA 
HETATM    6  N   UNL     1     -10.728  17.891  68.819  1.00  0.00    -0.304 N  
HETATM    7  H   UNL     1     -11.412  18.627  68.995  1.00  0.00     0.000 HD 
ENDROOT
BRANCH   6   8
HETATM    8  C   UNL     1     -11.054  16.585  69.250  1.00  0.00    -0.260 A  
HETATM    9  C   UNL     1     -11.088  15.488  68.377  1.00  0.00    -0.315 A  
HETATM   10  C   UNL     1     -11.448  14.197  68.807  1.00  0.00    -0.333 A  
HETATM   11  C   UNL     1     -11.514  13.076  67.803  1.00  0.00    -0.316 C  
HETATM   12  C   UNL     1     -11.780  14.035  70.156  1.00  0.00    -0.261 A  
HETATM   13  F   UNL     1     -11.276  13.485  66.524  1.00  0.00    -0.291 F  
HETATM   14  F   UNL     1     -10.615  12.087  68.036  1.00  0.00    -0.189 F  
HETATM   15  N   UNL     1     -12.204  12.741  70.669  1.00  0.00    -0.357 N  
HETATM   16  F   UNL     1     -12.742  12.493  67.772  1.00  0.00     0.278 F  
HETATM   17  C   UNL     1     -11.756  15.114  71.051  1.00  0.00    -0.385 A  
HETATM   18  C   UNL     1     -11.398  16.388  70.591  1.00  0.00    -0.208 A  
HETATM   19  O   UNL     1     -11.412  11.802  70.556  1.00  0.00    -0.057 OA 
HETATM   20  O   UNL     1     -13.316  12.692  71.209  1.00  0.00    -0.134 OA 
ENDBRANCH   6   8
TORSDOF 1
ENDMDL
MODEL       80
REMARK 921   NORMALIZED FREE ENERGY PREDICTED BY IDOCK:   -4.55 KCAL/MOL
REMARK 922        TOTAL FREE ENERGY PREDICTED BY IDOCK:   -5.12 KCAL/MOL
REMARK 923 INTER-LIGAND FREE ENERGY PREDICTED BY IDOCK:   -5.16 KCAL/MOL
REMARK 924 INTRA-LIGAND FREE ENERGY PREDICTED BY IDOCK:    0.04 KCAL/MOL
REMARK 927      BINDING AFFINITY PREDICTED BY RF-SCORE:    0.00 PKD
ROOT
HETATM    1  C   UNL     1      -5.412   9.019  67.805  1.00  0.00    -0.035 C  
HETATM    2  C   UNL     1      -6.777   9.559  68.242  1.00  0.00    -0.058 C  
HETATM    3  C   UNL     1      -6.586  10.670  69.271  1.00  0.00    -0.068 C  
HETATM    4  C   UNL     1      -7.540  10.056  67.016  1.00  0.00    -0.092 C  
HETATM    5  O   UNL     1      -7.025  10.034  65.902  1.00  0.00    -0.100 OA 
HETATM    6  N   UNL     1      -8.838  10.480  67.276  1.00  0.00    -0.136 N  
HETATM    7  H   UNL     1      -9.203  10.321  68.215  1.00  0.00     0.000 HD 
ENDROOT
BRANCH   6   8
HETATM    8  C   UNL     1      -9.693  11.114  66.346  1.00  0.00    -0.204 A  
HETATM    9  C   UNL     1     -10.402  12.285  66.649  1.00  0.00    -0.237 A  
HETATM   10  C   UNL     1     -11.278  12.892  65.731  1.00  0.00    -0.324 A  
HETATM   11  C   UNL     1     -12.047  14.120  66.143  1.00  0.00    -0.435 C  
HETATM   12  C   UNL     1     -11.429  12.280  64.482  1.00  0.00    -0.341 A  
HETATM   13  F   UNL     1     -11.844  14.469  67.445  1.00  0.00    -0.366 F  
HETATM   14  F   UNL     1     -11.730  15.225  65.423  1.00  0.00    -0.296 F  
HETATM   15  N   UNL     1     -12.349  12.821  63.492  1.00  0.00    -0.494 N  
HETATM   16  F   UNL     1     -13.390  13.944  66.023  1.00  0.00    -0.346 F  
HETATM   17  C   UNL     1     -10.735  11.107  64.152  1.00  0.00    -0.415 A  
HETATM   18  C   UNL     1      -9.873  10.525  65.090  1.00  0.00    -0.359 A  
HETATM   19  O   UNL     1     -12.154  13.979  63.113  1.00  0.00    -0.320 OA 
HETATM   20  O   UNL     1     -13.239  12.064  63.085  1.00  0.00    -0.540 OA 
ENDBRANCH   6   8
TORSDOF 1
ENDMDL
MODEL       81
REMARK 921   NORMALIZED FREE ENERGY PREDICTED BY IDOCK:   -4.55 KCAL/MOL
REMARK 922        TOTAL FREE ENERGY PREDICTED BY IDOCK:   -5.12 KCAL/MOL
REMARK 923 INTER-LIGAND FREE ENERGY PREDICTED BY IDOCK:   -4.86 KCAL/MOL
REMARK 924 INTRA-LIGAND FREE ENERGY PREDICTED BY IDOCK:   -0.26 KCAL/MOL
REMARK 927      BINDING AFFINITY PREDICTED BY RF-SCORE:    0.00 PKD
ROOT
HETATM    1  C   UNL     1     -10.332  19.748  68.302  1.00  0.00    -0.536 C  
HETATM    2  C   UNL     1     -10.322  18.848  67.062  1.00  0.00    -0.469 C  
HETATM    3  C   UNL     1      -9.133  19.209  66.174  1.00  0.00    -0.239 C  
HETATM    4  C   UNL     1     -10.270  17.385  67.499  1.00  0.00    -0.332 C  
HETATM    5  O   UNL     1     -10.194  17.086  68.687  1.00  0.00    -0.279 OA 
HETATM    6  N   UNL     1     -10.357  16.468  66.458  1.00  0.00    -0.306 N  
HETATM    7  H   UNL     1     -10.558  16.834  65.527  1.00  0.00     0.000 HD 
ENDROOT
BRANCH   6   8
HETATM    8  C   UNL     1     -10.189  15.070  66.583  1.00  0.00    -0.268 A  
HETATM    9  C   UNL     1      -8.963  14.485  66.930  1.00  0.00    -0.267 A  
HETATM   10  C   UNL     1      -8.794  13.091  67.019  1.00  0.00    -0.213 A  
HETATM   11  C   UNL     1      -7.435  12.530  67.345  1.00  0.00    -0.153 C  
HETATM   12  C   UNL     1      -9.906  12.288  66.743  1.00  0.00    -0.209 A  
HETATM   13  F   UNL     1      -6.470  13.487  67.449  1.00  0.00    -0.164 F  
HETATM   14  F   UNL     1      -7.396  11.854  68.521  1.00  0.00    -0.084 F  
HETATM   15  N   UNL     1      -9.803  10.836  66.771  1.00  0.00    -0.187 N  
HETATM   16  F   UNL     1      -6.993  11.675  66.384  1.00  0.00    -0.105 F  
HETATM   17  C   UNL     1     -11.144  12.845  66.392  1.00  0.00    -0.316 A  
HETATM   18  C   UNL     1     -11.278  14.237  66.308  1.00  0.00    -0.337 A  
HETATM   19  O   UNL     1      -9.453  10.316  67.833  1.00  0.00    -0.141 OA 
HETATM   20  O   UNL     1     -10.105  10.235  65.733  1.00  0.00    -0.254 OA 
ENDBRANCH   6   8
TORSDOF 1
ENDMDL
MODEL       82
REMARK 921   NORMALIZED FREE ENERGY PREDICTED BY IDOCK:   -4.54 KCAL/MOL
REMARK 922        TOTAL FREE ENERGY PREDICTED BY IDOCK:   -5.11 KCAL/MOL
REMARK 923 INTER-LIGAND FREE ENERGY PREDICTED BY IDOCK:   -4.80 KCAL/MOL
REMARK 924 INTRA-LIGAND FREE ENERGY PREDICTED BY IDOCK:   -0.31 KCAL/MOL
REMARK 927      BINDING AFFINITY PREDICTED BY RF-SCORE:    0.00 PKD
ROOT
HETATM    1  C   UNL     1     -11.118   7.904  73.142  1.00  0.00    -0.260 C  
HETATM    2  C   UNL     1     -11.690   7.597  71.753  1.00  0.00    -0.319 C  
HETATM    3  C   UNL     1     -13.046   8.279  71.593  1.00  0.00    -0.354 C  
HETATM    4  C   UNL     1     -10.700   8.062  70.686  1.00  0.00    -0.228 C  
HETATM    5  O   UNL     1      -9.660   8.633  70.998  1.00  0.00    -0.176 OA 
HETATM    6  N   UNL     1     -11.066   7.746  69.383  1.00  0.00    -0.446 N  
HETATM    7  H   UNL     1     -11.883   7.147  69.259  1.00  0.00     0.000 HD 
ENDROOT
BRANCH   6   8
HETATM    8  C   UNL     1     -10.401   8.187  68.217  1.00  0.00    -0.197 A  
HETATM    9  C   UNL     1     -10.701   9.405  67.591  1.00  0.00    -0.295 A  
HETATM   10  C   UNL     1     -10.058   9.822  66.410  1.00  0.00    -0.313 A  
HETATM   11  C   UNL     1     -10.469  11.119  65.764  1.00  0.00    -0.246 C  
HETATM   12  C   UNL     1      -9.095   8.968  65.865  1.00  0.00    -0.212 A  
HETATM   13  F   UNL     1     -11.514  11.726  66.394  1.00  0.00    -0.356 F  
HETATM   14  F   UNL     1      -9.480  12.047  65.737  1.00  0.00    -0.234 F  
HETATM   15  N   UNL     1      -8.416   9.306  64.622  1.00  0.00    -0.168 N  
HETATM   16  F   UNL     1     -10.877  10.941  64.479  1.00  0.00    -0.404 F  
HETATM   17  C   UNL     1      -8.776   7.742  66.467  1.00  0.00    -0.162 A  
HETATM   18  C   UNL     1      -9.436   7.354  67.640  1.00  0.00    -0.156 A  
HETATM   19  O   UNL     1      -7.771  10.357  64.599  1.00  0.00    -0.140 OA 
HETATM   20  O   UNL     1      -8.514   8.494  63.694  1.00  0.00    -0.134 OA 
ENDBRANCH   6   8
TORSDOF 1
ENDMDL
MODEL       83
REMARK 921   NORMALIZED FREE ENERGY PREDICTED BY IDOCK:   -4.51 KCAL/MOL
REMARK 922        TOTAL FREE ENERGY PREDICTED BY IDOCK:   -5.08 KCAL/MOL
REMARK 923 INTER-LIGAND FREE ENERGY PREDICTED BY IDOCK:   -5.16 KCAL/MOL
REMARK 924 INTRA-LIGAND FREE ENERGY PREDICTED BY IDOCK:    0.08 KCAL/MOL
REMARK 927      BINDING AFFINITY PREDICTED BY RF-SCORE:    0.00 PKD
ROOT
HETATM    1  C   UNL     1     -12.947  11.645  63.188  1.00  0.00     0.210 C  
HETATM    2  C   UNL     1     -11.698  11.961  64.017  1.00  0.00    -0.469 C  
HETATM    3  C   UNL     1     -10.452  11.816  63.147  1.00  0.00    -0.359 C  
HETATM    4  C   UNL     1     -11.819  13.371  64.592  1.00  0.00    -0.391 C  
HETATM    5  O   UNL     1     -12.783  14.081  64.324  1.00  0.00    -0.661 OA 
HETATM    6  N   UNL     1     -10.785  13.736  65.448  1.00  0.00    -0.303 N  
HETATM    7  H   UNL     1     -10.113  13.013  65.705  1.00  0.00     0.000 HD 
ENDROOT
BRANCH   6   8
HETATM    8  C   UNL     1     -10.589  15.026  65.990  1.00  0.00    -0.322 A  
HETATM    9  C   UNL     1     -10.194  15.234  67.319  1.00  0.00    -0.248 A  
HETATM   10  C   UNL     1     -10.034  16.522  67.863  1.00  0.00    -0.245 A  
HETATM   11  C   UNL     1      -9.659  16.671  69.314  1.00  0.00    -0.148 C  
HETATM   12  C   UNL     1     -10.288  17.613  67.024  1.00  0.00    -0.330 A  
HETATM   13  F   UNL     1      -9.587  15.481  69.975  1.00  0.00    -0.279 F  
HETATM   14  F   UNL     1      -8.451  17.259  69.504  1.00  0.00     0.012 F  
HETATM   15  N   UNL     1     -10.187  18.976  67.522  1.00  0.00    -0.368 N  
HETATM   16  F   UNL     1     -10.569  17.410  70.002  1.00  0.00    -0.177 F  
HETATM   17  C   UNL     1     -10.686  17.435  65.691  1.00  0.00    -0.113 A  
HETATM   18  C   UNL     1     -10.840  16.139  65.181  1.00  0.00    -0.376 A  
HETATM   19  O   UNL     1      -9.095  19.334  67.971  1.00  0.00    -0.300 OA 
HETATM   20  O   UNL     1     -11.199  19.682  67.427  1.00  0.00    -0.293 OA 
ENDBRANCH   6   8
TORSDOF 1
ENDMDL
MODEL       84
REMARK 921   NORMALIZED FREE ENERGY PREDICTED BY IDOCK:   -4.51 KCAL/MOL
REMARK 922        TOTAL FREE ENERGY PREDICTED BY IDOCK:   -5.08 KCAL/MOL
REMARK 923 INTER-LIGAND FREE ENERGY PREDICTED BY IDOCK:   -5.17 KCAL/MOL
REMARK 924 INTRA-LIGAND FREE ENERGY PREDICTED BY IDOCK:    0.09 KCAL/MOL
REMARK 927      BINDING AFFINITY PREDICTED BY RF-SCORE:    0.00 PKD
ROOT
HETATM    1  C   UNL     1      -5.559  18.127  69.795  1.00  0.00    -0.228 C  
HETATM    2  C   UNL     1      -6.700  18.219  68.777  1.00  0.00    -0.256 C  
HETATM    3  C   UNL     1      -6.133  18.552  67.399  1.00  0.00    -0.177 C  
HETATM    4  C   UNL     1      -7.471  16.901  68.762  1.00  0.00    -0.237 C  
HETATM    5  O   UNL     1      -7.114  15.955  69.458  1.00  0.00    -0.203 OA 
HETATM    6  N   UNL     1      -8.595  16.898  67.944  1.00  0.00    -0.205 N  
HETATM    7  H   UNL     1      -8.869  17.787  67.524  1.00  0.00     0.000 HD 
ENDROOT
BRANCH   6   8
HETATM    8  C   UNL     1      -9.388  15.767  67.647  1.00  0.00    -0.216 A  
HETATM    9  C   UNL     1      -8.866  14.467  67.613  1.00  0.00    -0.193 A  
HETATM   10  C   UNL     1      -9.654  13.349  67.283  1.00  0.00    -0.234 A  
HETATM   11  C   UNL     1      -9.015  11.987  67.215  1.00  0.00    -0.180 C  
HETATM   12  C   UNL     1     -11.001  13.576  66.979  1.00  0.00    -0.288 A  
HETATM   13  F   UNL     1      -7.667  12.016  67.423  1.00  0.00    -0.124 F  
HETATM   14  F   UNL     1      -9.499  11.115  68.134  1.00  0.00    -0.156 F  
HETATM   15  N   UNL     1     -11.872  12.479  66.585  1.00  0.00    -0.386 N  
HETATM   16  F   UNL     1      -9.179  11.407  65.996  1.00  0.00    -0.192 F  
HETATM   17  C   UNL     1     -11.550  14.867  67.002  1.00  0.00    -0.314 A  
HETATM   18  C   UNL     1     -10.737  15.959  67.331  1.00  0.00    -0.313 A  
HETATM   19  O   UNL     1     -12.014  11.554  67.389  1.00  0.00    -0.623 OA 
HETATM   20  O   UNL     1     -12.428  12.575  65.484  1.00  0.00    -0.646 OA 
ENDBRANCH   6   8
TORSDOF 1
ENDMDL
MODEL       85
REMARK 921   NORMALIZED FREE ENERGY PREDICTED BY IDOCK:   -4.50 KCAL/MOL
REMARK 922        TOTAL FREE ENERGY PREDICTED BY IDOCK:   -5.06 KCAL/MOL
REMARK 923 INTER-LIGAND FREE ENERGY PREDICTED BY IDOCK:   -4.78 KCAL/MOL
REMARK 924 INTRA-LIGAND FREE ENERGY PREDICTED BY IDOCK:   -0.28 KCAL/MOL
REMARK 927      BINDING AFFINITY PREDICTED BY RF-SCORE:    0.00 PKD
ROOT
HETATM    1  C   UNL     1      -5.786   9.265  69.174  1.00  0.00    -0.035 C  
HETATM    2  C   UNL     1      -6.792  10.331  69.620  1.00  0.00    -0.094 C  
HETATM    3  C   UNL     1      -6.045  11.560  70.135  1.00  0.00    -0.156 C  
HETATM    4  C   UNL     1      -7.707  10.683  68.448  1.00  0.00    -0.106 C  
HETATM    5  O   UNL     1      -7.541  10.172  67.344  1.00  0.00    -0.094 OA 
HETATM    6  N   UNL     1      -8.729  11.572  68.760  1.00  0.00    -0.338 N  
HETATM    7  H   UNL     1      -8.850  11.820  69.742  1.00  0.00     0.000 HD 
ENDROOT
BRANCH   6   8
HETATM    8  C   UNL     1      -9.613  12.162  67.828  1.00  0.00    -0.195 A  
HETATM    9  C   UNL     1      -9.432  13.461  67.333  1.00  0.00    -0.222 A  
HETATM   10  C   UNL     1     -10.335  14.055  66.432  1.00  0.00    -0.289 A  
HETATM   11  C   UNL     1     -10.106  15.474  65.983  1.00  0.00    -0.332 C  
HETATM   12  C   UNL     1     -11.444  13.299  66.038  1.00  0.00    -0.330 A  
HETATM   13  F   UNL     1      -9.037  16.064  66.591  1.00  0.00    -0.204 F  
HETATM   14  F   UNL     1      -9.869  15.589  64.652  1.00  0.00    -0.116 F  
HETATM   15  N   UNL     1     -12.447  13.856  65.143  1.00  0.00    -0.450 N  
HETATM   16  F   UNL     1     -11.168  16.275  66.265  1.00  0.00    -0.141 F  
HETATM   17  C   UNL     1     -11.652  11.997  66.518  1.00  0.00    -0.384 A  
HETATM   18  C   UNL     1     -10.736  11.436  67.418  1.00  0.00    -0.274 A  
HETATM   19  O   UNL     1     -12.066  14.227  64.030  1.00  0.00    -0.442 OA 
HETATM   20  O   UNL     1     -13.612  13.885  65.559  1.00  0.00    -0.579 OA 
ENDBRANCH   6   8
TORSDOF 1
ENDMDL
MODEL       86
REMARK 921   NORMALIZED FREE ENERGY PREDICTED BY IDOCK:   -4.49 KCAL/MOL
REMARK 922        TOTAL FREE ENERGY PREDICTED BY IDOCK:   -5.06 KCAL/MOL
REMARK 923 INTER-LIGAND FREE ENERGY PREDICTED BY IDOCK:   -4.74 KCAL/MOL
REMARK 924 INTRA-LIGAND FREE ENERGY PREDICTED BY IDOCK:   -0.31 KCAL/MOL
REMARK 927      BINDING AFFINITY PREDICTED BY RF-SCORE:    0.00 PKD
ROOT
HETATM    1  C   UNL     1     -11.271  11.862  66.226  1.00  0.00    -0.392 C  
HETATM    2  C   UNL     1     -10.591  11.999  67.592  1.00  0.00    -0.239 C  
HETATM    3  C   UNL     1     -11.468  12.833  68.522  1.00  0.00    -0.344 C  
HETATM    4  C   UNL     1     -10.328  10.609  68.167  1.00  0.00    -0.176 C  
HETATM    5  O   UNL     1     -10.696   9.601  67.571  1.00  0.00    -0.274 OA 
HETATM    6  N   UNL     1      -9.622  10.603  69.364  1.00  0.00    -0.392 N  
HETATM    7  H   UNL     1      -9.249  11.494  69.691  1.00  0.00     0.000 HD 
ENDROOT
BRANCH   6   8
HETATM    8  C   UNL     1      -9.381   9.465  70.166  1.00  0.00    -0.241 A  
HETATM    9  C   UNL     1     -10.319   8.975  71.085  1.00  0.00    -0.362 A  
HETATM   10  C   UNL     1     -10.058   7.862  71.905  1.00  0.00    -0.250 A  
HETATM   11  C   UNL     1     -11.092   7.424  72.908  1.00  0.00    -0.349 C  
HETATM   12  C   UNL     1      -8.809   7.245  71.778  1.00  0.00    -0.116 A  
HETATM   13  F   UNL     1     -12.181   8.244  72.951  1.00  0.00    -0.423 F  
HETATM   14  F   UNL     1     -11.589   6.184  72.668  1.00  0.00    -0.299 F  
HETATM   15  N   UNL     1      -8.445   6.115  72.619  1.00  0.00    -0.121 N  
HETATM   16  F   UNL     1     -10.600   7.412  74.176  1.00  0.00    -0.342 F  
HETATM   17  C   UNL     1      -7.850   7.714  70.868  1.00  0.00    -0.090 A  
HETATM   18  C   UNL     1      -8.139   8.827  70.069  1.00  0.00    -0.111 A  
HETATM   19  O   UNL     1      -9.159   5.111  72.555  1.00  0.00    -0.132 OA 
HETATM   20  O   UNL     1      -7.428   6.240  73.312  1.00  0.00    -0.091 OA 
ENDBRANCH   6   8
TORSDOF 1
ENDMDL
MODEL       87
REMARK 921   NORMALIZED FREE ENERGY PREDICTED BY IDOCK:   -4.46 KCAL/MOL
REMARK 922        TOTAL FREE ENERGY PREDICTED BY IDOCK:   -5.03 KCAL/MOL
REMARK 923 INTER-LIGAND FREE ENERGY PREDICTED BY IDOCK:   -5.07 KCAL/MOL
REMARK 924 INTRA-LIGAND FREE ENERGY PREDICTED BY IDOCK:    0.05 KCAL/MOL
REMARK 927      BINDING AFFINITY PREDICTED BY RF-SCORE:    0.00 PKD
ROOT
HETATM    1  C   UNL     1     -11.996  12.138  69.527  1.00  0.00    -0.338 C  
HETATM    2  C   UNL     1     -10.959  12.397  68.429  1.00  0.00    -0.272 C  
HETATM    3  C   UNL     1     -11.485  11.877  67.093  1.00  0.00    -0.386 C  
HETATM    4  C   UNL     1     -10.651  13.891  68.366  1.00  0.00    -0.255 C  
HETATM    5  O   UNL     1     -11.241  14.687  69.092  1.00  0.00    -0.245 OA 
HETATM    6  N   UNL     1      -9.647  14.237  67.470  1.00  0.00    -0.212 N  
HETATM    7  H   UNL     1      -9.134  13.475  67.025  1.00  0.00     0.000 HD 
ENDROOT
BRANCH   6   8
HETATM    8  C   UNL     1      -9.278  15.557  67.122  1.00  0.00    -0.214 A  
HETATM    9  C   UNL     1      -7.942  15.963  67.011  1.00  0.00    -0.270 A  
HETATM   10  C   UNL     1      -7.581  17.287  66.699  1.00  0.00    -0.293 A  
HETATM   11  C   UNL     1      -6.124  17.664  66.648  1.00  0.00    -0.186 C  
HETATM   12  C   UNL     1      -8.616  18.207  66.501  1.00  0.00    -0.263 A  
HETATM   13  F   UNL     1      -5.292  16.643  66.998  1.00  0.00    -0.146 F  
HETATM   14  F   UNL     1      -5.709  18.057  65.417  1.00  0.00    -0.198 F  
HETATM   15  N   UNL     1      -8.327  19.605  66.217  1.00  0.00    -0.345 N  
HETATM   16  F   UNL     1      -5.831  18.678  67.505  1.00  0.00    -0.164 F  
HETATM   17  C   UNL     1      -9.963  17.830  66.608  1.00  0.00    -0.338 A  
HETATM   18  C   UNL     1     -10.288  16.504  66.924  1.00  0.00    -0.300 A  
HETATM   19  O   UNL     1      -7.661  19.850  65.208  1.00  0.00    -0.315 OA 
HETATM   20  O   UNL     1      -8.800  20.442  66.996  1.00  0.00    -0.334 OA 
ENDBRANCH   6   8
TORSDOF 1
ENDMDL
MODEL       88
REMARK 921   NORMALIZED FREE ENERGY PREDICTED BY IDOCK:   -4.44 KCAL/MOL
REMARK 922        TOTAL FREE ENERGY PREDICTED BY IDOCK:   -5.00 KCAL/MOL
REMARK 923 INTER-LIGAND FREE ENERGY PREDICTED BY IDOCK:   -5.01 KCAL/MOL
REMARK 924 INTRA-LIGAND FREE ENERGY PREDICTED BY IDOCK:    0.01 KCAL/MOL
REMARK 927      BINDING AFFINITY PREDICTED BY RF-SCORE:    0.00 PKD
ROOT
HETATM    1  C   UNL     1     -12.163  13.926  66.861  1.00  0.00    -0.415 C  
HETATM    2  C   UNL     1     -11.208  12.800  66.451  1.00  0.00    -0.339 C  
HETATM    3  C   UNL     1      -9.765  13.285  66.563  1.00  0.00    -0.273 C  
HETATM    4  C   UNL     1     -11.459  11.579  67.333  1.00  0.00    -0.274 C  
HETATM    5  O   UNL     1     -12.285  11.617  68.241  1.00  0.00    -0.525 OA 
HETATM    6  N   UNL     1     -10.716  10.456  66.990  1.00  0.00    -0.256 N  
HETATM    7  H   UNL     1     -10.167  10.503  66.131  1.00  0.00     0.000 HD 
ENDROOT
BRANCH   6   8
HETATM    8  C   UNL     1     -10.658   9.254  67.731  1.00  0.00    -0.246 A  
HETATM    9  C   UNL     1     -10.659   9.231  69.133  1.00  0.00    -0.228 A  
HETATM   10  C   UNL     1     -10.566   8.033  69.865  1.00  0.00    -0.242 A  
HETATM   11  C   UNL     1     -10.519   8.087  71.369  1.00  0.00    -0.215 C  
HETATM   12  C   UNL     1     -10.469   6.840  69.141  1.00  0.00    -0.216 A  
HETATM   13  F   UNL     1     -10.499   9.359  71.860  1.00  0.00    -0.409 F  
HETATM   14  F   UNL     1     -11.581   7.491  71.966  1.00  0.00    -0.263 F  
HETATM   15  N   UNL     1     -10.326   5.563  69.823  1.00  0.00    -0.270 N  
HETATM   16  F   UNL     1      -9.402   7.492  71.866  1.00  0.00    -0.148 F  
HETATM   17  C   UNL     1     -10.464   6.833  67.738  1.00  0.00    -0.274 A  
HETATM   18  C   UNL     1     -10.553   8.043  67.039  1.00  0.00    -0.364 A  
HETATM   19  O   UNL     1     -11.224   5.236  70.603  1.00  0.00     0.057 OA 
HETATM   20  O   UNL     1      -9.328   4.888  69.542  1.00  0.00    -0.110 OA 
ENDBRANCH   6   8
TORSDOF 1
ENDMDL
MODEL       89
REMARK 921   NORMALIZED FREE ENERGY PREDICTED BY IDOCK:   -4.43 KCAL/MOL
REMARK 922        TOTAL FREE ENERGY PREDICTED BY IDOCK:   -5.00 KCAL/MOL
REMARK 923 INTER-LIGAND FREE ENERGY PREDICTED BY IDOCK:   -4.69 KCAL/MOL
REMARK 924 INTRA-LIGAND FREE ENERGY PREDICTED BY IDOCK:   -0.31 KCAL/MOL
REMARK 927      BINDING AFFINITY PREDICTED BY RF-SCORE:    0.00 PKD
ROOT
HETATM    1  C   UNL     1      -7.990  15.769  66.838  1.00  0.00    -0.285 C  
HETATM    2  C   UNL     1      -9.334  15.034  66.849  1.00  0.00    -0.258 C  
HETATM    3  C   UNL     1     -10.048  15.246  65.516  1.00  0.00    -0.408 C  
HETATM    4  C   UNL     1      -9.096  13.551  67.127  1.00  0.00    -0.232 C  
HETATM    5  O   UNL     1      -7.958  13.108  67.252  1.00  0.00    -0.173 OA 
HETATM    6  N   UNL     1     -10.254  12.794  67.259  1.00  0.00    -0.231 N  
HETATM    7  H   UNL     1     -11.142  13.297  67.275  1.00  0.00     0.000 HD 
ENDROOT
BRANCH   6   8
HETATM    8  C   UNL     1     -10.304  11.387  67.374  1.00  0.00    -0.202 A  
HETATM    9  C   UNL     1     -10.375  10.732  68.611  1.00  0.00    -0.208 A  
HETATM   10  C   UNL     1     -10.389   9.329  68.719  1.00  0.00    -0.231 A  
HETATM   11  C   UNL     1     -10.412   8.692  70.084  1.00  0.00    -0.217 C  
HETATM   12  C   UNL     1     -10.328   8.590  67.533  1.00  0.00    -0.267 A  
HETATM   13  F   UNL     1     -10.340   9.599  71.100  1.00  0.00    -0.359 F  
HETATM   14  F   UNL     1     -11.536   7.972  70.327  1.00  0.00    -0.268 F  
HETATM   15  N   UNL     1     -10.295   7.135  67.561  1.00  0.00    -0.211 N  
HETATM   16  F   UNL     1      -9.358   7.854  70.273  1.00  0.00    -0.156 F  
HETATM   17  C   UNL     1     -10.255   9.218  66.281  1.00  0.00    -0.273 A  
HETATM   18  C   UNL     1     -10.238  10.617  66.208  1.00  0.00    -0.304 A  
HETATM   19  O   UNL     1     -11.247   6.559  68.093  1.00  0.00    -0.275 OA 
HETATM   20  O   UNL     1      -9.326   6.588  67.020  1.00  0.00    -0.131 OA 
ENDBRANCH   6   8
TORSDOF 1
ENDMDL
MODEL       90
REMARK 921   NORMALIZED FREE ENERGY PREDICTED BY IDOCK:   -4.42 KCAL/MOL
REMARK 922        TOTAL FREE ENERGY PREDICTED BY IDOCK:   -4.98 KCAL/MOL
REMARK 923 INTER-LIGAND FREE ENERGY PREDICTED BY IDOCK:   -4.67 KCAL/MOL
REMARK 924 INTRA-LIGAND FREE ENERGY PREDICTED BY IDOCK:   -0.31 KCAL/MOL
REMARK 927      BINDING AFFINITY PREDICTED BY RF-SCORE:    0.00 PKD
ROOT
HETATM    1  C   UNL     1      -9.713   5.338  70.216  1.00  0.00    -0.261 C  
HETATM    2  C   UNL     1     -10.822   6.165  69.556  1.00  0.00    -0.428 C  
HETATM    3  C   UNL     1     -11.824   6.619  70.615  1.00  0.00    -0.443 C  
HETATM    4  C   UNL     1     -10.199   7.354  68.828  1.00  0.00    -0.191 C  
HETATM    5  O   UNL     1      -8.989   7.557  68.873  1.00  0.00    -0.135 OA 
HETATM    6  N   UNL     1     -11.101   8.125  68.105  1.00  0.00    -0.343 N  
HETATM    7  H   UNL     1     -12.058   7.778  68.028  1.00  0.00     0.000 HD 
ENDROOT
BRANCH   6   8
HETATM    8  C   UNL     1     -10.804   9.352  67.468  1.00  0.00    -0.138 A  
HETATM    9  C   UNL     1     -10.342   9.423  66.146  1.00  0.00    -0.162 A  
HETATM   10  C   UNL     1     -10.015  10.645  65.529  1.00  0.00    -0.333 A  
HETATM   11  C   UNL     1      -9.475  10.642  64.124  1.00  0.00    -0.281 C  
HETATM   12  C   UNL     1     -10.163  11.810  66.288  1.00  0.00    -0.221 A  
HETATM   13  F   UNL     1      -9.292   9.388  63.621  1.00  0.00    -0.253 F  
HETATM   14  F   UNL     1     -10.281  11.271  63.232  1.00  0.00    -0.313 F  
HETATM   15  N   UNL     1      -9.805  13.110  65.738  1.00  0.00    -0.244 N  
HETATM   16  F   UNL     1      -8.257  11.243  64.045  1.00  0.00     0.161 F  
HETATM   17  C   UNL     1     -10.621  11.769  67.613  1.00  0.00    -0.237 A  
HETATM   18  C   UNL     1     -10.934  10.536  68.200  1.00  0.00    -0.330 A  
HETATM   19  O   UNL     1     -10.396  13.473  64.718  1.00  0.00    -0.388 OA 
HETATM   20  O   UNL     1      -8.956  13.763  66.357  1.00  0.00    -0.132 OA 
ENDBRANCH   6   8
TORSDOF 1
ENDMDL
MODEL       91
REMARK 921   NORMALIZED FREE ENERGY PREDICTED BY IDOCK:   -4.40 KCAL/MOL
REMARK 922        TOTAL FREE ENERGY PREDICTED BY IDOCK:   -4.96 KCAL/MOL
REMARK 923 INTER-LIGAND FREE ENERGY PREDICTED BY IDOCK:   -5.07 KCAL/MOL
REMARK 924 INTRA-LIGAND FREE ENERGY PREDICTED BY IDOCK:    0.11 KCAL/MOL
REMARK 927      BINDING AFFINITY PREDICTED BY RF-SCORE:    0.00 PKD
ROOT
HETATM    1  C   UNL     1     -11.024  15.164  64.498  1.00  0.00    -0.208 C  
HETATM    2  C   UNL     1     -10.370  15.803  65.728  1.00  0.00    -0.390 C  
HETATM    3  C   UNL     1     -10.424  17.324  65.606  1.00  0.00    -0.191 C  
HETATM    4  C   UNL     1     -11.082  15.316  66.988  1.00  0.00    -0.305 C  
HETATM    5  O   UNL     1     -12.055  14.571  66.915  1.00  0.00    -0.399 OA 
HETATM    6  N   UNL     1     -10.512  15.753  68.178  1.00  0.00    -0.256 N  
HETATM    7  H   UNL     1      -9.624  16.253  68.116  1.00  0.00     0.000 HD 
ENDROOT
BRANCH   6   8
HETATM    8  C   UNL     1     -11.061  15.563  69.467  1.00  0.00    -0.286 A  
HETATM    9  C   UNL     1     -11.756  14.401  69.828  1.00  0.00    -0.361 A  
HETATM   10  C   UNL     1     -12.330  14.233  71.102  1.00  0.00    -0.440 A  
HETATM   11  C   UNL     1     -13.109  12.980  71.403  1.00  0.00    -0.248 C  
HETATM   12  C   UNL     1     -12.187  15.281  72.017  1.00  0.00    -0.367 A  
HETATM   13  F   UNL     1     -13.230  12.151  70.327  1.00  0.00     0.209 F  
HETATM   14  F   UNL     1     -12.554  12.219  72.379  1.00  0.00    -0.131 F  
HETATM   15  N   UNL     1     -12.787  15.204  73.340  1.00  0.00    -0.506 N  
HETATM   16  F   UNL     1     -14.383  13.253  71.792  1.00  0.00    -0.228 F  
HETATM   17  C   UNL     1     -11.498  16.457  71.683  1.00  0.00    -0.230 A  
HETATM   18  C   UNL     1     -10.942  16.595  70.405  1.00  0.00    -0.014 A  
HETATM   19  O   UNL     1     -12.436  14.270  74.066  1.00  0.00    -0.134 OA 
HETATM   20  O   UNL     1     -13.583  16.101  73.646  1.00  0.00    -0.584 OA 
ENDBRANCH   6   8
TORSDOF 1
ENDMDL
MODEL       92
REMARK 921   NORMALIZED FREE ENERGY PREDICTED BY IDOCK:   -4.36 KCAL/MOL
REMARK 922        TOTAL FREE ENERGY PREDICTED BY IDOCK:   -4.92 KCAL/MOL
REMARK 923 INTER-LIGAND FREE ENERGY PREDICTED BY IDOCK:   -4.60 KCAL/MOL
REMARK 924 INTRA-LIGAND FREE ENERGY PREDICTED BY IDOCK:   -0.31 KCAL/MOL
REMARK 927      BINDING AFFINITY PREDICTED BY RF-SCORE:    0.00 PKD
ROOT
HETATM    1  C   UNL     1      -6.614  11.002  67.973  1.00  0.00    -0.062 C  
HETATM    2  C   UNL     1      -7.018  11.993  69.069  1.00  0.00    -0.094 C  
HETATM    3  C   UNL     1      -5.851  12.200  70.031  1.00  0.00    -0.152 C  
HETATM    4  C   UNL     1      -7.454  13.308  68.426  1.00  0.00    -0.124 C  
HETATM    5  O   UNL     1      -7.397  13.463  67.210  1.00  0.00    -0.139 OA 
HETATM    6  N   UNL     1      -7.938  14.256  69.320  1.00  0.00    -0.349 N  
HETATM    7  H   UNL     1      -8.068  13.962  70.288  1.00  0.00     0.000 HD 
ENDROOT
BRANCH   6   8
HETATM    8  C   UNL     1      -8.266  15.593  68.998  1.00  0.00    -0.233 A  
HETATM    9  C   UNL     1      -7.327  16.632  69.044  1.00  0.00    -0.228 A  
HETATM   10  C   UNL     1      -7.668  17.967  68.756  1.00  0.00    -0.263 A  
HETATM   11  C   UNL     1      -6.619  19.040  68.877  1.00  0.00    -0.277 C  
HETATM   12  C   UNL     1      -8.998  18.234  68.418  1.00  0.00    -0.309 A  
HETATM   13  F   UNL     1      -5.425  18.575  69.344  1.00  0.00    -0.190 F  
HETATM   14  F   UNL     1      -6.329  19.650  67.700  1.00  0.00    -0.210 F  
HETATM   15  N   UNL     1      -9.441  19.593  68.148  1.00  0.00    -0.347 N  
HETATM   16  F   UNL     1      -6.989  20.018  69.747  1.00  0.00    -0.365 F  
HETATM   17  C   UNL     1      -9.960  17.214  68.365  1.00  0.00    -0.310 A  
HETATM   18  C   UNL     1      -9.589  15.896  68.662  1.00  0.00    -0.209 A  
HETATM   19  O   UNL     1      -8.887  20.194  67.224  1.00  0.00    -0.330 OA 
HETATM   20  O   UNL     1     -10.363  20.030  68.849  1.00  0.00    -0.411 OA 
ENDBRANCH   6   8
TORSDOF 1
ENDMDL
MODEL       93
REMARK 921   NORMALIZED FREE ENERGY PREDICTED BY IDOCK:   -4.33 KCAL/MOL
REMARK 922        TOTAL FREE ENERGY PREDICTED BY IDOCK:   -4.89 KCAL/MOL
REMARK 923 INTER-LIGAND FREE ENERGY PREDICTED BY IDOCK:   -4.60 KCAL/MOL
REMARK 924 INTRA-LIGAND FREE ENERGY PREDICTED BY IDOCK:   -0.29 KCAL/MOL
REMARK 927      BINDING AFFINITY PREDICTED BY RF-SCORE:    0.00 PKD
ROOT
HETATM    1  C   UNL     1     -12.570  13.468  64.745  1.00  0.00    -0.351 C  
HETATM    2  C   UNL     1     -11.189  12.821  64.888  1.00  0.00    -0.331 C  
HETATM    3  C   UNL     1     -10.114  13.904  64.922  1.00  0.00    -0.294 C  
HETATM    4  C   UNL     1     -11.161  11.965  66.153  1.00  0.00    -0.326 C  
HETATM    5  O   UNL     1     -12.132  11.916  66.902  1.00  0.00    -0.599 OA 
HETATM    6  N   UNL     1      -9.986  11.246  66.338  1.00  0.00    -0.208 N  
HETATM    7  H   UNL     1      -9.305  11.258  65.577  1.00  0.00     0.000 HD 
ENDROOT
BRANCH   6   8
HETATM    8  C   UNL     1      -9.655  10.499  67.492  1.00  0.00    -0.160 A  
HETATM    9  C   UNL     1     -10.173   9.220  67.737  1.00  0.00    -0.271 A  
HETATM   10  C   UNL     1      -9.867   8.497  68.905  1.00  0.00    -0.181 A  
HETATM   11  C   UNL     1     -10.502   7.149  69.127  1.00  0.00    -0.211 C  
HETATM   12  C   UNL     1      -9.017   9.103  69.835  1.00  0.00    -0.174 A  
HETATM   13  F   UNL     1     -11.395   6.809  68.155  1.00  0.00    -0.254 F  
HETATM   14  F   UNL     1      -9.608   6.129  69.164  1.00  0.00    -0.132 F  
HETATM   15  N   UNL     1      -8.686   8.439  71.087  1.00  0.00    -0.145 N  
HETATM   16  F   UNL     1     -11.201   7.102  70.292  1.00  0.00    -0.268 F  
HETATM   17  C   UNL     1      -8.485  10.383  69.617  1.00  0.00    -0.068 A  
HETATM   18  C   UNL     1      -8.813  11.079  68.446  1.00  0.00    -0.151 A  
HETATM   19  O   UNL     1      -8.132   7.340  71.014  1.00  0.00    -0.101 OA 
HETATM   20  O   UNL     1      -8.960   9.047  72.130  1.00  0.00    -0.378 OA 
ENDBRANCH   6   8
TORSDOF 1
ENDMDL
MODEL       94
REMARK 921   NORMALIZED FREE ENERGY PREDICTED BY IDOCK:   -4.29 KCAL/MOL
REMARK 922        TOTAL FREE ENERGY PREDICTED BY IDOCK:   -4.84 KCAL/MOL
REMARK 923 INTER-LIGAND FREE ENERGY PREDICTED BY IDOCK:   -4.53 KCAL/MOL
REMARK 924 INTRA-LIGAND FREE ENERGY PREDICTED BY IDOCK:   -0.31 KCAL/MOL
REMARK 927      BINDING AFFINITY PREDICTED BY RF-SCORE:    0.00 PKD
ROOT
HETATM    1  C   UNL     1     -10.155   6.633  71.629  1.00  0.00    -0.201 C  
HETATM    2  C   UNL     1     -10.046   7.074  70.166  1.00  0.00    -0.197 C  
HETATM    3  C   UNL     1     -11.112   6.366  69.334  1.00  0.00    -0.450 C  
HETATM    4  C   UNL     1     -10.188   8.593  70.084  1.00  0.00    -0.192 C  
HETATM    5  O   UNL     1     -10.411   9.259  71.090  1.00  0.00    -0.282 OA 
HETATM    6  N   UNL     1     -10.006   9.122  68.812  1.00  0.00    -0.171 N  
HETATM    7  H   UNL     1      -9.688   8.484  68.081  1.00  0.00     0.000 HD 
ENDROOT
BRANCH   6   8
HETATM    8  C   UNL     1     -10.227  10.469  68.447  1.00  0.00    -0.172 A  
HETATM    9  C   UNL     1      -9.227  11.448  68.532  1.00  0.00    -0.174 A  
HETATM   10  C   UNL     1      -9.463  12.795  68.200  1.00  0.00    -0.219 A  
HETATM   11  C   UNL     1      -8.356  13.802  68.366  1.00  0.00    -0.152 C  
HETATM   12  C   UNL     1     -10.750  13.138  67.775  1.00  0.00    -0.240 A  
HETATM   13  F   UNL     1      -7.225  13.272  68.914  1.00  0.00    -0.099 F  
HETATM   14  F   UNL     1      -7.957  14.366  67.199  1.00  0.00    -0.193 F  
HETATM   15  N   UNL     1     -11.087  14.517  67.454  1.00  0.00    -0.303 N  
HETATM   16  F   UNL     1      -8.714  14.820  69.193  1.00  0.00    -0.172 F  
HETATM   17  C   UNL     1     -11.771  12.180  67.681  1.00  0.00    -0.386 A  
HETATM   18  C   UNL     1     -11.505  10.849  68.024  1.00  0.00    -0.356 A  
HETATM   19  O   UNL     1     -10.441  15.061  66.555  1.00  0.00    -0.273 OA 
HETATM   20  O   UNL     1     -12.019  15.027  68.089  1.00  0.00    -0.299 OA 
ENDBRANCH   6   8
TORSDOF 1
ENDMDL
MODEL       95
REMARK 921   NORMALIZED FREE ENERGY PREDICTED BY IDOCK:   -4.26 KCAL/MOL
REMARK 922        TOTAL FREE ENERGY PREDICTED BY IDOCK:   -4.82 KCAL/MOL
REMARK 923 INTER-LIGAND FREE ENERGY PREDICTED BY IDOCK:   -4.54 KCAL/MOL
REMARK 924 INTRA-LIGAND FREE ENERGY PREDICTED BY IDOCK:   -0.28 KCAL/MOL
REMARK 927      BINDING AFFINITY PREDICTED BY RF-SCORE:    0.00 PKD
ROOT
HETATM    1  C   UNL     1      -9.045   9.596  67.333  1.00  0.00    -0.144 C  
HETATM    2  C   UNL     1      -8.726  10.698  68.349  1.00  0.00    -0.141 C  
HETATM    3  C   UNL     1      -7.362  10.436  68.981  1.00  0.00    -0.097 C  
HETATM    4  C   UNL     1      -8.768  12.056  67.650  1.00  0.00    -0.166 C  
HETATM    5  O   UNL     1      -8.979  12.137  66.444  1.00  0.00    -0.200 OA 
HETATM    6  N   UNL     1      -8.591  13.146  68.495  1.00  0.00    -0.334 N  
HETATM    7  H   UNL     1      -8.565  12.961  69.498  1.00  0.00     0.000 HD 
ENDROOT
BRANCH   6   8
HETATM    8  C   UNL     1      -8.445  14.489  68.079  1.00  0.00    -0.161 A  
HETATM    9  C   UNL     1      -9.479  15.429  68.185  1.00  0.00    -0.202 A  
HETATM   10  C   UNL     1      -9.338  16.755  67.737  1.00  0.00    -0.233 A  
HETATM   11  C   UNL     1     -10.509  17.697  67.833  1.00  0.00    -0.392 C  
HETATM   12  C   UNL     1      -8.112  17.117  67.169  1.00  0.00    -0.191 A  
HETATM   13  F   UNL     1     -11.642  17.099  68.299  1.00  0.00    -0.129 F  
HETATM   14  F   UNL     1     -10.292  18.748  68.663  1.00  0.00    -0.391 F  
HETATM   15  N   UNL     1      -7.900  18.457  66.643  1.00  0.00    -0.239 N  
HETATM   16  F   UNL     1     -10.847  18.214  66.622  1.00  0.00    -0.339 F  
HETATM   17  C   UNL     1      -7.060  16.197  67.049  1.00  0.00    -0.248 A  
HETATM   18  C   UNL     1      -7.234  14.883  67.501  1.00  0.00    -0.227 A  
HETATM   19  O   UNL     1      -8.029  19.399  67.429  1.00  0.00    -0.259 OA 
HETATM   20  O   UNL     1      -7.575  18.545  65.452  1.00  0.00    -0.444 OA 
ENDBRANCH   6   8
TORSDOF 1
ENDMDL
MODEL       96
REMARK 921   NORMALIZED FREE ENERGY PREDICTED BY IDOCK:   -4.24 KCAL/MOL
REMARK 922        TOTAL FREE ENERGY PREDICTED BY IDOCK:   -4.80 KCAL/MOL
REMARK 923 INTER-LIGAND FREE ENERGY PREDICTED BY IDOCK:   -4.52 KCAL/MOL
REMARK 924 INTRA-LIGAND FREE ENERGY PREDICTED BY IDOCK:   -0.28 KCAL/MOL
REMARK 927      BINDING AFFINITY PREDICTED BY RF-SCORE:    0.00 PKD
ROOT
HETATM    1  C   UNL     1     -12.810  10.425  71.649  1.00  0.00    -0.579 C  
HETATM    2  C   UNL     1     -11.622  10.485  70.683  1.00  0.00    -0.445 C  
HETATM    3  C   UNL     1     -11.796   9.436  69.587  1.00  0.00     0.397 C  
HETATM    4  C   UNL     1     -11.518  11.892  70.098  1.00  0.00    -0.049 C  
HETATM    5  O   UNL     1     -12.344  12.755  70.381  1.00  0.00    -0.318 OA 
HETATM    6  N   UNL     1     -10.413  12.097  69.279  1.00  0.00    -0.430 N  
HETATM    7  H   UNL     1      -9.722  11.348  69.230  1.00  0.00     0.000 HD 
ENDROOT
BRANCH   6   8
HETATM    8  C   UNL     1     -10.169  13.256  68.508  1.00  0.00    -0.220 A  
HETATM    9  C   UNL     1      -9.225  14.224  68.878  1.00  0.00    -0.044 A  
HETATM   10  C   UNL     1      -9.011  15.393  68.125  1.00  0.00    -0.176 A  
HETATM   11  C   UNL     1      -8.018  16.415  68.611  1.00  0.00    -0.220 C  
HETATM   12  C   UNL     1      -9.786  15.568  66.973  1.00  0.00    -0.224 A  
HETATM   13  F   UNL     1      -7.471  16.100  69.820  1.00  0.00    -0.209 F  
HETATM   14  F   UNL     1      -6.963  16.584  67.775  1.00  0.00    -0.127 F  
HETATM   15  N   UNL     1      -9.656  16.770  66.162  1.00  0.00    -0.285 N  
HETATM   16  F   UNL     1      -8.587  17.638  68.780  1.00  0.00    -0.273 F  
HETATM   17  C   UNL     1     -10.739  14.617  66.579  1.00  0.00    -0.312 A  
HETATM   18  C   UNL     1     -10.931  13.466  67.354  1.00  0.00    -0.287 A  
HETATM   19  O   UNL     1      -8.545  17.009  65.681  1.00  0.00    -0.456 OA 
HETATM   20  O   UNL     1     -10.681  17.442  65.994  1.00  0.00    -0.263 OA 
ENDBRANCH   6   8
TORSDOF 1
ENDMDL
MODEL       97
REMARK 921   NORMALIZED FREE ENERGY PREDICTED BY IDOCK:   -4.22 KCAL/MOL
REMARK 922        TOTAL FREE ENERGY PREDICTED BY IDOCK:   -4.77 KCAL/MOL
REMARK 923 INTER-LIGAND FREE ENERGY PREDICTED BY IDOCK:   -4.50 KCAL/MOL
REMARK 924 INTRA-LIGAND FREE ENERGY PREDICTED BY IDOCK:   -0.27 KCAL/MOL
REMARK 927      BINDING AFFINITY PREDICTED BY RF-SCORE:    0.00 PKD
ROOT
HETATM    1  C   UNL     1      -7.496   4.185  64.217  1.00  0.00    -0.071 C  
HETATM    2  C   UNL     1      -8.851   4.868  64.432  1.00  0.00    -0.119 C  
HETATM    3  C   UNL     1      -9.957   3.816  64.464  1.00  0.00    -0.201 C  
HETATM    4  C   UNL     1      -8.810   5.677  65.727  1.00  0.00    -0.153 C  
HETATM    5  O   UNL     1      -7.813   5.669  66.442  1.00  0.00    -0.098 OA 
HETATM    6  N   UNL     1      -9.955   6.423  65.978  1.00  0.00    -0.391 N  
HETATM    7  H   UNL     1     -10.661   6.459  65.242  1.00  0.00     0.000 HD 
ENDROOT
BRANCH   6   8
HETATM    8  C   UNL     1     -10.223   7.135  67.169  1.00  0.00    -0.257 A  
HETATM    9  C   UNL     1     -10.446   6.497  68.397  1.00  0.00    -0.258 A  
HETATM   10  C   UNL     1     -10.746   7.211  69.572  1.00  0.00    -0.255 A  
HETATM   11  C   UNL     1     -11.027   6.456  70.844  1.00  0.00    -0.280 C  
HETATM   12  C   UNL     1     -10.819   8.605  69.479  1.00  0.00    -0.129 A  
HETATM   13  F   UNL     1     -11.027   5.103  70.678  1.00  0.00    -0.258 F  
HETATM   14  F   UNL     1     -10.122   6.695  71.827  1.00  0.00    -0.184 F  
HETATM   15  N   UNL     1     -11.166   9.413  70.638  1.00  0.00    -0.265 N  
HETATM   16  F   UNL     1     -12.251   6.756  71.355  1.00  0.00    -0.341 F  
HETATM   17  C   UNL     1     -10.602   9.270  68.263  1.00  0.00    -0.237 A  
HETATM   18  C   UNL     1     -10.310   8.530  67.111  1.00  0.00    -0.377 A  
HETATM   19  O   UNL     1     -10.432   9.328  71.626  1.00  0.00    -0.344 OA 
HETATM   20  O   UNL     1     -12.157  10.147  70.531  1.00  0.00    -0.283 OA 
ENDBRANCH   6   8
TORSDOF 1
ENDMDL
MODEL       98
REMARK 921   NORMALIZED FREE ENERGY PREDICTED BY IDOCK:   -4.21 KCAL/MOL
REMARK 922        TOTAL FREE ENERGY PREDICTED BY IDOCK:   -4.76 KCAL/MOL
REMARK 923 INTER-LIGAND FREE ENERGY PREDICTED BY IDOCK:   -4.67 KCAL/MOL
REMARK 924 INTRA-LIGAND FREE ENERGY PREDICTED BY IDOCK:   -0.09 KCAL/MOL
REMARK 927      BINDING AFFINITY PREDICTED BY RF-SCORE:    0.00 PKD
ROOT
HETATM    1  C   UNL     1     -11.400  16.590  69.519  1.00  0.00    -0.088 C  
HETATM    2  C   UNL     1     -10.974  15.245  68.922  1.00  0.00    -0.261 C  
HETATM    3  C   UNL     1      -9.456  15.208  68.768  1.00  0.00    -0.209 C  
HETATM    4  C   UNL     1     -11.474  14.113  69.818  1.00  0.00    -0.250 C  
HETATM    5  O   UNL     1     -12.068  14.355  70.864  1.00  0.00    -0.309 OA 
HETATM    6  N   UNL     1     -11.232  12.836  69.325  1.00  0.00    -0.397 N  
HETATM    7  H   UNL     1     -10.855  12.764  68.379  1.00  0.00     0.000 HD 
ENDROOT
BRANCH   6   8
HETATM    8  C   UNL     1     -11.463  11.631  70.026  1.00  0.00    -0.182 A  
HETATM    9  C   UNL     1     -10.444  10.709  70.300  1.00  0.00     0.152 A  
HETATM   10  C   UNL     1     -10.688   9.495  70.968  1.00  0.00    -0.411 A  
HETATM   11  C   UNL     1      -9.554   8.528  71.182  1.00  0.00    -0.193 C  
HETATM   12  C   UNL     1     -12.004   9.226  71.356  1.00  0.00    -0.351 A  
HETATM   13  F   UNL     1      -8.385   8.936  70.611  1.00  0.00    -0.104 F  
HETATM   14  F   UNL     1      -9.258   8.320  72.490  1.00  0.00    -0.230 F  
HETATM   15  N   UNL     1     -12.347   7.973  72.013  1.00  0.00    -0.316 N  
HETATM   16  F   UNL     1      -9.814   7.309  70.639  1.00  0.00    -0.178 F  
HETATM   17  C   UNL     1     -13.045  10.129  71.093  1.00  0.00    -0.480 A  
HETATM   18  C   UNL     1     -12.770  11.327  70.423  1.00  0.00    -0.209 A  
HETATM   19  O   UNL     1     -11.781   7.722  73.080  1.00  0.00    -0.277 OA 
HETATM   20  O   UNL     1     -13.206   7.271  71.464  1.00  0.00    -0.376 OA 
ENDBRANCH   6   8
TORSDOF 1
ENDMDL
MODEL       99
REMARK 921   NORMALIZED FREE ENERGY PREDICTED BY IDOCK:   -4.21 KCAL/MOL
REMARK 922        TOTAL FREE ENERGY PREDICTED BY IDOCK:   -4.76 KCAL/MOL
REMARK 923 INTER-LIGAND FREE ENERGY PREDICTED BY IDOCK:   -4.45 KCAL/MOL
REMARK 924 INTRA-LIGAND FREE ENERGY PREDICTED BY IDOCK:   -0.31 KCAL/MOL
REMARK 927      BINDING AFFINITY PREDICTED BY RF-SCORE:    0.00 PKD
ROOT
HETATM    1  C   UNL     1      -9.412   6.690  66.560  1.00  0.00    -0.192 C  
HETATM    2  C   UNL     1      -9.435   7.638  67.764  1.00  0.00    -0.160 C  
HETATM    3  C   UNL     1      -8.051   7.686  68.407  1.00  0.00    -0.124 C  
HETATM    4  C   UNL     1      -9.889   9.023  67.308  1.00  0.00    -0.196 C  
HETATM    5  O   UNL     1     -10.122   9.251  66.124  1.00  0.00    -0.288 OA 
HETATM    6  N   UNL     1     -10.045   9.947  68.334  1.00  0.00    -0.161 N  
HETATM    7  H   UNL     1      -9.957   9.602  69.291  1.00  0.00     0.000 HD 
ENDROOT
BRANCH   6   8
HETATM    8  C   UNL     1     -10.313  11.324  68.163  1.00  0.00    -0.186 A  
HETATM    9  C   UNL     1      -9.325  12.245  67.792  1.00  0.00    -0.194 A  
HETATM   10  C   UNL     1      -9.591  13.621  67.656  1.00  0.00    -0.221 A  
HETATM   11  C   UNL     1      -8.468  14.561  67.306  1.00  0.00    -0.215 C  
HETATM   12  C   UNL     1     -10.897  14.052  67.910  1.00  0.00    -0.244 A  
HETATM   13  F   UNL     1      -7.255  13.943  67.230  1.00  0.00    -0.179 F  
HETATM   14  F   UNL     1      -8.631  15.177  66.109  1.00  0.00    -0.286 F  
HETATM   15  N   UNL     1     -11.245  15.463  67.834  1.00  0.00    -0.324 N  
HETATM   16  F   UNL     1      -8.316  15.541  68.237  1.00  0.00    -0.139 F  
HETATM   17  C   UNL     1     -11.907  13.153  68.285  1.00  0.00    -0.384 A  
HETATM   18  C   UNL     1     -11.608  11.791  68.415  1.00  0.00    -0.380 A  
HETATM   19  O   UNL     1     -11.065  16.031  66.754  1.00  0.00    -0.190 OA 
HETATM   20  O   UNL     1     -11.724  15.976  68.853  1.00  0.00    -0.381 OA 
ENDBRANCH   6   8
TORSDOF 1
ENDMDL
MODEL      100
REMARK 921   NORMALIZED FREE ENERGY PREDICTED BY IDOCK:   -4.19 KCAL/MOL
REMARK 922        TOTAL FREE ENERGY PREDICTED BY IDOCK:   -4.75 KCAL/MOL
REMARK 923 INTER-LIGAND FREE ENERGY PREDICTED BY IDOCK:   -4.44 KCAL/MOL
REMARK 924 INTRA-LIGAND FREE ENERGY PREDICTED BY IDOCK:   -0.30 KCAL/MOL
REMARK 927      BINDING AFFINITY PREDICTED BY RF-SCORE:    0.00 PKD
ROOT
HETATM    1  C   UNL     1      -7.422   4.435  64.227  1.00  0.00    -0.071 C  
HETATM    2  C   UNL     1      -8.861   4.761  64.637  1.00  0.00    -0.152 C  
HETATM    3  C   UNL     1      -9.602   3.471  64.983  1.00  0.00    -0.160 C  
HETATM    4  C   UNL     1      -8.843   5.730  65.817  1.00  0.00    -0.146 C  
HETATM    5  O   UNL     1      -7.783   6.088  66.322  1.00  0.00    -0.098 OA 
HETATM    6  N   UNL     1     -10.097   6.177  66.216  1.00  0.00    -0.399 N  
HETATM    7  H   UNL     1     -10.894   5.920  65.632  1.00  0.00     0.000 HD 
ENDROOT
BRANCH   6   8
HETATM    8  C   UNL     1     -10.360   6.958  67.364  1.00  0.00    -0.231 A  
HETATM    9  C   UNL     1     -10.528   8.349  67.310  1.00  0.00    -0.373 A  
HETATM   10  C   UNL     1     -10.755   9.125  68.461  1.00  0.00    -0.160 A  
HETATM   11  C   UNL     1     -10.873  10.621  68.334  1.00  0.00    -0.237 C  
HETATM   12  C   UNL     1     -10.808   8.457  69.689  1.00  0.00    -0.148 A  
HETATM   13  F   UNL     1     -10.662  11.070  67.064  1.00  0.00    -0.252 F  
HETATM   14  F   UNL     1     -12.092  11.100  68.685  1.00  0.00    -0.381 F  
HETATM   15  N   UNL     1     -10.997   9.192  70.931  1.00  0.00    -0.258 N  
HETATM   16  F   UNL     1      -9.958  11.271  69.102  1.00  0.00    -0.211 F  
HETATM   17  C   UNL     1     -10.643   7.066  69.774  1.00  0.00    -0.253 A  
HETATM   18  C   UNL     1     -10.414   6.323  68.610  1.00  0.00    -0.274 A  
HETATM   19  O   UNL     1     -12.025   9.865  71.038  1.00  0.00    -0.311 OA 
HETATM   20  O   UNL     1     -10.123   9.058  71.797  1.00  0.00    -0.326 OA 
ENDBRANCH   6   8
TORSDOF 1
ENDMDL
MODEL      101
REMARK 921   NORMALIZED FREE ENERGY PREDICTED BY IDOCK:   -4.19 KCAL/MOL
REMARK 922        TOTAL FREE ENERGY PREDICTED BY IDOCK:   -4.74 KCAL/MOL
REMARK 923 INTER-LIGAND FREE ENERGY PREDICTED BY IDOCK:   -4.43 KCAL/MOL
REMARK 924 INTRA-LIGAND FREE ENERGY PREDICTED BY IDOCK:   -0.32 KCAL/MOL
REMARK 927      BINDING AFFINITY PREDICTED BY RF-SCORE:    0.00 PKD
ROOT
HETATM    1  C   UNL     1      -6.645  21.198  67.269  1.00  0.00    -0.429 C  
HETATM    2  C   UNL     1      -6.763  20.094  66.213  1.00  0.00    -0.249 C  
HETATM    3  C   UNL     1      -5.392  19.472  65.964  1.00  0.00    -0.165 C  
HETATM    4  C   UNL     1      -7.774  19.050  66.685  1.00  0.00    -0.247 C  
HETATM    5  O   UNL     1      -8.312  19.146  67.784  1.00  0.00    -0.280 OA 
HETATM    6  N   UNL     1      -8.040  18.045  65.762  1.00  0.00     0.058 N  
HETATM    7  H   UNL     1      -7.639  18.149  64.830  1.00  0.00     0.000 HD 
ENDROOT
BRANCH   6   8
HETATM    8  C   UNL     1      -8.820  16.893  66.009  1.00  0.00    -0.159 A  
HETATM    9  C   UNL     1      -8.291  15.733  66.590  1.00  0.00    -0.319 A  
HETATM   10  C   UNL     1      -9.066  14.577  66.802  1.00  0.00    -0.283 A  
HETATM   11  C   UNL     1      -8.417  13.349  67.383  1.00  0.00    -0.196 C  
HETATM   12  C   UNL     1     -10.406  14.617  66.404  1.00  0.00    -0.289 A  
HETATM   13  F   UNL     1      -7.075  13.491  67.577  1.00  0.00    -0.131 F  
HETATM   14  F   UNL     1      -8.918  12.993  68.593  1.00  0.00    -0.165 F  
HETATM   15  N   UNL     1     -11.262  13.449  66.548  1.00  0.00    -0.301 N  
HETATM   16  F   UNL     1      -8.551  12.268  66.569  1.00  0.00    -0.191 F  
HETATM   17  C   UNL     1     -10.962  15.764  65.817  1.00  0.00    -0.216 A  
HETATM   18  C   UNL     1     -10.163  16.897  65.617  1.00  0.00    -0.227 A  
HETATM   19  O   UNL     1     -11.417  13.000  67.686  1.00  0.00    -0.285 OA 
HETATM   20  O   UNL     1     -11.794  13.017  65.518  1.00  0.00    -0.351 OA 
ENDBRANCH   6   8
TORSDOF 1
ENDMDL
MODEL      102
REMARK 921   NORMALIZED FREE ENERGY PREDICTED BY IDOCK:   -4.18 KCAL/MOL
REMARK 922        TOTAL FREE ENERGY PREDICTED BY IDOCK:   -4.73 KCAL/MOL
REMARK 923 INTER-LIGAND FREE ENERGY PREDICTED BY IDOCK:   -4.50 KCAL/MOL
REMARK 924 INTRA-LIGAND FREE ENERGY PREDICTED BY IDOCK:   -0.24 KCAL/MOL
REMARK 927      BINDING AFFINITY PREDICTED BY RF-SCORE:    0.00 PKD
ROOT
HETATM    1  C   UNL     1     -10.672  12.554  64.218  1.00  0.00    -0.399 C  
HETATM    2  C   UNL     1     -10.585  11.026  64.148  1.00  0.00    -0.412 C  
HETATM    3  C   UNL     1      -9.653  10.616  63.010  1.00  0.00    -0.379 C  
HETATM    4  C   UNL     1     -10.099  10.486  65.492  1.00  0.00    -0.283 C  
HETATM    5  O   UNL     1      -9.797  11.249  66.405  1.00  0.00    -0.201 OA 
HETATM    6  N   UNL     1     -10.074   9.100  65.582  1.00  0.00    -0.347 N  
HETATM    7  H   UNL     1     -10.479   8.573  64.808  1.00  0.00     0.000 HD 
ENDROOT
BRANCH   6   8
HETATM    8  C   UNL     1      -9.532   8.359  66.657  1.00  0.00    -0.205 A  
HETATM    9  C   UNL     1     -10.331   7.634  67.552  1.00  0.00    -0.326 A  
HETATM   10  C   UNL     1      -9.788   6.927  68.641  1.00  0.00    -0.145 A  
HETATM   11  C   UNL     1     -10.710   6.213  69.594  1.00  0.00    -0.319 C  
HETATM   12  C   UNL     1      -8.400   6.970  68.811  1.00  0.00    -0.122 A  
HETATM   13  F   UNL     1     -12.030   6.410  69.311  1.00  0.00    -0.355 F  
HETATM   14  F   UNL     1     -10.543   4.867  69.604  1.00  0.00    -0.322 F  
HETATM   15  N   UNL     1      -7.765   6.301  69.936  1.00  0.00    -0.102 N  
HETATM   16  F   UNL     1     -10.549   6.640  70.875  1.00  0.00    -0.228 F  
HETATM   17  C   UNL     1      -7.576   7.689  67.932  1.00  0.00    -0.117 A  
HETATM   18  C   UNL     1      -8.148   8.386  66.860  1.00  0.00    -0.099 A  
HETATM   19  O   UNL     1      -7.929   5.082  70.034  1.00  0.00    -0.072 OA 
HETATM   20  O   UNL     1      -7.082   7.005  70.691  1.00  0.00    -0.064 OA 
ENDBRANCH   6   8
TORSDOF 1
ENDMDL
MODEL      103
REMARK 921   NORMALIZED FREE ENERGY PREDICTED BY IDOCK:   -4.18 KCAL/MOL
REMARK 922        TOTAL FREE ENERGY PREDICTED BY IDOCK:   -4.73 KCAL/MOL
REMARK 923 INTER-LIGAND FREE ENERGY PREDICTED BY IDOCK:   -4.50 KCAL/MOL
REMARK 924 INTRA-LIGAND FREE ENERGY PREDICTED BY IDOCK:   -0.23 KCAL/MOL
REMARK 927      BINDING AFFINITY PREDICTED BY RF-SCORE:    0.00 PKD
ROOT
HETATM    1  C   UNL     1     -13.127   9.048  72.558  1.00  0.00    -0.450 C  
HETATM    2  C   UNL     1     -13.114   9.968  71.333  1.00  0.00    -0.512 C  
HETATM    3  C   UNL     1     -13.134  11.426  71.784  1.00  0.00    -0.523 C  
HETATM    4  C   UNL     1     -11.882   9.661  70.484  1.00  0.00    -0.215 C  
HETATM    5  O   UNL     1     -11.060   8.825  70.847  1.00  0.00    -0.247 OA 
HETATM    6  N   UNL     1     -11.813  10.367  69.289  1.00  0.00    -0.504 N  
HETATM    7  H   UNL     1     -12.625  10.929  69.030  1.00  0.00     0.000 HD 
ENDROOT
BRANCH   6   8
HETATM    8  C   UNL     1     -10.713  10.371  68.402  1.00  0.00    -0.225 A  
HETATM    9  C   UNL     1     -10.363   9.257  67.628  1.00  0.00    -0.311 A  
HETATM   10  C   UNL     1      -9.245   9.257  66.773  1.00  0.00    -0.185 A  
HETATM   11  C   UNL     1      -8.898   8.005  66.010  1.00  0.00    -0.162 C  
HETATM   12  C   UNL     1      -8.474  10.422  66.719  1.00  0.00    -0.125 A  
HETATM   13  F   UNL     1      -9.708   6.951  66.311  1.00  0.00    -0.210 F  
HETATM   14  F   UNL     1      -8.984   8.150  64.664  1.00  0.00    -0.027 F  
HETATM   15  N   UNL     1      -7.278  10.488  65.892  1.00  0.00    -0.135 N  
HETATM   16  F   UNL     1      -7.635   7.578  66.280  1.00  0.00    -0.080 F  
HETATM   17  C   UNL     1      -8.799  11.552  67.484  1.00  0.00    -0.155 A  
HETATM   18  C   UNL     1      -9.916  11.519  68.328  1.00  0.00    -0.205 A  
HETATM   19  O   UNL     1      -7.417  10.298  64.682  1.00  0.00    -0.142 OA 
HETATM   20  O   UNL     1      -6.217  10.762  66.467  1.00  0.00    -0.085 OA 
ENDBRANCH   6   8
TORSDOF 1
ENDMDL
MODEL      104
REMARK 921   NORMALIZED FREE ENERGY PREDICTED BY IDOCK:   -4.14 KCAL/MOL
REMARK 922        TOTAL FREE ENERGY PREDICTED BY IDOCK:   -4.69 KCAL/MOL
REMARK 923 INTER-LIGAND FREE ENERGY PREDICTED BY IDOCK:   -4.39 KCAL/MOL
REMARK 924 INTRA-LIGAND FREE ENERGY PREDICTED BY IDOCK:   -0.29 KCAL/MOL
REMARK 927      BINDING AFFINITY PREDICTED BY RF-SCORE:    0.00 PKD
ROOT
HETATM    1  C   UNL     1     -10.698   3.816  73.326  1.00  0.00    -0.287 C  
HETATM    2  C   UNL     1     -10.011   5.160  73.589  1.00  0.00    -0.191 C  
HETATM    3  C   UNL     1      -8.502   4.955  73.691  1.00  0.00    -0.105 C  
HETATM    4  C   UNL     1     -10.370   6.137  72.471  1.00  0.00    -0.193 C  
HETATM    5  O   UNL     1     -11.064   5.783  71.523  1.00  0.00    -0.265 OA 
HETATM    6  N   UNL     1      -9.882   7.426  72.653  1.00  0.00    -0.166 N  
HETATM    7  H   UNL     1      -9.438   7.637  73.547  1.00  0.00     0.000 HD 
ENDROOT
BRANCH   6   8
HETATM    8  C   UNL     1      -9.952   8.469  71.702  1.00  0.00    -0.259 A  
HETATM    9  C   UNL     1     -11.107   9.238  71.508  1.00  0.00    -0.443 A  
HETATM   10  C   UNL     1     -11.181  10.253  70.535  1.00  0.00    -0.408 A  
HETATM   11  C   UNL     1     -12.473  11.004  70.345  1.00  0.00    -0.313 C  
HETATM   12  C   UNL     1     -10.046  10.475  69.748  1.00  0.00    -0.081 A  
HETATM   13  F   UNL     1     -13.485  10.537  71.130  1.00  0.00    -0.393 F  
HETATM   14  F   UNL     1     -12.378  12.326  70.634  1.00  0.00    -0.405 F  
HETATM   15  N   UNL     1     -10.055  11.476  68.692  1.00  0.00    -0.214 N  
HETATM   16  F   UNL     1     -12.934  10.910  69.070  1.00  0.00     0.062 F  
HETATM   17  C   UNL     1      -8.876   9.720  69.919  1.00  0.00    -0.248 A  
HETATM   18  C   UNL     1      -8.837   8.715  70.893  1.00  0.00    -0.221 A  
HETATM   19  O   UNL     1     -10.288  12.642  69.021  1.00  0.00    -0.095 OA 
HETATM   20  O   UNL     1      -9.797  11.082  67.547  1.00  0.00    -0.167 OA 
ENDBRANCH   6   8
TORSDOF 1
ENDMDL
MODEL      105
REMARK 921   NORMALIZED FREE ENERGY PREDICTED BY IDOCK:   -4.14 KCAL/MOL
REMARK 922        TOTAL FREE ENERGY PREDICTED BY IDOCK:   -4.69 KCAL/MOL
REMARK 923 INTER-LIGAND FREE ENERGY PREDICTED BY IDOCK:   -4.39 KCAL/MOL
REMARK 924 INTRA-LIGAND FREE ENERGY PREDICTED BY IDOCK:   -0.29 KCAL/MOL
REMARK 927      BINDING AFFINITY PREDICTED BY RF-SCORE:    0.00 PKD
ROOT
HETATM    1  C   UNL     1      -7.087   9.852  67.671  1.00  0.00    -0.087 C  
HETATM    2  C   UNL     1      -7.594  10.932  68.633  1.00  0.00    -0.114 C  
HETATM    3  C   UNL     1      -6.489  11.299  69.621  1.00  0.00    -0.132 C  
HETATM    4  C   UNL     1      -8.055  12.147  67.831  1.00  0.00    -0.153 C  
HETATM    5  O   UNL     1      -7.941  12.175  66.609  1.00  0.00    -0.079 OA 
HETATM    6  N   UNL     1      -8.629  13.158  68.593  1.00  0.00    -0.365 N  
HETATM    7  H   UNL     1      -8.796  12.962  69.580  1.00  0.00     0.000 HD 
ENDROOT
BRANCH   6   8
HETATM    8  C   UNL     1      -9.000  14.434  68.113  1.00  0.00    -0.185 A  
HETATM    9  C   UNL     1      -8.059  15.415  67.770  1.00  0.00    -0.152 A  
HETATM   10  C   UNL     1      -8.436  16.696  67.325  1.00  0.00    -0.214 A  
HETATM   11  C   UNL     1      -7.371  17.717  67.024  1.00  0.00    -0.194 C  
HETATM   12  C   UNL     1      -9.805  16.970  67.236  1.00  0.00    -0.260 A  
HETATM   13  F   UNL     1      -6.111  17.277  67.302  1.00  0.00    -0.123 F  
HETATM   14  F   UNL     1      -7.338  18.098  65.723  1.00  0.00    -0.293 F  
HETATM   15  N   UNL     1     -10.277  18.285  66.826  1.00  0.00    -0.359 N  
HETATM   16  F   UNL     1      -7.528  18.849  67.762  1.00  0.00    -0.236 F  
HETATM   17  C   UNL     1     -10.769  16.009  67.574  1.00  0.00    -0.314 A  
HETATM   18  C   UNL     1     -10.361  14.745  68.017  1.00  0.00    -0.237 A  
HETATM   19  O   UNL     1      -9.931  18.687  65.712  1.00  0.00    -0.504 OA 
HETATM   20  O   UNL     1     -11.016  18.884  67.617  1.00  0.00    -0.392 OA 
ENDBRANCH   6   8
TORSDOF 1
ENDMDL
MODEL      106
REMARK 921   NORMALIZED FREE ENERGY PREDICTED BY IDOCK:   -4.13 KCAL/MOL
REMARK 922        TOTAL FREE ENERGY PREDICTED BY IDOCK:   -4.68 KCAL/MOL
REMARK 923 INTER-LIGAND FREE ENERGY PREDICTED BY IDOCK:   -4.37 KCAL/MOL
REMARK 924 INTRA-LIGAND FREE ENERGY PREDICTED BY IDOCK:   -0.31 KCAL/MOL
REMARK 927      BINDING AFFINITY PREDICTED BY RF-SCORE:    0.00 PKD
ROOT
HETATM    1  C   UNL     1     -13.322   9.201  72.504  1.00  0.00    -0.481 C  
HETATM    2  C   UNL     1     -13.177  10.148  71.309  1.00  0.00    -0.453 C  
HETATM    3  C   UNL     1     -13.045  11.586  71.804  1.00  0.00    -0.503 C  
HETATM    4  C   UNL     1     -11.966   9.729  70.477  1.00  0.00    -0.206 C  
HETATM    5  O   UNL     1     -11.252   8.796  70.831  1.00  0.00    -0.253 OA 
HETATM    6  N   UNL     1     -11.790  10.457  69.306  1.00  0.00    -0.504 N  
HETATM    7  H   UNL     1     -12.527  11.114  69.048  1.00  0.00     0.000 HD 
ENDROOT
BRANCH   6   8
HETATM    8  C   UNL     1     -10.674  10.363  68.444  1.00  0.00    -0.225 A  
HETATM    9  C   UNL     1      -9.526  11.150  68.607  1.00  0.00    -0.196 A  
HETATM   10  C   UNL     1      -8.432  11.075  67.724  1.00  0.00    -0.122 A  
HETATM   11  C   UNL     1      -7.253  11.989  67.929  1.00  0.00    -0.102 C  
HETATM   12  C   UNL     1      -8.526  10.178  66.655  1.00  0.00    -0.126 A  
HETATM   13  F   UNL     1      -7.428  12.870  68.955  1.00  0.00    -0.111 F  
HETATM   14  F   UNL     1      -6.102  11.331  68.217  1.00  0.00    -0.047 F  
HETATM   15  N   UNL     1      -7.457  10.073  65.673  1.00  0.00    -0.130 N  
HETATM   16  F   UNL     1      -7.005  12.756  66.834  1.00  0.00    -0.097 F  
HETATM   17  C   UNL     1      -9.664   9.380  66.466  1.00  0.00    -0.299 A  
HETATM   18  C   UNL     1     -10.737   9.481  67.360  1.00  0.00    -0.297 A  
HETATM   19  O   UNL     1      -6.339   9.756  66.088  1.00  0.00    -0.067 OA 
HETATM   20  O   UNL     1      -7.761  10.280  64.492  1.00  0.00    -0.148 OA 
ENDBRANCH   6   8
TORSDOF 1
ENDMDL
MODEL      107
REMARK 921   NORMALIZED FREE ENERGY PREDICTED BY IDOCK:   -4.12 KCAL/MOL
REMARK 922        TOTAL FREE ENERGY PREDICTED BY IDOCK:   -4.67 KCAL/MOL
REMARK 923 INTER-LIGAND FREE ENERGY PREDICTED BY IDOCK:   -4.44 KCAL/MOL
REMARK 924 INTRA-LIGAND FREE ENERGY PREDICTED BY IDOCK:   -0.23 KCAL/MOL
REMARK 927      BINDING AFFINITY PREDICTED BY RF-SCORE:    0.00 PKD
ROOT
HETATM    1  C   UNL     1      -9.699  11.833  66.811  1.00  0.00    -0.213 C  
HETATM    2  C   UNL     1      -9.979  11.949  68.312  1.00  0.00    -0.202 C  
HETATM    3  C   UNL     1     -11.325  12.634  68.534  1.00  0.00    -0.333 C  
HETATM    4  C   UNL     1      -9.950  10.556  68.940  1.00  0.00    -0.204 C  
HETATM    5  O   UNL     1      -9.777   9.557  68.249  1.00  0.00    -0.143 OA 
HETATM    6  N   UNL     1     -10.094  10.543  70.323  1.00  0.00    -0.324 N  
HETATM    7  H   UNL     1     -10.091  11.444  70.802  1.00  0.00     0.000 HD 
ENDROOT
BRANCH   6   8
HETATM    8  C   UNL     1     -10.245   9.385  71.119  1.00  0.00    -0.291 A  
HETATM    9  C   UNL     1      -9.204   8.468  71.323  1.00  0.00    -0.256 A  
HETATM   10  C   UNL     1      -9.371   7.300  72.089  1.00  0.00    -0.156 A  
HETATM   11  C   UNL     1      -8.225   6.332  72.222  1.00  0.00    -0.108 C  
HETATM   12  C   UNL     1     -10.632   7.071  72.650  1.00  0.00    -0.245 A  
HETATM   13  F   UNL     1      -7.132   6.690  71.488  1.00  0.00    -0.072 F  
HETATM   14  F   UNL     1      -7.773   6.200  73.494  1.00  0.00    -0.094 F  
HETATM   15  N   UNL     1     -10.899   5.865  73.420  1.00  0.00    -0.262 N  
HETATM   16  F   UNL     1      -8.557   5.087  71.790  1.00  0.00    -0.119 F  
HETATM   17  C   UNL     1     -11.692   7.970  72.461  1.00  0.00    -0.446 A  
HETATM   18  C   UNL     1     -11.494   9.123  71.690  1.00  0.00    -0.451 A  
HETATM   19  O   UNL     1     -10.207   5.671  74.423  1.00  0.00    -0.248 OA 
HETATM   20  O   UNL     1     -11.822   5.143  73.023  1.00  0.00    -0.273 OA 
ENDBRANCH   6   8
TORSDOF 1
ENDMDL
MODEL      108
REMARK 921   NORMALIZED FREE ENERGY PREDICTED BY IDOCK:   -4.12 KCAL/MOL
REMARK 922        TOTAL FREE ENERGY PREDICTED BY IDOCK:   -4.66 KCAL/MOL
REMARK 923 INTER-LIGAND FREE ENERGY PREDICTED BY IDOCK:   -4.76 KCAL/MOL
REMARK 924 INTRA-LIGAND FREE ENERGY PREDICTED BY IDOCK:    0.09 KCAL/MOL
REMARK 927      BINDING AFFINITY PREDICTED BY RF-SCORE:    0.00 PKD
ROOT
HETATM    1  C   UNL     1      -9.506   3.426  69.233  1.00  0.00    -0.212 C  
HETATM    2  C   UNL     1      -8.861   4.457  68.301  1.00  0.00    -0.128 C  
HETATM    3  C   UNL     1      -8.864   3.929  66.869  1.00  0.00    -0.133 C  
HETATM    4  C   UNL     1      -9.617   5.780  68.413  1.00  0.00    -0.125 C  
HETATM    5  O   UNL     1     -10.610   5.880  69.126  1.00  0.00    -0.237 OA 
HETATM    6  N   UNL     1      -9.061   6.825  67.684  1.00  0.00    -0.118 N  
HETATM    7  H   UNL     1      -8.157   6.658  67.241  1.00  0.00     0.000 HD 
ENDROOT
BRANCH   6   8
HETATM    8  C   UNL     1      -9.645   8.100  67.505  1.00  0.00    -0.157 A  
HETATM    9  C   UNL     1      -9.677   8.749  66.264  1.00  0.00    -0.342 A  
HETATM   10  C   UNL     1     -10.229  10.033  66.100  1.00  0.00    -0.283 A  
HETATM   11  C   UNL     1     -10.181  10.691  64.746  1.00  0.00    -0.331 C  
HETATM   12  C   UNL     1     -10.754  10.658  67.235  1.00  0.00    -0.285 A  
HETATM   13  F   UNL     1      -9.511   9.955  63.814  1.00  0.00    -0.301 F  
HETATM   14  F   UNL     1     -11.407  10.916  64.210  1.00  0.00    -0.267 F  
HETATM   15  N   UNL     1     -11.305  12.003  67.159  1.00  0.00    -0.315 N  
HETATM   16  F   UNL     1      -9.542  11.891  64.786  1.00  0.00    -0.233 F  
HETATM   17  C   UNL     1     -10.735  10.034  68.491  1.00  0.00    -0.264 A  
HETATM   18  C   UNL     1     -10.174   8.757  68.621  1.00  0.00    -0.214 A  
HETATM   19  O   UNL     1     -12.252  12.183  66.389  1.00  0.00    -0.592 OA 
HETATM   20  O   UNL     1     -10.797  12.857  67.897  1.00  0.00    -0.217 OA 
ENDBRANCH   6   8
TORSDOF 1
ENDMDL
MODEL      109
REMARK 921   NORMALIZED FREE ENERGY PREDICTED BY IDOCK:   -4.12 KCAL/MOL
REMARK 922        TOTAL FREE ENERGY PREDICTED BY IDOCK:   -4.66 KCAL/MOL
REMARK 923 INTER-LIGAND FREE ENERGY PREDICTED BY IDOCK:   -4.68 KCAL/MOL
REMARK 924 INTRA-LIGAND FREE ENERGY PREDICTED BY IDOCK:    0.01 KCAL/MOL
REMARK 927      BINDING AFFINITY PREDICTED BY RF-SCORE:    0.00 PKD
ROOT
HETATM    1  C   UNL     1     -10.964  15.359  66.513  1.00  0.00    -0.271 C  
HETATM    2  C   UNL     1     -11.793  14.082  66.687  1.00  0.00    -0.443 C  
HETATM    3  C   UNL     1     -12.696  13.885  65.472  1.00  0.00    -0.536 C  
HETATM    4  C   UNL     1     -10.854  12.893  66.885  1.00  0.00    -0.257 C  
HETATM    5  O   UNL     1      -9.636  13.038  66.838  1.00  0.00    -0.228 OA 
HETATM    6  N   UNL     1     -11.495  11.689  67.153  1.00  0.00    -0.299 N  
HETATM    7  H   UNL     1     -12.503  11.720  67.305  1.00  0.00     0.000 HD 
ENDROOT
BRANCH   6   8
HETATM    8  C   UNL     1     -10.865  10.426  67.230  1.00  0.00    -0.264 A  
HETATM    9  C   UNL     1     -11.124   9.516  68.264  1.00  0.00    -0.047 A  
HETATM   10  C   UNL     1     -10.468   8.275  68.355  1.00  0.00    -0.206 A  
HETATM   11  C   UNL     1     -10.756   7.369  69.523  1.00  0.00    -0.224 C  
HETATM   12  C   UNL     1      -9.528   7.968  67.365  1.00  0.00    -0.151 A  
HETATM   13  F   UNL     1     -11.607   7.922  70.434  1.00  0.00    -0.272 F  
HETATM   14  F   UNL     1     -11.329   6.192  69.167  1.00  0.00    -0.412 F  
HETATM   15  N   UNL     1      -8.776   6.723  67.410  1.00  0.00    -0.119 N  
HETATM   16  F   UNL     1      -9.630   7.064  70.221  1.00  0.00    -0.166 F  
HETATM   17  C   UNL     1      -9.248   8.860  66.319  1.00  0.00    -0.261 A  
HETATM   18  C   UNL     1      -9.915  10.090  66.260  1.00  0.00    -0.310 A  
HETATM   19  O   UNL     1      -9.421   5.672  67.390  1.00  0.00    -0.112 OA 
HETATM   20  O   UNL     1      -7.542   6.817  67.435  1.00  0.00    -0.100 OA 
ENDBRANCH   6   8
TORSDOF 1
ENDMDL
MODEL      110
REMARK 921   NORMALIZED FREE ENERGY PREDICTED BY IDOCK:   -4.11 KCAL/MOL
REMARK 922        TOTAL FREE ENERGY PREDICTED BY IDOCK:   -4.66 KCAL/MOL
REMARK 923 INTER-LIGAND FREE ENERGY PREDICTED BY IDOCK:   -4.38 KCAL/MOL
REMARK 924 INTRA-LIGAND FREE ENERGY PREDICTED BY IDOCK:   -0.27 KCAL/MOL
REMARK 927      BINDING AFFINITY PREDICTED BY RF-SCORE:    0.00 PKD
ROOT
HETATM    1  C   UNL     1      -8.909   9.253  64.490  1.00  0.00    -0.203 C  
HETATM    2  C   UNL     1      -9.060   9.909  65.866  1.00  0.00    -0.201 C  
HETATM    3  C   UNL     1     -10.179  10.947  65.821  1.00  0.00    -0.318 C  
HETATM    4  C   UNL     1      -9.338   8.830  66.911  1.00  0.00    -0.167 C  
HETATM    5  O   UNL     1      -9.460   7.654  66.585  1.00  0.00    -0.177 OA 
HETATM    6  N   UNL     1      -9.397   9.296  68.220  1.00  0.00    -0.134 N  
HETATM    7  H   UNL     1      -9.142  10.271  68.381  1.00  0.00     0.000 HD 
ENDROOT
BRANCH   6   8
HETATM    8  C   UNL     1      -9.781   8.531  69.344  1.00  0.00    -0.177 A  
HETATM    9  C   UNL     1     -11.058   8.616  69.915  1.00  0.00    -0.119 A  
HETATM   10  C   UNL     1     -11.423   7.877  71.056  1.00  0.00    -0.298 A  
HETATM   11  C   UNL     1     -12.796   8.058  71.646  1.00  0.00    -0.329 C  
HETATM   12  C   UNL     1     -10.454   7.040  71.618  1.00  0.00    -0.199 A  
HETATM   13  F   UNL     1     -13.531   9.018  71.014  1.00  0.00    -0.294 F  
HETATM   14  F   UNL     1     -13.558   6.937  71.600  1.00  0.00    -0.404 F  
HETATM   15  N   UNL     1     -10.738   6.275  72.824  1.00  0.00    -0.231 N  
HETATM   16  F   UNL     1     -12.744   8.445  72.949  1.00  0.00    -0.346 F  
HETATM   17  C   UNL     1      -9.167   6.936  71.070  1.00  0.00    -0.156 A  
HETATM   18  C   UNL     1      -8.835   7.688  69.936  1.00  0.00    -0.143 A  
HETATM   19  O   UNL     1     -11.675   5.474  72.776  1.00  0.00    -0.297 OA 
HETATM   20  O   UNL     1      -9.995   6.466  73.794  1.00  0.00    -0.187 OA 
ENDBRANCH   6   8
TORSDOF 1
ENDMDL
MODEL      111
REMARK 921   NORMALIZED FREE ENERGY PREDICTED BY IDOCK:   -4.08 KCAL/MOL
REMARK 922        TOTAL FREE ENERGY PREDICTED BY IDOCK:   -4.62 KCAL/MOL
REMARK 923 INTER-LIGAND FREE ENERGY PREDICTED BY IDOCK:   -4.31 KCAL/MOL
REMARK 924 INTRA-LIGAND FREE ENERGY PREDICTED BY IDOCK:   -0.31 KCAL/MOL
REMARK 927      BINDING AFFINITY PREDICTED BY RF-SCORE:    0.00 PKD
ROOT
HETATM    1  C   UNL     1      -7.885   3.638  67.747  1.00  0.00    -0.077 C  
HETATM    2  C   UNL     1      -7.789   4.464  69.034  1.00  0.00    -0.069 C  
HETATM    3  C   UNL     1      -6.416   5.125  69.119  1.00  0.00    -0.039 C  
HETATM    4  C   UNL     1      -8.911   5.500  69.054  1.00  0.00    -0.108 C  
HETATM    5  O   UNL     1      -9.685   5.609  68.108  1.00  0.00    -0.117 OA 
HETATM    6  N   UNL     1      -8.987   6.247  70.224  1.00  0.00    -0.152 N  
HETATM    7  H   UNL     1      -8.378   5.971  70.995  1.00  0.00     0.000 HD 
ENDROOT
BRANCH   6   8
HETATM    8  C   UNL     1      -9.836   7.357  70.433  1.00  0.00    -0.183 A  
HETATM    9  C   UNL     1     -11.132   7.229  70.952  1.00  0.00    -0.284 A  
HETATM   10  C   UNL     1     -11.985   8.334  71.126  1.00  0.00    -0.290 A  
HETATM   11  C   UNL     1     -13.384   8.116  71.639  1.00  0.00    -0.331 C  
HETATM   12  C   UNL     1     -11.495   9.591  70.756  1.00  0.00    -0.310 A  
HETATM   13  F   UNL     1     -13.692   6.799  71.814  1.00  0.00    -0.394 F  
HETATM   14  F   UNL     1     -13.617   8.700  72.841  1.00  0.00    -0.342 F  
HETATM   15  N   UNL     1     -12.330  10.779  70.863  1.00  0.00    -0.361 N  
HETATM   16  F   UNL     1     -14.322   8.594  70.779  1.00  0.00    -0.227 F  
HETATM   17  C   UNL     1     -10.204   9.749  70.232  1.00  0.00    -0.346 A  
HETATM   18  C   UNL     1      -9.380   8.628  70.068  1.00  0.00    -0.165 A  
HETATM   19  O   UNL     1     -12.760  11.066  71.983  1.00  0.00    -0.305 OA 
HETATM   20  O   UNL     1     -12.517  11.425  69.825  1.00  0.00    -0.209 OA 
ENDBRANCH   6   8
TORSDOF 1
ENDMDL
MODEL      112
REMARK 921   NORMALIZED FREE ENERGY PREDICTED BY IDOCK:   -4.06 KCAL/MOL
REMARK 922        TOTAL FREE ENERGY PREDICTED BY IDOCK:   -4.60 KCAL/MOL
REMARK 923 INTER-LIGAND FREE ENERGY PREDICTED BY IDOCK:   -4.30 KCAL/MOL
REMARK 924 INTRA-LIGAND FREE ENERGY PREDICTED BY IDOCK:   -0.30 KCAL/MOL
REMARK 927      BINDING AFFINITY PREDICTED BY RF-SCORE:    0.00 PKD
ROOT
HETATM    1  C   UNL     1      -7.748   4.608  64.750  1.00  0.00    -0.078 C  
HETATM    2  C   UNL     1      -9.066   4.435  65.512  1.00  0.00    -0.140 C  
HETATM    3  C   UNL     1      -9.243   2.971  65.908  1.00  0.00    -0.122 C  
HETATM    4  C   UNL     1      -9.067   5.350  66.735  1.00  0.00    -0.116 C  
HETATM    5  O   UNL     1      -8.087   6.038  67.007  1.00  0.00    -0.105 OA 
HETATM    6  N   UNL     1     -10.257   5.354  67.453  1.00  0.00    -0.192 N  
HETATM    7  H   UNL     1     -11.047   4.849  67.051  1.00  0.00     0.000 HD 
ENDROOT
BRANCH   6   8
HETATM    8  C   UNL     1     -10.462   5.998  68.694  1.00  0.00    -0.241 A  
HETATM    9  C   UNL     1     -10.778   7.360  68.794  1.00  0.00    -0.145 A  
HETATM   10  C   UNL     1     -10.947   8.003  70.035  1.00  0.00    -0.202 A  
HETATM   11  C   UNL     1     -11.234   9.481  70.068  1.00  0.00    -0.209 C  
HETATM   12  C   UNL     1     -10.784   7.230  71.189  1.00  0.00    -0.228 A  
HETATM   13  F   UNL     1     -11.223  10.058  68.833  1.00  0.00    -0.250 F  
HETATM   14  F   UNL     1     -12.446   9.786  70.595  1.00  0.00    -0.323 F  
HETATM   15  N   UNL     1     -10.900   7.830  72.511  1.00  0.00    -0.298 N  
HETATM   16  F   UNL     1     -10.307  10.163  70.793  1.00  0.00    -0.331 F  
HETATM   17  C   UNL     1     -10.466   5.866  71.119  1.00  0.00    -0.291 A  
HETATM   18  C   UNL     1     -10.300   5.257  69.869  1.00  0.00    -0.374 A  
HETATM   19  O   UNL     1     -11.972   8.369  72.794  1.00  0.00    -0.367 OA 
HETATM   20  O   UNL     1      -9.920   7.724  73.259  1.00  0.00    -0.288 OA 
ENDBRANCH   6   8
TORSDOF 1
ENDMDL
MODEL      113
REMARK 921   NORMALIZED FREE ENERGY PREDICTED BY IDOCK:   -4.05 KCAL/MOL
REMARK 922        TOTAL FREE ENERGY PREDICTED BY IDOCK:   -4.59 KCAL/MOL
REMARK 923 INTER-LIGAND FREE ENERGY PREDICTED BY IDOCK:   -4.27 KCAL/MOL
REMARK 924 INTRA-LIGAND FREE ENERGY PREDICTED BY IDOCK:   -0.31 KCAL/MOL
REMARK 927      BINDING AFFINITY PREDICTED BY RF-SCORE:    0.00 PKD
ROOT
HETATM    1  C   UNL     1     -13.377   9.764  71.843  1.00  0.00    -0.530 C  
HETATM    2  C   UNL     1     -13.101   8.257  71.851  1.00  0.00    -0.367 C  
HETATM    3  C   UNL     1     -14.332   7.506  71.348  1.00  0.00    -0.540 C  
HETATM    4  C   UNL     1     -11.875   7.963  70.989  1.00  0.00    -0.268 C  
HETATM    5  O   UNL     1     -11.304   8.862  70.380  1.00  0.00    -0.257 OA 
HETATM    6  N   UNL     1     -11.466   6.635  70.999  1.00  0.00    -0.311 N  
HETATM    7  H   UNL     1     -11.935   6.006  71.653  1.00  0.00     0.000 HD 
ENDROOT
BRANCH   6   8
HETATM    8  C   UNL     1     -10.456   6.082  70.179  1.00  0.00    -0.246 A  
HETATM    9  C   UNL     1     -10.676   5.739  68.838  1.00  0.00    -0.334 A  
HETATM   10  C   UNL     1      -9.676   5.158  68.037  1.00  0.00    -0.188 A  
HETATM   11  C   UNL     1      -9.999   4.766  66.619  1.00  0.00    -0.235 C  
HETATM   12  C   UNL     1      -8.431   4.924  68.629  1.00  0.00    -0.086 A  
HETATM   13  F   UNL     1     -11.307   4.967  66.291  1.00  0.00    -0.132 F  
HETATM   14  F   UNL     1      -9.288   5.455  65.692  1.00  0.00    -0.162 F  
HETATM   15  N   UNL     1      -7.357   4.287  67.882  1.00  0.00    -0.067 N  
HETATM   16  F   UNL     1      -9.769   3.445  66.391  1.00  0.00    -0.186 F  
HETATM   17  C   UNL     1      -8.182   5.255  69.970  1.00  0.00    -0.084 A  
HETATM   18  C   UNL     1      -9.201   5.829  70.741  1.00  0.00    -0.171 A  
HETATM   19  O   UNL     1      -6.974   4.850  66.853  1.00  0.00    -0.061 OA 
HETATM   20  O   UNL     1      -6.890   3.243  68.355  1.00  0.00    -0.047 OA 
ENDBRANCH   6   8
TORSDOF 1
ENDMDL
MODEL      114
REMARK 921   NORMALIZED FREE ENERGY PREDICTED BY IDOCK:   -4.04 KCAL/MOL
REMARK 922        TOTAL FREE ENERGY PREDICTED BY IDOCK:   -4.59 KCAL/MOL
REMARK 923 INTER-LIGAND FREE ENERGY PREDICTED BY IDOCK:   -4.27 KCAL/MOL
REMARK 924 INTRA-LIGAND FREE ENERGY PREDICTED BY IDOCK:   -0.31 KCAL/MOL
REMARK 927      BINDING AFFINITY PREDICTED BY RF-SCORE:    0.00 PKD
ROOT
HETATM    1  C   UNL     1     -13.169  11.428  71.867  1.00  0.00    -0.485 C  
HETATM    2  C   UNL     1     -12.657  10.729  70.603  1.00  0.00    -0.446 C  
HETATM    3  C   UNL     1     -11.809  11.701  69.786  1.00  0.00    -0.428 C  
HETATM    4  C   UNL     1     -11.861   9.488  71.000  1.00  0.00    -0.330 C  
HETATM    5  O   UNL     1     -11.671   9.212  72.180  1.00  0.00    -0.342 OA 
HETATM    6  N   UNL     1     -11.427   8.714  69.930  1.00  0.00    -0.449 N  
HETATM    7  H   UNL     1     -11.765   8.968  69.001  1.00  0.00     0.000 HD 
ENDROOT
BRANCH   6   8
HETATM    8  C   UNL     1     -10.556   7.604  70.022  1.00  0.00    -0.238 A  
HETATM    9  C   UNL     1      -9.172   7.743  70.191  1.00  0.00    -0.153 A  
HETATM   10  C   UNL     1      -8.307   6.634  70.248  1.00  0.00    -0.134 A  
HETATM   11  C   UNL     1      -6.824   6.860  70.378  1.00  0.00    -0.058 C  
HETATM   12  C   UNL     1      -8.878   5.363  70.125  1.00  0.00    -0.127 A  
HETATM   13  F   UNL     1      -6.476   8.178  70.352  1.00  0.00    -0.035 F  
HETATM   14  F   UNL     1      -6.302   6.375  71.533  1.00  0.00    -0.041 F  
HETATM   15  N   UNL     1      -8.047   4.168  70.130  1.00  0.00    -0.058 N  
HETATM   16  F   UNL     1      -6.129   6.285  69.360  1.00  0.00    -0.024 F  
HETATM   17  C   UNL     1     -10.260   5.194  69.952  1.00  0.00    -0.361 A  
HETATM   18  C   UNL     1     -11.094   6.319  69.896  1.00  0.00    -0.469 A  
HETATM   19  O   UNL     1      -7.354   3.967  71.130  1.00  0.00    -0.039 OA 
HETATM   20  O   UNL     1      -8.126   3.430  69.140  1.00  0.00    -0.056 OA 
ENDBRANCH   6   8
TORSDOF 1
ENDMDL
MODEL      115
REMARK 921   NORMALIZED FREE ENERGY PREDICTED BY IDOCK:   -4.04 KCAL/MOL
REMARK 922        TOTAL FREE ENERGY PREDICTED BY IDOCK:   -4.58 KCAL/MOL
REMARK 923 INTER-LIGAND FREE ENERGY PREDICTED BY IDOCK:   -4.97 KCAL/MOL
REMARK 924 INTRA-LIGAND FREE ENERGY PREDICTED BY IDOCK:    0.39 KCAL/MOL
REMARK 927      BINDING AFFINITY PREDICTED BY RF-SCORE:    0.00 PKD
ROOT
HETATM    1  C   UNL     1     -13.023   9.984  72.117  1.00  0.00    -0.460 C  
HETATM    2  C   UNL     1     -12.976  10.882  70.877  1.00  0.00    -0.347 C  
HETATM    3  C   UNL     1     -12.538  12.289  71.277  1.00  0.00    -0.336 C  
HETATM    4  C   UNL     1     -12.029  10.272  69.846  1.00  0.00    -0.150 C  
HETATM    5  O   UNL     1     -11.405   9.245  70.095  1.00  0.00    -0.240 OA 
HETATM    6  N   UNL     1     -11.980  10.949  68.634  1.00  0.00    -0.438 N  
HETATM    7  H   UNL     1     -12.647  11.708  68.495  1.00  0.00     0.000 HD 
ENDROOT
BRANCH   6   8
HETATM    8  C   UNL     1     -11.082  10.674  67.578  1.00  0.00    -0.300 A  
HETATM    9  C   UNL     1     -11.218  11.241  66.303  1.00  0.00    -0.160 A  
HETATM   10  C   UNL     1     -10.340  10.936  65.246  1.00  0.00    -0.334 A  
HETATM   11  C   UNL     1     -10.579  11.541  63.889  1.00  0.00    -0.391 C  
HETATM   12  C   UNL     1      -9.308  10.030  65.508  1.00  0.00    -0.216 A  
HETATM   13  F   UNL     1     -11.715  12.293  63.828  1.00  0.00    -0.398 F  
HETATM   14  F   UNL     1      -9.583  12.367  63.481  1.00  0.00    -0.284 F  
HETATM   15  N   UNL     1      -8.383   9.629  64.457  1.00  0.00    -0.156 N  
HETATM   16  F   UNL     1     -10.723  10.592  62.926  1.00  0.00    -0.133 F  
HETATM   17  C   UNL     1      -9.147   9.445  66.773  1.00  0.00    -0.168 A  
HETATM   18  C   UNL     1     -10.041   9.767  67.802  1.00  0.00    -0.223 A  
HETATM   19  O   UNL     1      -7.722  10.519  63.917  1.00  0.00    -0.078 OA 
HETATM   20  O   UNL     1      -8.312   8.419  64.209  1.00  0.00    -0.155 OA 
ENDBRANCH   6   8
TORSDOF 1
ENDMDL
MODEL      116
REMARK 921   NORMALIZED FREE ENERGY PREDICTED BY IDOCK:   -4.03 KCAL/MOL
REMARK 922        TOTAL FREE ENERGY PREDICTED BY IDOCK:   -4.57 KCAL/MOL
REMARK 923 INTER-LIGAND FREE ENERGY PREDICTED BY IDOCK:   -4.45 KCAL/MOL
REMARK 924 INTRA-LIGAND FREE ENERGY PREDICTED BY IDOCK:   -0.12 KCAL/MOL
REMARK 927      BINDING AFFINITY PREDICTED BY RF-SCORE:    0.00 PKD
ROOT
HETATM    1  C   UNL     1      -8.777  10.178  63.509  1.00  0.00    -0.221 C  
HETATM    2  C   UNL     1      -9.357  10.801  64.783  1.00  0.00    -0.264 C  
HETATM    3  C   UNL     1     -10.825  11.156  64.560  1.00  0.00    -0.320 C  
HETATM    4  C   UNL     1      -9.187   9.825  65.945  1.00  0.00    -0.187 C  
HETATM    5  O   UNL     1      -8.699   8.713  65.767  1.00  0.00    -0.161 OA 
HETATM    6  N   UNL     1      -9.589  10.321  67.180  1.00  0.00    -0.165 N  
HETATM    7  H   UNL     1      -9.848  11.307  67.226  1.00  0.00     0.000 HD 
ENDROOT
BRANCH   6   8
HETATM    8  C   UNL     1      -9.669   9.573  68.376  1.00  0.00    -0.154 A  
HETATM    9  C   UNL     1     -10.333   8.341  68.453  1.00  0.00    -0.237 A  
HETATM   10  C   UNL     1     -10.438   7.617  69.656  1.00  0.00    -0.235 A  
HETATM   11  C   UNL     1     -11.212   6.326  69.676  1.00  0.00    -0.437 C  
HETATM   12  C   UNL     1      -9.853   8.174  70.797  1.00  0.00    -0.180 A  
HETATM   13  F   UNL     1     -11.807   6.037  68.484  1.00  0.00    -0.023 F  
HETATM   14  F   UNL     1     -10.450   5.242  69.967  1.00  0.00    -0.314 F  
HETATM   15  N   UNL     1      -9.954   7.510  72.088  1.00  0.00    -0.173 N  
HETATM   16  F   UNL     1     -12.223   6.352  70.585  1.00  0.00    -0.411 F  
HETATM   17  C   UNL     1      -9.183   9.406  70.750  1.00  0.00    -0.278 A  
HETATM   18  C   UNL     1      -9.100  10.104  69.539  1.00  0.00    -0.213 A  
HETATM   19  O   UNL     1      -9.490   6.371  72.175  1.00  0.00    -0.151 OA 
HETATM   20  O   UNL     1     -10.473   8.155  73.008  1.00  0.00    -0.325 OA 
ENDBRANCH   6   8
TORSDOF 1
ENDMDL
MODEL      117
REMARK 921   NORMALIZED FREE ENERGY PREDICTED BY IDOCK:   -4.01 KCAL/MOL
REMARK 922        TOTAL FREE ENERGY PREDICTED BY IDOCK:   -4.55 KCAL/MOL
REMARK 923 INTER-LIGAND FREE ENERGY PREDICTED BY IDOCK:   -4.35 KCAL/MOL
REMARK 924 INTRA-LIGAND FREE ENERGY PREDICTED BY IDOCK:   -0.19 KCAL/MOL
REMARK 927      BINDING AFFINITY PREDICTED BY RF-SCORE:    0.00 PKD
ROOT
HETATM    1  C   UNL     1      -9.437   2.866  65.115  1.00  0.00    -0.083 C  
HETATM    2  C   UNL     1      -8.936   3.329  66.487  1.00  0.00    -0.161 C  
HETATM    3  C   UNL     1      -7.447   3.657  66.406  1.00  0.00    -0.077 C  
HETATM    4  C   UNL     1      -9.752   4.538  66.941  1.00  0.00    -0.205 C  
HETATM    5  O   UNL     1     -10.617   5.021  66.217  1.00  0.00    -0.304 OA 
HETATM    6  N   UNL     1      -9.453   4.989  68.221  1.00  0.00    -0.127 N  
HETATM    7  H   UNL     1      -8.815   4.421  68.780  1.00  0.00     0.000 HD 
ENDROOT
BRANCH   6   8
HETATM    8  C   UNL     1      -9.960   6.168  68.813  1.00  0.00    -0.145 A  
HETATM    9  C   UNL     1     -10.792   6.149  69.940  1.00  0.00    -0.420 A  
HETATM   10  C   UNL     1     -11.321   7.325  70.504  1.00  0.00    -0.308 A  
HETATM   11  C   UNL     1     -12.252   7.226  71.683  1.00  0.00    -0.343 C  
HETATM   12  C   UNL     1     -10.989   8.539  69.893  1.00  0.00    -0.165 A  
HETATM   13  F   UNL     1     -12.540   5.940  72.034  1.00  0.00    -0.273 F  
HETATM   14  F   UNL     1     -11.763   7.802  72.810  1.00  0.00    -0.363 F  
HETATM   15  N   UNL     1     -11.530   9.796  70.389  1.00  0.00    -0.269 N  
HETATM   16  F   UNL     1     -13.455   7.809  71.433  1.00  0.00    -0.347 F  
HETATM   17  C   UNL     1     -10.160   8.588  68.763  1.00  0.00    -0.210 A  
HETATM   18  C   UNL     1      -9.652   7.399  68.224  1.00  0.00    -0.153 A  
HETATM   19  O   UNL     1     -11.277  10.097  71.558  1.00  0.00    -0.157 OA 
HETATM   20  O   UNL     1     -12.177  10.480  69.586  1.00  0.00    -0.244 OA 
ENDBRANCH   6   8
TORSDOF 1
ENDMDL
MODEL      118
REMARK 921   NORMALIZED FREE ENERGY PREDICTED BY IDOCK:   -3.99 KCAL/MOL
REMARK 922        TOTAL FREE ENERGY PREDICTED BY IDOCK:   -4.52 KCAL/MOL
REMARK 923 INTER-LIGAND FREE ENERGY PREDICTED BY IDOCK:   -4.39 KCAL/MOL
REMARK 924 INTRA-LIGAND FREE ENERGY PREDICTED BY IDOCK:   -0.13 KCAL/MOL
REMARK 927      BINDING AFFINITY PREDICTED BY RF-SCORE:    0.00 PKD
ROOT
HETATM    1  C   UNL     1     -13.224  10.899  71.923  1.00  0.00    -0.508 C  
HETATM    2  C   UNL     1     -12.816  10.101  70.681  1.00  0.00    -0.314 C  
HETATM    3  C   UNL     1     -12.096  11.017  69.694  1.00  0.00    -0.411 C  
HETATM    4  C   UNL     1     -11.933   8.928  71.102  1.00  0.00    -0.293 C  
HETATM    5  O   UNL     1     -11.612   8.771  72.277  1.00  0.00    -0.365 OA 
HETATM    6  N   UNL     1     -11.579   8.070  70.067  1.00  0.00    -0.462 N  
HETATM    7  H   UNL     1     -12.020   8.225  69.160  1.00  0.00     0.000 HD 
ENDROOT
BRANCH   6   8
HETATM    8  C   UNL     1     -10.658   7.002  70.168  1.00  0.00    -0.228 A  
HETATM    9  C   UNL     1     -10.830   5.940  71.067  1.00  0.00    -0.339 A  
HETATM   10  C   UNL     1      -9.892   4.898  71.186  1.00  0.00    -0.261 A  
HETATM   11  C   UNL     1     -10.114   3.816  72.210  1.00  0.00    -0.157 C  
HETATM   12  C   UNL     1      -8.759   4.953  70.368  1.00  0.00    -0.100 A  
HETATM   13  F   UNL     1     -11.216   4.029  72.985  1.00  0.00    -0.263 F  
HETATM   14  F   UNL     1     -10.291   2.585  71.669  1.00  0.00    -0.210 F  
HETATM   15  N   UNL     1      -7.721   3.936  70.461  1.00  0.00    -0.044 N  
HETATM   16  F   UNL     1      -9.075   3.719  73.081  1.00  0.00    -0.099 F  
HETATM   17  C   UNL     1      -8.560   6.004  69.461  1.00  0.00    -0.119 A  
HETATM   18  C   UNL     1      -9.510   7.029  69.369  1.00  0.00    -0.145 A  
HETATM   19  O   UNL     1      -8.054   2.769  70.243  1.00  0.00    -0.042 OA 
HETATM   20  O   UNL     1      -6.577   4.329  70.721  1.00  0.00    -0.032 OA 
ENDBRANCH   6   8
TORSDOF 1
ENDMDL
MODEL      119
REMARK 921   NORMALIZED FREE ENERGY PREDICTED BY IDOCK:   -3.98 KCAL/MOL
REMARK 922        TOTAL FREE ENERGY PREDICTED BY IDOCK:   -4.52 KCAL/MOL
REMARK 923 INTER-LIGAND FREE ENERGY PREDICTED BY IDOCK:   -4.56 KCAL/MOL
REMARK 924 INTRA-LIGAND FREE ENERGY PREDICTED BY IDOCK:    0.04 KCAL/MOL
REMARK 927      BINDING AFFINITY PREDICTED BY RF-SCORE:    0.00 PKD
ROOT
HETATM    1  C   UNL     1     -10.347   7.366  66.837  1.00  0.00    -0.367 C  
HETATM    2  C   UNL     1      -9.372   8.546  66.770  1.00  0.00    -0.232 C  
HETATM    3  C   UNL     1      -8.942   8.776  65.324  1.00  0.00    -0.184 C  
HETATM    4  C   UNL     1     -10.039   9.787  67.361  1.00  0.00    -0.208 C  
HETATM    5  O   UNL     1     -11.202   9.751  67.750  1.00  0.00    -0.184 OA 
HETATM    6  N   UNL     1      -9.213  10.902  67.445  1.00  0.00    -0.147 N  
HETATM    7  H   UNL     1      -8.226  10.771  67.220  1.00  0.00     0.000 HD 
ENDROOT
BRANCH   6   8
HETATM    8  C   UNL     1      -9.627  12.201  67.816  1.00  0.00    -0.195 A  
HETATM    9  C   UNL     1     -10.501  12.438  68.886  1.00  0.00    -0.118 A  
HETATM   10  C   UNL     1     -10.936  13.732  69.228  1.00  0.00    -0.205 A  
HETATM   11  C   UNL     1     -11.917  13.907  70.358  1.00  0.00    -0.323 C  
HETATM   12  C   UNL     1     -10.466  14.797  68.453  1.00  0.00    -0.243 A  
HETATM   13  F   UNL     1     -12.340  12.726  70.890  1.00  0.00    -0.425 F  
HETATM   14  F   UNL     1     -11.419  14.613  71.404  1.00  0.00    -0.352 F  
HETATM   15  N   UNL     1     -10.903  16.160  68.715  1.00  0.00    -0.290 N  
HETATM   16  F   UNL     1     -13.048  14.546  69.955  1.00  0.00    -0.301 F  
HETATM   17  C   UNL     1      -9.593  14.589  67.375  1.00  0.00    -0.212 A  
HETATM   18  C   UNL     1      -9.181  13.289  67.058  1.00  0.00    -0.237 A  
HETATM   19  O   UNL     1     -10.667  16.623  69.834  1.00  0.00    -0.309 OA 
HETATM   20  O   UNL     1     -11.450  16.761  67.782  1.00  0.00    -0.024 OA 
ENDBRANCH   6   8
TORSDOF 1
ENDMDL
MODEL      120
REMARK 921   NORMALIZED FREE ENERGY PREDICTED BY IDOCK:   -3.98 KCAL/MOL
REMARK 922        TOTAL FREE ENERGY PREDICTED BY IDOCK:   -4.52 KCAL/MOL
REMARK 923 INTER-LIGAND FREE ENERGY PREDICTED BY IDOCK:   -4.74 KCAL/MOL
REMARK 924 INTRA-LIGAND FREE ENERGY PREDICTED BY IDOCK:    0.22 KCAL/MOL
REMARK 927      BINDING AFFINITY PREDICTED BY RF-SCORE:    0.00 PKD
ROOT
HETATM    1  C   UNL     1     -12.561  15.655  70.652  1.00  0.00    -0.461 C  
HETATM    2  C   UNL     1     -12.312  15.252  69.196  1.00  0.00    -0.092 C  
HETATM    3  C   UNL     1     -11.263  16.173  68.579  1.00  0.00    -0.365 C  
HETATM    4  C   UNL     1     -11.873  13.789  69.145  1.00  0.00    -0.354 C  
HETATM    5  O   UNL     1     -11.719  13.142  70.176  1.00  0.00    -0.272 OA 
HETATM    6  N   UNL     1     -11.711  13.279  67.862  1.00  0.00    -0.339 N  
HETATM    7  H   UNL     1     -12.003  13.871  67.083  1.00  0.00     0.000 HD 
ENDROOT
BRANCH   6   8
HETATM    8  C   UNL     1     -11.177  12.010  67.547  1.00  0.00    -0.294 A  
HETATM    9  C   UNL     1     -10.420  11.774  66.391  1.00  0.00    -0.271 A  
HETATM   10  C   UNL     1      -9.920  10.500  66.066  1.00  0.00    -0.295 A  
HETATM   11  C   UNL     1      -9.159  10.310  64.780  1.00  0.00    -0.219 C  
HETATM   12  C   UNL     1     -10.207   9.451  66.946  1.00  0.00    -0.248 A  
HETATM   13  F   UNL     1      -9.107  11.437  64.015  1.00  0.00    -0.161 F  
HETATM   14  F   UNL     1      -7.866   9.943  64.965  1.00  0.00    -0.110 F  
HETATM   15  N   UNL     1      -9.763   8.095  66.660  1.00  0.00    -0.230 N  
HETATM   16  F   UNL     1      -9.727   9.362  63.988  1.00  0.00    -0.090 F  
HETATM   17  C   UNL     1     -10.963   9.656  68.109  1.00  0.00    -0.185 A  
HETATM   18  C   UNL     1     -11.450  10.936  68.402  1.00  0.00    -0.374 A  
HETATM   19  O   UNL     1      -8.549   7.912  66.539  1.00  0.00    -0.129 OA 
HETATM   20  O   UNL     1     -10.638   7.223  66.592  1.00  0.00    -0.249 OA 
ENDBRANCH   6   8
TORSDOF 1
ENDMDL
MODEL      121
REMARK 921   NORMALIZED FREE ENERGY PREDICTED BY IDOCK:   -3.97 KCAL/MOL
REMARK 922        TOTAL FREE ENERGY PREDICTED BY IDOCK:   -4.51 KCAL/MOL
REMARK 923 INTER-LIGAND FREE ENERGY PREDICTED BY IDOCK:   -4.20 KCAL/MOL
REMARK 924 INTRA-LIGAND FREE ENERGY PREDICTED BY IDOCK:   -0.31 KCAL/MOL
REMARK 927      BINDING AFFINITY PREDICTED BY RF-SCORE:    0.00 PKD
ROOT
HETATM    1  C   UNL     1      -7.265   5.026  73.594  1.00  0.00    -0.082 C  
HETATM    2  C   UNL     1      -8.498   5.028  72.685  1.00  0.00    -0.116 C  
HETATM    3  C   UNL     1      -9.700   4.476  73.447  1.00  0.00    -0.151 C  
HETATM    4  C   UNL     1      -8.756   6.449  72.187  1.00  0.00    -0.132 C  
HETATM    5  O   UNL     1      -8.056   7.384  72.563  1.00  0.00    -0.097 OA 
HETATM    6  N   UNL     1      -9.795   6.561  71.271  1.00  0.00    -0.181 N  
HETATM    7  H   UNL     1     -10.212   5.694  70.929  1.00  0.00     0.000 HD 
ENDROOT
BRANCH   6   8
HETATM    8  C   UNL     1     -10.322   7.775  70.775  1.00  0.00    -0.203 A  
HETATM    9  C   UNL     1      -9.809   8.411  69.636  1.00  0.00    -0.184 A  
HETATM   10  C   UNL     1     -10.316   9.637  69.167  1.00  0.00    -0.219 A  
HETATM   11  C   UNL     1      -9.682  10.289  67.968  1.00  0.00    -0.149 C  
HETATM   12  C   UNL     1     -11.367  10.217  69.886  1.00  0.00    -0.290 A  
HETATM   13  F   UNL     1      -8.592   9.614  67.502  1.00  0.00    -0.122 F  
HETATM   14  F   UNL     1     -10.517  10.397  66.904  1.00  0.00    -0.257 F  
HETATM   15  N   UNL     1     -11.918  11.505  69.492  1.00  0.00    -0.331 N  
HETATM   16  F   UNL     1      -9.235  11.543  68.247  1.00  0.00    -0.158 F  
HETATM   17  C   UNL     1     -11.899   9.605  71.030  1.00  0.00    -0.428 A  
HETATM   18  C   UNL     1     -11.369   8.386  71.473  1.00  0.00    -0.334 A  
HETATM   19  O   UNL     1     -12.395  11.592  68.357  1.00  0.00    -0.461 OA 
HETATM   20  O   UNL     1     -11.893  12.406  70.339  1.00  0.00    -0.299 OA 
ENDBRANCH   6   8
TORSDOF 1
ENDMDL
MODEL      122
REMARK 921   NORMALIZED FREE ENERGY PREDICTED BY IDOCK:   -3.96 KCAL/MOL
REMARK 922        TOTAL FREE ENERGY PREDICTED BY IDOCK:   -4.49 KCAL/MOL
REMARK 923 INTER-LIGAND FREE ENERGY PREDICTED BY IDOCK:   -4.57 KCAL/MOL
REMARK 924 INTRA-LIGAND FREE ENERGY PREDICTED BY IDOCK:    0.08 KCAL/MOL
REMARK 927      BINDING AFFINITY PREDICTED BY RF-SCORE:    0.00 PKD
ROOT
HETATM    1  C   UNL     1      -6.310  18.522  69.548  1.00  0.00    -0.257 C  
HETATM    2  C   UNL     1      -7.185  18.122  68.355  1.00  0.00    -0.264 C  
HETATM    3  C   UNL     1      -6.452  18.433  67.053  1.00  0.00    -0.200 C  
HETATM    4  C   UNL     1      -7.535  16.639  68.461  1.00  0.00    -0.205 C  
HETATM    5  O   UNL     1      -7.086  15.949  69.371  1.00  0.00    -0.200 OA 
HETATM    6  N   UNL     1      -8.410  16.181  67.483  1.00  0.00    -0.156 N  
HETATM    7  H   UNL     1      -8.826  16.878  66.864  1.00  0.00     0.000 HD 
ENDROOT
BRANCH   6   8
HETATM    8  C   UNL     1      -8.773  14.831  67.276  1.00  0.00    -0.210 A  
HETATM    9  C   UNL     1     -10.085  14.438  66.979  1.00  0.00    -0.256 A  
HETATM   10  C   UNL     1     -10.445  13.088  66.808  1.00  0.00    -0.264 A  
HETATM   11  C   UNL     1     -11.885  12.735  66.544  1.00  0.00    -0.405 C  
HETATM   12  C   UNL     1      -9.437  12.129  66.948  1.00  0.00    -0.210 A  
HETATM   13  F   UNL     1     -12.717  13.815  66.575  1.00  0.00    -0.408 F  
HETATM   14  F   UNL     1     -12.088  12.163  65.331  1.00  0.00    -0.441 F  
HETATM   15  N   UNL     1      -9.736  10.709  66.828  1.00  0.00    -0.180 N  
HETATM   16  F   UNL     1     -12.377  11.874  67.474  1.00  0.00    -0.164 F  
HETATM   17  C   UNL     1      -8.115  12.492  67.246  1.00  0.00    -0.179 A  
HETATM   18  C   UNL     1      -7.790  13.844  67.414  1.00  0.00    -0.177 A  
HETATM   19  O   UNL     1     -10.219  10.322  65.761  1.00  0.00    -0.257 OA 
HETATM   20  O   UNL     1      -9.453   9.996  67.799  1.00  0.00    -0.140 OA 
ENDBRANCH   6   8
TORSDOF 1
ENDMDL
MODEL      123
REMARK 921   NORMALIZED FREE ENERGY PREDICTED BY IDOCK:   -3.94 KCAL/MOL
REMARK 922        TOTAL FREE ENERGY PREDICTED BY IDOCK:   -4.47 KCAL/MOL
REMARK 923 INTER-LIGAND FREE ENERGY PREDICTED BY IDOCK:   -4.17 KCAL/MOL
REMARK 924 INTRA-LIGAND FREE ENERGY PREDICTED BY IDOCK:   -0.30 KCAL/MOL
REMARK 927      BINDING AFFINITY PREDICTED BY RF-SCORE:    0.00 PKD
ROOT
HETATM    1  C   UNL     1      -5.618   4.767  65.383  1.00  0.00    -0.014 C  
HETATM    2  C   UNL     1      -7.090   5.084  65.100  1.00  0.00    -0.063 C  
HETATM    3  C   UNL     1      -7.964   3.921  65.562  1.00  0.00    -0.093 C  
HETATM    4  C   UNL     1      -7.471   6.385  65.805  1.00  0.00    -0.082 C  
HETATM    5  O   UNL     1      -6.662   6.979  66.511  1.00  0.00    -0.050 OA 
HETATM    6  N   UNL     1      -8.761   6.829  65.540  1.00  0.00    -0.323 N  
HETATM    7  H   UNL     1      -9.291   6.327  64.827  1.00  0.00     0.000 HD 
ENDROOT
BRANCH   6   8
HETATM    8  C   UNL     1      -9.399   7.918  66.176  1.00  0.00    -0.125 A  
HETATM    9  C   UNL     1      -9.495   9.186  65.586  1.00  0.00    -0.309 A  
HETATM   10  C   UNL     1     -10.101  10.275  66.240  1.00  0.00    -0.300 A  
HETATM   11  C   UNL     1     -10.121  11.623  65.568  1.00  0.00    -0.246 C  
HETATM   12  C   UNL     1     -10.613  10.054  67.522  1.00  0.00    -0.280 A  
HETATM   13  F   UNL     1      -9.453  11.640  64.379  1.00  0.00    -0.223 F  
HETATM   14  F   UNL     1     -11.370  12.066  65.281  1.00  0.00    -0.348 F  
HETATM   15  N   UNL     1     -11.217  11.138  68.282  1.00  0.00    -0.254 N  
HETATM   16  F   UNL     1      -9.527  12.580  66.329  1.00  0.00    -0.225 F  
HETATM   17  C   UNL     1     -10.530   8.796  68.138  1.00  0.00    -0.243 A  
HETATM   18  C   UNL     1      -9.917   7.733  67.462  1.00  0.00    -0.242 A  
HETATM   19  O   UNL     1     -12.194  11.702  67.783  1.00  0.00    -0.560 OA 
HETATM   20  O   UNL     1     -10.719  11.391  69.386  1.00  0.00    -0.196 OA 
ENDBRANCH   6   8
TORSDOF 1
ENDMDL
MODEL      124
REMARK 921   NORMALIZED FREE ENERGY PREDICTED BY IDOCK:   -3.93 KCAL/MOL
REMARK 922        TOTAL FREE ENERGY PREDICTED BY IDOCK:   -4.47 KCAL/MOL
REMARK 923 INTER-LIGAND FREE ENERGY PREDICTED BY IDOCK:   -4.23 KCAL/MOL
REMARK 924 INTRA-LIGAND FREE ENERGY PREDICTED BY IDOCK:   -0.23 KCAL/MOL
REMARK 927      BINDING AFFINITY PREDICTED BY RF-SCORE:    0.00 PKD
ROOT
HETATM    1  C   UNL     1     -10.190   8.806  66.924  1.00  0.00    -0.357 C  
HETATM    2  C   UNL     1      -9.159   9.753  66.302  1.00  0.00    -0.192 C  
HETATM    3  C   UNL     1      -9.364   9.816  64.791  1.00  0.00    -0.327 C  
HETATM    4  C   UNL     1      -9.290  11.134  66.943  1.00  0.00    -0.175 C  
HETATM    5  O   UNL     1     -10.159  11.360  67.780  1.00  0.00    -0.176 OA 
HETATM    6  N   UNL     1      -8.336  12.056  66.528  1.00  0.00    -0.374 N  
HETATM    7  H   UNL     1      -7.580  11.713  65.935  1.00  0.00     0.000 HD 
ENDROOT
BRANCH   6   8
HETATM    8  C   UNL     1      -8.328  13.430  66.858  1.00  0.00     0.004 A  
HETATM    9  C   UNL     1      -9.359  14.303  66.484  1.00  0.00    -0.292 A  
HETATM   10  C   UNL     1      -9.328  15.677  66.787  1.00  0.00    -0.268 A  
HETATM   11  C   UNL     1     -10.445  16.566  66.307  1.00  0.00    -0.281 C  
HETATM   12  C   UNL     1      -8.215  16.159  67.484  1.00  0.00    -0.150 A  
HETATM   13  F   UNL     1     -11.360  15.910  65.537  1.00  0.00    -0.236 F  
HETATM   14  F   UNL     1     -11.161  17.127  67.313  1.00  0.00    -0.223 F  
HETATM   15  N   UNL     1      -8.086  17.574  67.798  1.00  0.00    -0.217 N  
HETATM   16  F   UNL     1      -9.987  17.585  65.532  1.00  0.00    -0.152 F  
HETATM   17  C   UNL     1      -7.168  15.309  67.870  1.00  0.00    -0.158 A  
HETATM   18  C   UNL     1      -7.227  13.947  67.549  1.00  0.00    -0.178 A  
HETATM   19  O   UNL     1      -8.975  18.083  68.486  1.00  0.00    -0.289 OA 
HETATM   20  O   UNL     1      -7.076  18.150  67.374  1.00  0.00    -0.194 OA 
ENDBRANCH   6   8
TORSDOF 1
ENDMDL
MODEL      125
REMARK 921   NORMALIZED FREE ENERGY PREDICTED BY IDOCK:   -3.92 KCAL/MOL
REMARK 922        TOTAL FREE ENERGY PREDICTED BY IDOCK:   -4.46 KCAL/MOL
REMARK 923 INTER-LIGAND FREE ENERGY PREDICTED BY IDOCK:   -4.16 KCAL/MOL
REMARK 924 INTRA-LIGAND FREE ENERGY PREDICTED BY IDOCK:   -0.30 KCAL/MOL
REMARK 927      BINDING AFFINITY PREDICTED BY RF-SCORE:    0.00 PKD
ROOT
HETATM    1  C   UNL     1     -11.651  15.103  68.123  1.00  0.00    -0.358 C  
HETATM    2  C   UNL     1     -12.182  13.913  67.317  1.00  0.00    -0.324 C  
HETATM    3  C   UNL     1     -12.369  14.322  65.858  1.00  0.00    -0.420 C  
HETATM    4  C   UNL     1     -11.213  12.740  67.450  1.00  0.00    -0.294 C  
HETATM    5  O   UNL     1     -10.167  12.856  68.083  1.00  0.00    -0.226 OA 
HETATM    6  N   UNL     1     -11.639  11.567  66.840  1.00  0.00    -0.191 N  
HETATM    7  H   UNL     1     -12.588  11.553  66.465  1.00  0.00     0.000 HD 
ENDROOT
BRANCH   6   8
HETATM    8  C   UNL     1     -10.867  10.392  66.696  1.00  0.00    -0.070 A  
HETATM    9  C   UNL     1     -10.752   9.435  67.713  1.00  0.00    -0.290 A  
HETATM   10  C   UNL     1      -9.954   8.283  67.576  1.00  0.00    -0.252 A  
HETATM   11  C   UNL     1      -9.835   7.324  68.731  1.00  0.00    -0.161 C  
HETATM   12  C   UNL     1      -9.262   8.119  66.372  1.00  0.00    -0.199 A  
HETATM   13  F   UNL     1     -10.491   7.746  69.850  1.00  0.00    -0.209 F  
HETATM   14  F   UNL     1     -10.338   6.092  68.466  1.00  0.00    -0.158 F  
HETATM   15  N   UNL     1      -8.382   6.977  66.168  1.00  0.00    -0.124 N  
HETATM   16  F   UNL     1      -8.543   7.148  69.116  1.00  0.00    -0.128 F  
HETATM   17  C   UNL     1      -9.357   9.061  65.337  1.00  0.00    -0.213 A  
HETATM   18  C   UNL     1     -10.156  10.198  65.507  1.00  0.00    -0.338 A  
HETATM   19  O   UNL     1      -8.885   5.854  66.251  1.00  0.00    -0.133 OA 
HETATM   20  O   UNL     1      -7.201   7.225  65.895  1.00  0.00    -0.070 OA 
ENDBRANCH   6   8
TORSDOF 1
ENDMDL
MODEL      126
REMARK 921   NORMALIZED FREE ENERGY PREDICTED BY IDOCK:   -3.90 KCAL/MOL
REMARK 922        TOTAL FREE ENERGY PREDICTED BY IDOCK:   -4.44 KCAL/MOL
REMARK 923 INTER-LIGAND FREE ENERGY PREDICTED BY IDOCK:   -4.20 KCAL/MOL
REMARK 924 INTRA-LIGAND FREE ENERGY PREDICTED BY IDOCK:   -0.24 KCAL/MOL
REMARK 927      BINDING AFFINITY PREDICTED BY RF-SCORE:    0.00 PKD
ROOT
HETATM    1  C   UNL     1     -10.246  19.644  68.090  1.00  0.00    -0.580 C  
HETATM    2  C   UNL     1     -10.091  18.570  67.009  1.00  0.00    -0.385 C  
HETATM    3  C   UNL     1      -9.073  19.030  65.969  1.00  0.00    -0.062 C  
HETATM    4  C   UNL     1      -9.671  17.254  67.661  1.00  0.00    -0.272 C  
HETATM    5  O   UNL     1      -9.460  17.188  68.868  1.00  0.00    -0.262 OA 
HETATM    6  N   UNL     1      -9.594  16.175  66.787  1.00  0.00    -0.231 N  
HETATM    7  H   UNL     1      -9.927  16.321  65.834  1.00  0.00     0.000 HD 
ENDROOT
BRANCH   6   8
HETATM    8  C   UNL     1      -9.093  14.894  67.111  1.00  0.00    -0.222 A  
HETATM    9  C   UNL     1      -9.918  13.767  67.222  1.00  0.00    -0.239 A  
HETATM   10  C   UNL     1      -9.417  12.501  67.579  1.00  0.00    -0.185 A  
HETATM   11  C   UNL     1     -10.370  11.344  67.732  1.00  0.00    -0.182 C  
HETATM   12  C   UNL     1      -8.044  12.397  67.826  1.00  0.00    -0.162 A  
HETATM   13  F   UNL     1     -11.676  11.700  67.568  1.00  0.00    -0.364 F  
HETATM   14  F   UNL     1     -10.157  10.345  66.839  1.00  0.00    -0.219 F  
HETATM   15  N   UNL     1      -7.455  11.132  68.242  1.00  0.00    -0.088 N  
HETATM   16  F   UNL     1     -10.300  10.788  68.971  1.00  0.00    -0.179 F  
HETATM   17  C   UNL     1      -7.195  13.508  67.724  1.00  0.00    -0.157 A  
HETATM   18  C   UNL     1      -7.725  14.755  67.371  1.00  0.00    -0.230 A  
HETATM   19  O   UNL     1      -7.582  10.172  67.478  1.00  0.00    -0.090 OA 
HETATM   20  O   UNL     1      -6.844  11.128  69.318  1.00  0.00    -0.088 OA 
ENDBRANCH   6   8
TORSDOF 1
ENDMDL
MODEL      127
REMARK 921   NORMALIZED FREE ENERGY PREDICTED BY IDOCK:   -3.90 KCAL/MOL
REMARK 922        TOTAL FREE ENERGY PREDICTED BY IDOCK:   -4.43 KCAL/MOL
REMARK 923 INTER-LIGAND FREE ENERGY PREDICTED BY IDOCK:   -4.60 KCAL/MOL
REMARK 924 INTRA-LIGAND FREE ENERGY PREDICTED BY IDOCK:    0.17 KCAL/MOL
REMARK 927      BINDING AFFINITY PREDICTED BY RF-SCORE:    0.00 PKD
ROOT
HETATM    1  C   UNL     1     -12.920  11.213  71.928  1.00  0.00    -0.477 C  
HETATM    2  C   UNL     1     -12.595  10.245  70.786  1.00  0.00    -0.442 C  
HETATM    3  C   UNL     1     -11.633  10.911  69.805  1.00  0.00    -0.399 C  
HETATM    4  C   UNL     1     -12.004   8.961  71.365  1.00  0.00    -0.311 C  
HETATM    5  O   UNL     1     -11.808   8.846  72.571  1.00  0.00    -0.291 OA 
HETATM    6  N   UNL     1     -11.760   7.964  70.427  1.00  0.00    -0.471 N  
HETATM    7  H   UNL     1     -12.093   8.124  69.476  1.00  0.00     0.000 HD 
ENDROOT
BRANCH   6   8
HETATM    8  C   UNL     1     -11.088   6.747  70.683  1.00  0.00    -0.291 A  
HETATM    9  C   UNL     1     -10.211   6.160  69.761  1.00  0.00    -0.249 A  
HETATM   10  C   UNL     1      -9.572   4.931  70.008  1.00  0.00    -0.261 A  
HETATM   11  C   UNL     1      -8.683   4.334  68.949  1.00  0.00    -0.091 C  
HETATM   12  C   UNL     1      -9.844   4.296  71.223  1.00  0.00    -0.187 A  
HETATM   13  F   UNL     1      -8.661   5.059  67.794  1.00  0.00    -0.104 F  
HETATM   14  F   UNL     1      -7.385   4.228  69.328  1.00  0.00    -0.052 F  
HETATM   15  N   UNL     1      -9.257   3.001  71.537  1.00  0.00    -0.104 N  
HETATM   16  F   UNL     1      -9.090   3.089  68.585  1.00  0.00    -0.137 F  
HETATM   17  C   UNL     1     -10.719   4.858  72.165  1.00  0.00    -0.193 A  
HETATM   18  C   UNL     1     -11.343   6.081  71.887  1.00  0.00    -0.335 A  
HETATM   19  O   UNL     1      -8.026   2.930  71.558  1.00  0.00    -0.054 OA 
HETATM   20  O   UNL     1     -10.043   2.078  71.787  1.00  0.00    -0.155 OA 
ENDBRANCH   6   8
TORSDOF 1
ENDMDL
MODEL      128
REMARK 921   NORMALIZED FREE ENERGY PREDICTED BY IDOCK:   -3.90 KCAL/MOL
REMARK 922        TOTAL FREE ENERGY PREDICTED BY IDOCK:   -4.43 KCAL/MOL
REMARK 923 INTER-LIGAND FREE ENERGY PREDICTED BY IDOCK:   -4.18 KCAL/MOL
REMARK 924 INTRA-LIGAND FREE ENERGY PREDICTED BY IDOCK:   -0.25 KCAL/MOL
REMARK 927      BINDING AFFINITY PREDICTED BY RF-SCORE:    0.00 PKD
ROOT
HETATM    1  C   UNL     1     -10.235  14.249  65.262  1.00  0.00    -0.408 C  
HETATM    2  C   UNL     1      -9.443  13.657  66.433  1.00  0.00    -0.248 C  
HETATM    3  C   UNL     1      -9.632  14.527  67.673  1.00  0.00    -0.214 C  
HETATM    4  C   UNL     1      -9.903  12.222  66.680  1.00  0.00    -0.220 C  
HETATM    5  O   UNL     1     -10.815  11.731  66.022  1.00  0.00    -0.277 OA 
HETATM    6  N   UNL     1      -9.184  11.546  67.659  1.00  0.00    -0.168 N  
HETATM    7  H   UNL     1      -8.359  12.011  68.039  1.00  0.00     0.000 HD 
ENDROOT
BRANCH   6   8
HETATM    8  C   UNL     1      -9.502  10.268  68.172  1.00  0.00    -0.147 A  
HETATM    9  C   UNL     1      -9.319   9.091  67.434  1.00  0.00    -0.167 A  
HETATM   10  C   UNL     1      -9.671   7.825  67.938  1.00  0.00    -0.181 A  
HETATM   11  C   UNL     1      -9.495   6.608  67.068  1.00  0.00    -0.144 C  
HETATM   12  C   UNL     1     -10.222   7.772  69.222  1.00  0.00    -0.211 A  
HETATM   13  F   UNL     1      -9.063   6.905  65.810  1.00  0.00    -0.159 F  
HETATM   14  F   UNL     1      -8.593   5.719  67.555  1.00  0.00    -0.108 F  
HETATM   15  N   UNL     1     -10.651   6.507  69.799  1.00  0.00    -0.215 N  
HETATM   16  F   UNL     1     -10.662   5.931  66.898  1.00  0.00    -0.262 F  
HETATM   17  C   UNL     1     -10.418   8.934  69.984  1.00  0.00    -0.227 A  
HETATM   18  C   UNL     1     -10.062  10.180  69.451  1.00  0.00    -0.250 A  
HETATM   19  O   UNL     1      -9.797   5.625  69.924  1.00  0.00    -0.166 OA 
HETATM   20  O   UNL     1     -11.835   6.426  70.148  1.00  0.00    -0.409 OA 
ENDBRANCH   6   8
TORSDOF 1
ENDMDL
MODEL      129
REMARK 921   NORMALIZED FREE ENERGY PREDICTED BY IDOCK:   -3.88 KCAL/MOL
REMARK 922        TOTAL FREE ENERGY PREDICTED BY IDOCK:   -4.42 KCAL/MOL
REMARK 923 INTER-LIGAND FREE ENERGY PREDICTED BY IDOCK:   -4.15 KCAL/MOL
REMARK 924 INTRA-LIGAND FREE ENERGY PREDICTED BY IDOCK:   -0.27 KCAL/MOL
REMARK 927      BINDING AFFINITY PREDICTED BY RF-SCORE:    0.00 PKD
ROOT
HETATM    1  C   UNL     1      -7.054  10.594  67.703  1.00  0.00    -0.084 C  
HETATM    2  C   UNL     1      -7.361  11.553  68.857  1.00  0.00    -0.116 C  
HETATM    3  C   UNL     1      -6.519  11.179  70.075  1.00  0.00    -0.133 C  
HETATM    4  C   UNL     1      -7.090  12.987  68.407  1.00  0.00    -0.103 C  
HETATM    5  O   UNL     1      -6.642  13.222  67.289  1.00  0.00    -0.218 OA 
HETATM    6  N   UNL     1      -7.427  13.959  69.342  1.00  0.00    -0.331 N  
HETATM    7  H   UNL     1      -7.921  13.651  70.180  1.00  0.00     0.000 HD 
ENDROOT
BRANCH   6   8
HETATM    8  C   UNL     1      -7.143  15.339  69.227  1.00  0.00    -0.177 A  
HETATM    9  C   UNL     1      -8.125  16.289  68.914  1.00  0.00    -0.231 A  
HETATM   10  C   UNL     1      -7.828  17.657  68.768  1.00  0.00    -0.242 A  
HETATM   11  C   UNL     1      -8.924  18.613  68.378  1.00  0.00    -0.328 C  
HETATM   12  C   UNL     1      -6.497  18.050  68.944  1.00  0.00    -0.229 A  
HETATM   13  F   UNL     1     -10.114  17.996  68.133  1.00  0.00    -0.299 F  
HETATM   14  F   UNL     1      -9.193  19.544  69.328  1.00  0.00    -0.388 F  
HETATM   15  N   UNL     1      -6.101  19.439  68.768  1.00  0.00    -0.230 N  
HETATM   16  F   UNL     1      -8.627  19.290  67.237  1.00  0.00    -0.290 F  
HETATM   17  C   UNL     1      -5.494  17.122  69.256  1.00  0.00    -0.168 A  
HETATM   18  C   UNL     1      -5.821  15.767  69.391  1.00  0.00    -0.124 A  
HETATM   19  O   UNL     1      -6.643  20.278  69.492  1.00  0.00    -0.287 OA 
HETATM   20  O   UNL     1      -5.225  19.667  67.924  1.00  0.00    -0.171 OA 
ENDBRANCH   6   8
TORSDOF 1
ENDMDL
MODEL      130
REMARK 921   NORMALIZED FREE ENERGY PREDICTED BY IDOCK:   -3.88 KCAL/MOL
REMARK 922        TOTAL FREE ENERGY PREDICTED BY IDOCK:   -4.41 KCAL/MOL
REMARK 923 INTER-LIGAND FREE ENERGY PREDICTED BY IDOCK:   -4.52 KCAL/MOL
REMARK 924 INTRA-LIGAND FREE ENERGY PREDICTED BY IDOCK:    0.11 KCAL/MOL
REMARK 927      BINDING AFFINITY PREDICTED BY RF-SCORE:    0.00 PKD
ROOT
HETATM    1  C   UNL     1     -13.248  14.641  71.718  1.00  0.00    -0.434 C  
HETATM    2  C   UNL     1     -13.013  14.804  70.213  1.00  0.00    -0.179 C  
HETATM    3  C   UNL     1     -12.229  16.088  69.951  1.00  0.00    -0.053 C  
HETATM    4  C   UNL     1     -12.273  13.578  69.682  1.00  0.00    -0.247 C  
HETATM    5  O   UNL     1     -11.917  12.680  70.440  1.00  0.00    -0.338 OA 
HETATM    6  N   UNL     1     -12.089  13.566  68.305  1.00  0.00    -0.328 N  
HETATM    7  H   UNL     1     -12.551  14.298  67.765  1.00  0.00     0.000 HD 
ENDROOT
BRANCH   6   8
HETATM    8  C   UNL     1     -11.315  12.624  67.590  1.00  0.00    -0.310 A  
HETATM    9  C   UNL     1     -11.245  11.272  67.954  1.00  0.00    -0.353 A  
HETATM   10  C   UNL     1     -10.445  10.346  67.259  1.00  0.00    -0.304 A  
HETATM   11  C   UNL     1     -10.378   8.920  67.739  1.00  0.00    -0.242 C  
HETATM   12  C   UNL     1      -9.703  10.822  66.174  1.00  0.00    -0.207 A  
HETATM   13  F   UNL     1     -11.079   8.707  68.889  1.00  0.00    -0.128 F  
HETATM   14  F   UNL     1     -10.872   8.025  66.848  1.00  0.00    -0.400 F  
HETATM   15  N   UNL     1      -8.819   9.938  65.429  1.00  0.00    -0.157 N  
HETATM   16  F   UNL     1      -9.104   8.537  68.018  1.00  0.00    -0.138 F  
HETATM   17  C   UNL     1      -9.752  12.170  65.787  1.00  0.00    -0.245 A  
HETATM   18  C   UNL     1     -10.555  13.067  66.503  1.00  0.00    -0.292 A  
HETATM   19  O   UNL     1      -9.328   8.952  64.892  1.00  0.00    -0.031 OA 
HETATM   20  O   UNL     1      -7.626  10.264  65.369  1.00  0.00    -0.140 OA 
ENDBRANCH   6   8
TORSDOF 1
ENDMDL
MODEL      131
REMARK 921   NORMALIZED FREE ENERGY PREDICTED BY IDOCK:   -3.87 KCAL/MOL
REMARK 922        TOTAL FREE ENERGY PREDICTED BY IDOCK:   -4.40 KCAL/MOL
REMARK 923 INTER-LIGAND FREE ENERGY PREDICTED BY IDOCK:   -4.09 KCAL/MOL
REMARK 924 INTRA-LIGAND FREE ENERGY PREDICTED BY IDOCK:   -0.31 KCAL/MOL
REMARK 927      BINDING AFFINITY PREDICTED BY RF-SCORE:    0.00 PKD
ROOT
HETATM    1  C   UNL     1     -13.949   8.910  72.521  1.00  0.00    -0.466 C  
HETATM    2  C   UNL     1     -13.403   9.736  71.352  1.00  0.00    -0.449 C  
HETATM    3  C   UNL     1     -13.109  11.159  71.820  1.00  0.00    -0.536 C  
HETATM    4  C   UNL     1     -12.151   9.059  70.797  1.00  0.00    -0.125 C  
HETATM    5  O   UNL     1     -11.702   8.042  71.318  1.00  0.00    -0.275 OA 
HETATM    6  N   UNL     1     -11.620   9.666  69.665  1.00  0.00    -0.450 N  
HETATM    7  H   UNL     1     -12.159  10.422  69.243  1.00  0.00     0.000 HD 
ENDROOT
BRANCH   6   8
HETATM    8  C   UNL     1     -10.394   9.323  69.052  1.00  0.00    -0.214 A  
HETATM    9  C   UNL     1     -10.289   8.311  68.087  1.00  0.00    -0.253 A  
HETATM   10  C   UNL     1      -9.059   7.951  67.506  1.00  0.00    -0.141 A  
HETATM   11  C   UNL     1      -9.014   6.819  66.514  1.00  0.00    -0.149 C  
HETATM   12  C   UNL     1      -7.919   8.643  67.927  1.00  0.00    -0.107 A  
HETATM   13  F   UNL     1     -10.218   6.202  66.347  1.00  0.00    -0.217 F  
HETATM   14  F   UNL     1      -8.633   7.203  65.270  1.00  0.00    -0.142 F  
HETATM   15  N   UNL     1      -6.604   8.302  67.406  1.00  0.00    -0.057 N  
HETATM   16  F   UNL     1      -8.157   5.836  66.902  1.00  0.00    -0.100 F  
HETATM   17  C   UNL     1      -7.993   9.659  68.892  1.00  0.00    -0.089 A  
HETATM   18  C   UNL     1      -9.232   9.991  69.455  1.00  0.00    -0.238 A  
HETATM   19  O   UNL     1      -6.439   8.392  66.187  1.00  0.00    -0.052 OA 
HETATM   20  O   UNL     1      -5.743   7.977  68.233  1.00  0.00    -0.032 OA 
ENDBRANCH   6   8
TORSDOF 1
ENDMDL
MODEL      132
REMARK 921   NORMALIZED FREE ENERGY PREDICTED BY IDOCK:   -3.87 KCAL/MOL
REMARK 922        TOTAL FREE ENERGY PREDICTED BY IDOCK:   -4.40 KCAL/MOL
REMARK 923 INTER-LIGAND FREE ENERGY PREDICTED BY IDOCK:   -4.27 KCAL/MOL
REMARK 924 INTRA-LIGAND FREE ENERGY PREDICTED BY IDOCK:   -0.13 KCAL/MOL
REMARK 927      BINDING AFFINITY PREDICTED BY RF-SCORE:    0.00 PKD
ROOT
HETATM    1  C   UNL     1     -11.401  16.197  69.944  1.00  0.00    -0.318 C  
HETATM    2  C   UNL     1     -11.099  14.697  70.035  1.00  0.00    -0.204 C  
HETATM    3  C   UNL     1     -12.401  13.920  70.214  1.00  0.00    -0.413 C  
HETATM    4  C   UNL     1     -10.351  14.256  68.778  1.00  0.00    -0.239 C  
HETATM    5  O   UNL     1     -10.126  15.048  67.869  1.00  0.00    -0.225 OA 
HETATM    6  N   UNL     1      -9.934  12.930  68.790  1.00  0.00    -0.415 N  
HETATM    7  H   UNL     1     -10.056  12.409  69.659  1.00  0.00     0.000 HD 
ENDROOT
BRANCH   6   8
HETATM    8  C   UNL     1      -9.356  12.244  67.698  1.00  0.00    -0.186 A  
HETATM    9  C   UNL     1      -9.935  12.231  66.422  1.00  0.00    -0.243 A  
HETATM   10  C   UNL     1      -9.372  11.517  65.348  1.00  0.00    -0.177 A  
HETATM   11  C   UNL     1     -10.078  11.504  64.018  1.00  0.00    -0.321 C  
HETATM   12  C   UNL     1      -8.194  10.804  65.594  1.00  0.00    -0.127 A  
HETATM   13  F   UNL     1     -11.273  12.160  64.038  1.00  0.00    -0.332 F  
HETATM   14  F   UNL     1      -9.367  12.089  63.021  1.00  0.00    -0.324 F  
HETATM   15  N   UNL     1      -7.572  10.006  64.548  1.00  0.00    -0.140 N  
HETATM   16  F   UNL     1     -10.366  10.241  63.607  1.00  0.00    -0.269 F  
HETATM   17  C   UNL     1      -7.593  10.798  66.862  1.00  0.00    -0.123 A  
HETATM   18  C   UNL     1      -8.181  11.515  67.911  1.00  0.00    -0.134 A  
HETATM   19  O   UNL     1      -7.225  10.594  63.521  1.00  0.00     0.017 OA 
HETATM   20  O   UNL     1      -7.412   8.802  64.785  1.00  0.00    -0.094 OA 
ENDBRANCH   6   8
TORSDOF 1
ENDMDL
MODEL      133
REMARK 921   NORMALIZED FREE ENERGY PREDICTED BY IDOCK:   -3.86 KCAL/MOL
REMARK 922        TOTAL FREE ENERGY PREDICTED BY IDOCK:   -4.39 KCAL/MOL
REMARK 923 INTER-LIGAND FREE ENERGY PREDICTED BY IDOCK:   -4.70 KCAL/MOL
REMARK 924 INTRA-LIGAND FREE ENERGY PREDICTED BY IDOCK:    0.32 KCAL/MOL
REMARK 927      BINDING AFFINITY PREDICTED BY RF-SCORE:    0.00 PKD
ROOT
HETATM    1  C   UNL     1     -13.221   6.895  71.905  1.00  0.00    -0.218 C  
HETATM    2  C   UNL     1     -13.497   8.311  71.389  1.00  0.00    -0.247 C  
HETATM    3  C   UNL     1     -13.802   9.237  72.564  1.00  0.00    -0.453 C  
HETATM    4  C   UNL     1     -12.292   8.801  70.588  1.00  0.00     0.144 C  
HETATM    5  O   UNL     1     -11.284   8.110  70.482  1.00  0.00    -0.264 OA 
HETATM    6  N   UNL     1     -12.465  10.041  69.984  1.00  0.00    -0.506 N  
HETATM    7  H   UNL     1     -13.396  10.457  70.028  1.00  0.00     0.000 HD 
ENDROOT
BRANCH   6   8
HETATM    8  C   UNL     1     -11.458  10.773  69.315  1.00  0.00    -0.298 A  
HETATM    9  C   UNL     1     -11.749  11.787  68.392  1.00  0.00    -0.389 A  
HETATM   10  C   UNL     1     -10.742  12.489  67.704  1.00  0.00    -0.242 A  
HETATM   11  C   UNL     1     -11.129  13.529  66.686  1.00  0.00    -0.298 C  
HETATM   12  C   UNL     1      -9.415  12.137  67.970  1.00  0.00    -0.201 A  
HETATM   13  F   UNL     1     -12.476  13.618  66.495  1.00  0.00    -0.433 F  
HETATM   14  F   UNL     1     -10.732  14.783  67.016  1.00  0.00    -0.279 F  
HETATM   15  N   UNL     1      -8.317  12.785  67.268  1.00  0.00    -0.185 N  
HETATM   16  F   UNL     1     -10.608  13.260  65.459  1.00  0.00    -0.268 F  
HETATM   17  C   UNL     1      -9.094  11.126  68.887  1.00  0.00    -0.098 A  
HETATM   18  C   UNL     1     -10.120  10.443  69.553  1.00  0.00    -0.246 A  
HETATM   19  O   UNL     1      -8.215  14.009  67.386  1.00  0.00    -0.172 OA 
HETATM   20  O   UNL     1      -7.550  12.051  66.632  1.00  0.00    -0.048 OA 
ENDBRANCH   6   8
TORSDOF 1
ENDMDL
MODEL      134
REMARK 921   NORMALIZED FREE ENERGY PREDICTED BY IDOCK:   -3.85 KCAL/MOL
REMARK 922        TOTAL FREE ENERGY PREDICTED BY IDOCK:   -4.39 KCAL/MOL
REMARK 923 INTER-LIGAND FREE ENERGY PREDICTED BY IDOCK:   -4.07 KCAL/MOL
REMARK 924 INTRA-LIGAND FREE ENERGY PREDICTED BY IDOCK:   -0.31 KCAL/MOL
REMARK 927      BINDING AFFINITY PREDICTED BY RF-SCORE:    0.00 PKD
ROOT
HETATM    1  C   UNL     1      -6.234   8.179  66.892  1.00  0.00    -0.055 C  
HETATM    2  C   UNL     1      -7.084   9.037  67.835  1.00  0.00    -0.079 C  
HETATM    3  C   UNL     1      -6.291   9.351  69.100  1.00  0.00    -0.042 C  
HETATM    4  C   UNL     1      -7.510  10.313  67.110  1.00  0.00    -0.092 C  
HETATM    5  O   UNL     1      -7.128  10.545  65.967  1.00  0.00    -0.126 OA 
HETATM    6  N   UNL     1      -8.371  11.129  67.834  1.00  0.00    -0.125 N  
HETATM    7  H   UNL     1      -8.729  10.764  68.718  1.00  0.00     0.000 HD 
ENDROOT
BRANCH   6   8
HETATM    8  C   UNL     1      -8.791  12.422  67.449  1.00  0.00    -0.188 A  
HETATM    9  C   UNL     1      -9.982  12.651  66.747  1.00  0.00    -0.237 A  
HETATM   10  C   UNL     1     -10.377  13.937  66.336  1.00  0.00    -0.289 A  
HETATM   11  C   UNL     1     -11.644  14.102  65.538  1.00  0.00    -0.337 C  
HETATM   12  C   UNL     1      -9.530  15.004  66.652  1.00  0.00    -0.266 A  
HETATM   13  F   UNL     1     -12.246  12.917  65.234  1.00  0.00    -0.400 F  
HETATM   14  F   UNL     1     -12.594  14.832  66.174  1.00  0.00    -0.232 F  
HETATM   15  N   UNL     1      -9.845  16.359  66.226  1.00  0.00    -0.295 N  
HETATM   16  F   UNL     1     -11.417  14.708  64.342  1.00  0.00    -0.368 F  
HETATM   17  C   UNL     1      -8.331  14.805  67.353  1.00  0.00    -0.218 A  
HETATM   18  C   UNL     1      -7.964  13.511  67.744  1.00  0.00    -0.168 A  
HETATM   19  O   UNL     1     -10.911  16.841  66.620  1.00  0.00    -0.171 OA 
HETATM   20  O   UNL     1      -9.003  16.935  65.525  1.00  0.00    -0.384 OA 
ENDBRANCH   6   8
TORSDOF 1
ENDMDL
MODEL      135
REMARK 921   NORMALIZED FREE ENERGY PREDICTED BY IDOCK:   -3.85 KCAL/MOL
REMARK 922        TOTAL FREE ENERGY PREDICTED BY IDOCK:   -4.38 KCAL/MOL
REMARK 923 INTER-LIGAND FREE ENERGY PREDICTED BY IDOCK:   -4.07 KCAL/MOL
REMARK 924 INTRA-LIGAND FREE ENERGY PREDICTED BY IDOCK:   -0.31 KCAL/MOL
REMARK 927      BINDING AFFINITY PREDICTED BY RF-SCORE:    0.00 PKD
ROOT
HETATM    1  C   UNL     1     -11.602  15.427  68.196  1.00  0.00    -0.331 C  
HETATM    2  C   UNL     1     -12.096  14.292  67.293  1.00  0.00    -0.390 C  
HETATM    3  C   UNL     1     -12.260  14.806  65.865  1.00  0.00    -0.049 C  
HETATM    4  C   UNL     1     -11.109  13.129  67.360  1.00  0.00    -0.275 C  
HETATM    5  O   UNL     1     -10.079  13.213  68.022  1.00  0.00    -0.219 OA 
HETATM    6  N   UNL     1     -11.502  11.997  66.655  1.00  0.00    -0.352 N  
HETATM    7  H   UNL     1     -12.442  11.996  66.258  1.00  0.00     0.000 HD 
ENDROOT
BRANCH   6   8
HETATM    8  C   UNL     1     -10.707  10.848  66.441  1.00  0.00    -0.194 A  
HETATM    9  C   UNL     1      -9.822  10.733  65.360  1.00  0.00    -0.317 A  
HETATM   10  C   UNL     1      -9.059   9.573  65.133  1.00  0.00    -0.281 A  
HETATM   11  C   UNL     1      -8.168   9.498  63.921  1.00  0.00    -0.161 C  
HETATM   12  C   UNL     1      -9.212   8.514  66.034  1.00  0.00    -0.202 A  
HETATM   13  F   UNL     1      -8.270  10.591  63.112  1.00  0.00    -0.155 F  
HETATM   14  F   UNL     1      -6.850   9.399  64.223  1.00  0.00    -0.086 F  
HETATM   15  N   UNL     1      -8.491   7.264  65.846  1.00  0.00    -0.140 N  
HETATM   16  F   UNL     1      -8.473   8.434  63.130  1.00  0.00    -0.180 F  
HETATM   17  C   UNL     1     -10.091   8.601  67.124  1.00  0.00    -0.329 A  
HETATM   18  C   UNL     1     -10.840   9.768  67.319  1.00  0.00    -0.247 A  
HETATM   19  O   UNL     1      -7.259   7.320  65.829  1.00  0.00    -0.067 OA 
HETATM   20  O   UNL     1      -9.172   6.236  65.750  1.00  0.00    -0.090 OA 
ENDBRANCH   6   8
TORSDOF 1
ENDMDL
MODEL      136
REMARK 921   NORMALIZED FREE ENERGY PREDICTED BY IDOCK:   -3.85 KCAL/MOL
REMARK 922        TOTAL FREE ENERGY PREDICTED BY IDOCK:   -4.38 KCAL/MOL
REMARK 923 INTER-LIGAND FREE ENERGY PREDICTED BY IDOCK:   -4.48 KCAL/MOL
REMARK 924 INTRA-LIGAND FREE ENERGY PREDICTED BY IDOCK:    0.10 KCAL/MOL
REMARK 927      BINDING AFFINITY PREDICTED BY RF-SCORE:    0.00 PKD
ROOT
HETATM    1  C   UNL     1     -11.489  12.649  63.369  1.00  0.00    -0.499 C  
HETATM    2  C   UNL     1     -11.343  12.967  64.861  1.00  0.00    -0.332 C  
HETATM    3  C   UNL     1     -12.622  13.624  65.373  1.00  0.00    -0.533 C  
HETATM    4  C   UNL     1     -11.029  11.681  65.623  1.00  0.00    -0.266 C  
HETATM    5  O   UNL     1     -10.979  10.601  65.043  1.00  0.00    -0.017 OA 
HETATM    6  N   UNL     1     -10.777  11.861  66.978  1.00  0.00    -0.230 N  
HETATM    7  H   UNL     1     -10.710  12.820  67.319  1.00  0.00     0.000 HD 
ENDROOT
BRANCH   6   8
HETATM    8  C   UNL     1     -10.606  10.824  67.923  1.00  0.00    -0.221 A  
HETATM    9  C   UNL     1      -9.940   9.629  67.620  1.00  0.00    -0.218 A  
HETATM   10  C   UNL     1      -9.803   8.586  68.556  1.00  0.00    -0.186 A  
HETATM   11  C   UNL     1      -9.121   7.308  68.144  1.00  0.00    -0.134 C  
HETATM   12  C   UNL     1     -10.365   8.778  69.822  1.00  0.00    -0.211 A  
HETATM   13  F   UNL     1      -8.765   7.289  66.828  1.00  0.00    -0.115 F  
HETATM   14  F   UNL     1      -7.976   7.061  68.828  1.00  0.00    -0.110 F  
HETATM   15  N   UNL     1     -10.305   7.732  70.832  1.00  0.00    -0.200 N  
HETATM   16  F   UNL     1      -9.924   6.224  68.316  1.00  0.00    -0.126 F  
HETATM   17  C   UNL     1     -11.039   9.963  70.153  1.00  0.00    -0.353 A  
HETATM   18  C   UNL     1     -11.161  10.980  69.198  1.00  0.00    -0.318 A  
HETATM   19  O   UNL     1      -9.186   7.346  71.179  1.00  0.00    -0.154 OA 
HETATM   20  O   UNL     1     -11.384   7.332  71.287  1.00  0.00    -0.252 OA 
ENDBRANCH   6   8
TORSDOF 1
ENDMDL
MODEL      137
REMARK 921   NORMALIZED FREE ENERGY PREDICTED BY IDOCK:   -3.83 KCAL/MOL
REMARK 922        TOTAL FREE ENERGY PREDICTED BY IDOCK:   -4.36 KCAL/MOL
REMARK 923 INTER-LIGAND FREE ENERGY PREDICTED BY IDOCK:   -4.05 KCAL/MOL
REMARK 924 INTRA-LIGAND FREE ENERGY PREDICTED BY IDOCK:   -0.31 KCAL/MOL
REMARK 927      BINDING AFFINITY PREDICTED BY RF-SCORE:    0.00 PKD
ROOT
HETATM    1  C   UNL     1     -11.494  12.364  63.917  1.00  0.00    -0.509 C  
HETATM    2  C   UNL     1     -11.132  12.932  65.293  1.00  0.00    -0.313 C  
HETATM    3  C   UNL     1     -12.356  13.605  65.910  1.00  0.00    -0.516 C  
HETATM    4  C   UNL     1     -10.605  11.807  66.182  1.00  0.00    -0.260 C  
HETATM    5  O   UNL     1     -10.570  10.649  65.777  1.00  0.00    -0.194 OA 
HETATM    6  N   UNL     1     -10.150  12.220  67.428  1.00  0.00    -0.199 N  
HETATM    7  H   UNL     1     -10.100  13.225  67.598  1.00  0.00     0.000 HD 
ENDROOT
BRANCH   6   8
HETATM    8  C   UNL     1      -9.752  11.364  68.480  1.00  0.00    -0.197 A  
HETATM    9  C   UNL     1      -8.446  10.871  68.598  1.00  0.00    -0.152 A  
HETATM   10  C   UNL     1      -8.065   9.991  69.629  1.00  0.00    -0.180 A  
HETATM   11  C   UNL     1      -6.656   9.459  69.664  1.00  0.00    -0.044 C  
HETATM   12  C   UNL     1      -9.047   9.611  70.549  1.00  0.00    -0.139 A  
HETATM   13  F   UNL     1      -5.905   9.859  68.599  1.00  0.00    -0.039 F  
HETATM   14  F   UNL     1      -5.958   9.847  70.760  1.00  0.00    -0.058 F  
HETATM   15  N   UNL     1      -8.745   8.671  71.618  1.00  0.00    -0.194 N  
HETATM   16  F   UNL     1      -6.624   8.100  69.637  1.00  0.00    -0.036 F  
HETATM   17  C   UNL     1     -10.363  10.087  70.454  1.00  0.00    -0.268 A  
HETATM   18  C   UNL     1     -10.712  10.959  69.414  1.00  0.00    -0.265 A  
HETATM   19  O   UNL     1      -7.855   8.986  72.412  1.00  0.00    -0.345 OA 
HETATM   20  O   UNL     1      -9.429   7.641  71.665  1.00  0.00    -0.145 OA 
ENDBRANCH   6   8
TORSDOF 1
ENDMDL
MODEL      138
REMARK 921   NORMALIZED FREE ENERGY PREDICTED BY IDOCK:   -3.82 KCAL/MOL
REMARK 922        TOTAL FREE ENERGY PREDICTED BY IDOCK:   -4.35 KCAL/MOL
REMARK 923 INTER-LIGAND FREE ENERGY PREDICTED BY IDOCK:   -4.08 KCAL/MOL
REMARK 924 INTRA-LIGAND FREE ENERGY PREDICTED BY IDOCK:   -0.27 KCAL/MOL
REMARK 927      BINDING AFFINITY PREDICTED BY RF-SCORE:    0.00 PKD
ROOT
HETATM    1  C   UNL     1     -11.075   7.479  72.898  1.00  0.00    -0.426 C  
HETATM    2  C   UNL     1     -11.671   7.195  71.515  1.00  0.00    -0.324 C  
HETATM    3  C   UNL     1     -13.036   7.869  71.395  1.00  0.00    -0.301 C  
HETATM    4  C   UNL     1     -10.706   7.688  70.439  1.00  0.00    -0.236 C  
HETATM    5  O   UNL     1      -9.665   8.262  70.742  1.00  0.00    -0.167 OA 
HETATM    6  N   UNL     1     -11.095   7.395  69.137  1.00  0.00    -0.435 N  
HETATM    7  H   UNL     1     -11.910   6.792  69.016  1.00  0.00     0.000 HD 
ENDROOT
BRANCH   6   8
HETATM    8  C   UNL     1     -10.457   7.864  67.966  1.00  0.00    -0.185 A  
HETATM    9  C   UNL     1      -9.643   7.046  67.171  1.00  0.00    -0.187 A  
HETATM   10  C   UNL     1      -8.982   7.529  66.026  1.00  0.00    -0.164 A  
HETATM   11  C   UNL     1      -8.080   6.606  65.249  1.00  0.00    -0.130 C  
HETATM   12  C   UNL     1      -9.161   8.876  65.698  1.00  0.00    -0.212 A  
HETATM   13  F   UNL     1      -7.952   5.374  65.819  1.00  0.00    -0.097 F  
HETATM   14  F   UNL     1      -8.508   6.371  63.983  1.00  0.00    -0.071 F  
HETATM   15  N   UNL     1      -8.478   9.463  64.554  1.00  0.00    -0.166 N  
HETATM   16  F   UNL     1      -6.814   7.092  65.153  1.00  0.00    -0.047 F  
HETATM   17  C   UNL     1      -9.968   9.719  66.476  1.00  0.00    -0.304 A  
HETATM   18  C   UNL     1     -10.609   9.209  67.613  1.00  0.00    -0.307 A  
HETATM   19  O   UNL     1      -8.704   8.968  63.447  1.00  0.00    -0.183 OA 
HETATM   20  O   UNL     1      -7.747  10.435  64.780  1.00  0.00    -0.139 OA 
ENDBRANCH   6   8
TORSDOF 1
ENDMDL
MODEL      139
REMARK 921   NORMALIZED FREE ENERGY PREDICTED BY IDOCK:   -3.81 KCAL/MOL
REMARK 922        TOTAL FREE ENERGY PREDICTED BY IDOCK:   -4.33 KCAL/MOL
REMARK 923 INTER-LIGAND FREE ENERGY PREDICTED BY IDOCK:   -4.30 KCAL/MOL
REMARK 924 INTRA-LIGAND FREE ENERGY PREDICTED BY IDOCK:   -0.03 KCAL/MOL
REMARK 927      BINDING AFFINITY PREDICTED BY RF-SCORE:    0.00 PKD
ROOT
HETATM    1  C   UNL     1      -9.451   6.008  66.586  1.00  0.00    -0.167 C  
HETATM    2  C   UNL     1      -9.129   7.042  67.670  1.00  0.00    -0.122 C  
HETATM    3  C   UNL     1      -7.625   7.058  67.933  1.00  0.00    -0.111 C  
HETATM    4  C   UNL     1      -9.635   8.413  67.227  1.00  0.00    -0.165 C  
HETATM    5  O   UNL     1     -10.156   8.567  66.127  1.00  0.00    -0.221 OA 
HETATM    6  N   UNL     1      -9.486   9.418  68.176  1.00  0.00    -0.133 N  
HETATM    7  H   UNL     1      -9.167   9.140  69.105  1.00  0.00     0.000 HD 
ENDROOT
BRANCH   6   8
HETATM    8  C   UNL     1      -9.739  10.791  67.961  1.00  0.00    -0.162 A  
HETATM    9  C   UNL     1     -10.532  11.557  68.826  1.00  0.00    -0.227 A  
HETATM   10  C   UNL     1     -10.809  12.916  68.587  1.00  0.00    -0.288 A  
HETATM   11  C   UNL     1     -11.713  13.664  69.531  1.00  0.00    -0.322 C  
HETATM   12  C   UNL     1     -10.261  13.493  67.436  1.00  0.00    -0.237 A  
HETATM   13  F   UNL     1     -12.236  12.875  70.512  1.00  0.00    -0.402 F  
HETATM   14  F   UNL     1     -11.094  14.680  70.183  1.00  0.00    -0.266 F  
HETATM   15  N   UNL     1     -10.535  14.881  67.095  1.00  0.00    -0.267 N  
HETATM   16  F   UNL     1     -12.785  14.202  68.891  1.00  0.00    -0.200 F  
HETATM   17  C   UNL     1      -9.466  12.751  66.552  1.00  0.00    -0.253 A  
HETATM   18  C   UNL     1      -9.213  11.399  66.816  1.00  0.00    -0.185 A  
HETATM   19  O   UNL     1     -10.201  15.741  67.914  1.00  0.00    -0.235 OA 
HETATM   20  O   UNL     1     -11.056  15.093  65.992  1.00  0.00    -0.338 OA 
ENDBRANCH   6   8
TORSDOF 1
ENDMDL
MODEL      140
REMARK 921   NORMALIZED FREE ENERGY PREDICTED BY IDOCK:   -3.80 KCAL/MOL
REMARK 922        TOTAL FREE ENERGY PREDICTED BY IDOCK:   -4.32 KCAL/MOL
REMARK 923 INTER-LIGAND FREE ENERGY PREDICTED BY IDOCK:   -4.01 KCAL/MOL
REMARK 924 INTRA-LIGAND FREE ENERGY PREDICTED BY IDOCK:   -0.31 KCAL/MOL
REMARK 927      BINDING AFFINITY PREDICTED BY RF-SCORE:    0.00 PKD
ROOT
HETATM    1  C   UNL     1     -11.978  11.501  69.393  1.00  0.00    -0.392 C  
HETATM    2  C   UNL     1     -11.813  10.969  70.821  1.00  0.00    -0.383 C  
HETATM    3  C   UNL     1     -13.145  11.062  71.561  1.00  0.00    -0.500 C  
HETATM    4  C   UNL     1     -11.302   9.531  70.768  1.00  0.00    -0.321 C  
HETATM    5  O   UNL     1     -11.134   8.961  69.694  1.00  0.00    -0.175 OA 
HETATM    6  N   UNL     1     -11.019   8.972  72.009  1.00  0.00    -0.347 N  
HETATM    7  H   UNL     1     -11.065   9.589  72.821  1.00  0.00     0.000 HD 
ENDROOT
BRANCH   6   8
HETATM    8  C   UNL     1     -10.674   7.621  72.239  1.00  0.00    -0.260 A  
HETATM    9  C   UNL     1      -9.348   7.168  72.224  1.00  0.00    -0.157 A  
HETATM   10  C   UNL     1      -9.014   5.815  72.420  1.00  0.00    -0.141 A  
HETATM   11  C   UNL     1      -7.572   5.390  72.337  1.00  0.00    -0.097 C  
HETATM   12  C   UNL     1     -10.064   4.916  72.632  1.00  0.00    -0.174 A  
HETATM   13  F   UNL     1      -6.731   6.407  71.994  1.00  0.00    -0.060 F  
HETATM   14  F   UNL     1      -7.083   4.900  73.504  1.00  0.00    -0.068 F  
HETATM   15  N   UNL     1      -9.806   3.493  72.801  1.00  0.00    -0.139 N  
HETATM   16  F   UNL     1      -7.377   4.428  71.395  1.00  0.00    -0.048 F  
HETATM   17  C   UNL     1     -11.401   5.341  72.651  1.00  0.00    -0.296 A  
HETATM   18  C   UNL     1     -11.700   6.694  72.449  1.00  0.00    -0.260 A  
HETATM   19  O   UNL     1      -9.078   3.159  73.739  1.00  0.00    -0.085 OA 
HETATM   20  O   UNL     1     -10.363   2.727  72.005  1.00  0.00    -0.106 OA 
ENDBRANCH   6   8
TORSDOF 1
ENDMDL
MODEL      141
REMARK 921   NORMALIZED FREE ENERGY PREDICTED BY IDOCK:   -3.79 KCAL/MOL
REMARK 922        TOTAL FREE ENERGY PREDICTED BY IDOCK:   -4.32 KCAL/MOL
REMARK 923 INTER-LIGAND FREE ENERGY PREDICTED BY IDOCK:   -4.27 KCAL/MOL
REMARK 924 INTRA-LIGAND FREE ENERGY PREDICTED BY IDOCK:   -0.05 KCAL/MOL
REMARK 927      BINDING AFFINITY PREDICTED BY RF-SCORE:    0.00 PKD
ROOT
HETATM    1  C   UNL     1     -12.181  15.674  70.689  1.00  0.00    -0.446 C  
HETATM    2  C   UNL     1     -11.391  15.470  69.392  1.00  0.00    -0.321 C  
HETATM    3  C   UNL     1     -10.011  16.111  69.524  1.00  0.00    -0.222 C  
HETATM    4  C   UNL     1     -11.288  13.976  69.092  1.00  0.00    -0.281 C  
HETATM    5  O   UNL     1     -11.754  13.145  69.866  1.00  0.00    -0.300 OA 
HETATM    6  N   UNL     1     -10.676  13.671  67.883  1.00  0.00    -0.243 N  
HETATM    7  H   UNL     1     -10.456  14.449  67.260  1.00  0.00     0.000 HD 
ENDROOT
BRANCH   6   8
HETATM    8  C   UNL     1     -10.332  12.372  67.444  1.00  0.00    -0.207 A  
HETATM    9  C   UNL     1      -9.738  11.423  68.288  1.00  0.00    -0.202 A  
HETATM   10  C   UNL     1      -9.366  10.143  67.835  1.00  0.00    -0.151 A  
HETATM   11  C   UNL     1      -8.683   9.193  68.784  1.00  0.00    -0.132 C  
HETATM   12  C   UNL     1      -9.609   9.838  66.492  1.00  0.00    -0.194 A  
HETATM   13  F   UNL     1      -8.431   9.743  70.006  1.00  0.00    -0.157 F  
HETATM   14  F   UNL     1      -9.403   8.071  69.038  1.00  0.00    -0.147 F  
HETATM   15  N   UNL     1      -9.215   8.552  65.936  1.00  0.00    -0.202 N  
HETATM   16  F   UNL     1      -7.473   8.787  68.315  1.00  0.00    -0.085 F  
HETATM   17  C   UNL     1     -10.200  10.768  65.625  1.00  0.00    -0.320 A  
HETATM   18  C   UNL     1     -10.555  12.035  66.105  1.00  0.00    -0.298 A  
HETATM   19  O   UNL     1      -9.703   7.542  66.450  1.00  0.00    -0.184 OA 
HETATM   20  O   UNL     1      -8.444   8.575  64.969  1.00  0.00    -0.173 OA 
ENDBRANCH   6   8
TORSDOF 1
ENDMDL
MODEL      142
REMARK 921   NORMALIZED FREE ENERGY PREDICTED BY IDOCK:   -3.73 KCAL/MOL
REMARK 922        TOTAL FREE ENERGY PREDICTED BY IDOCK:   -4.25 KCAL/MOL
REMARK 923 INTER-LIGAND FREE ENERGY PREDICTED BY IDOCK:   -4.09 KCAL/MOL
REMARK 924 INTRA-LIGAND FREE ENERGY PREDICTED BY IDOCK:   -0.17 KCAL/MOL
REMARK 927      BINDING AFFINITY PREDICTED BY RF-SCORE:    0.00 PKD
ROOT
HETATM    1  C   UNL     1      -7.723   8.107  70.293  1.00  0.00    -0.085 C  
HETATM    2  C   UNL     1      -8.969   8.710  69.637  1.00  0.00    -0.145 C  
HETATM    3  C   UNL     1     -10.068   8.883  70.684  1.00  0.00    -0.262 C  
HETATM    4  C   UNL     1      -8.603  10.041  68.984  1.00  0.00    -0.153 C  
HETATM    5  O   UNL     1      -7.467  10.496  69.077  1.00  0.00    -0.092 OA 
HETATM    6  N   UNL     1      -9.635  10.637  68.270  1.00  0.00    -0.157 N  
HETATM    7  H   UNL     1     -10.492  10.097  68.147  1.00  0.00     0.000 HD 
ENDROOT
BRANCH   6   8
HETATM    8  C   UNL     1      -9.596  11.930  67.700  1.00  0.00    -0.185 A  
HETATM    9  C   UNL     1      -9.279  13.074  68.444  1.00  0.00    -0.136 A  
HETATM   10  C   UNL     1      -9.275  14.362  67.878  1.00  0.00    -0.195 A  
HETATM   11  C   UNL     1      -8.977  15.553  68.751  1.00  0.00    -0.204 C  
HETATM   12  C   UNL     1      -9.607  14.472  66.523  1.00  0.00    -0.293 A  
HETATM   13  F   UNL     1      -8.809  15.227  70.064  1.00  0.00    -0.204 F  
HETATM   14  F   UNL     1      -7.845  16.213  68.398  1.00  0.00    -0.141 F  
HETATM   15  N   UNL     1      -9.668  15.773  65.873  1.00  0.00    -0.336 N  
HETATM   16  F   UNL     1      -9.986  16.464  68.732  1.00  0.00    -0.208 F  
HETATM   17  C   UNL     1      -9.930  13.345  65.754  1.00  0.00    -0.264 A  
HETATM   18  C   UNL     1      -9.928  12.077  66.349  1.00  0.00    -0.240 A  
HETATM   19  O   UNL     1      -8.638  16.452  65.872  1.00  0.00    -0.407 OA 
HETATM   20  O   UNL     1     -10.743  16.083  65.345  1.00  0.00    -0.380 OA 
ENDBRANCH   6   8
TORSDOF 1
ENDMDL
MODEL      143
REMARK 921   NORMALIZED FREE ENERGY PREDICTED BY IDOCK:   -3.72 KCAL/MOL
REMARK 922        TOTAL FREE ENERGY PREDICTED BY IDOCK:   -4.24 KCAL/MOL
REMARK 923 INTER-LIGAND FREE ENERGY PREDICTED BY IDOCK:   -4.21 KCAL/MOL
REMARK 924 INTRA-LIGAND FREE ENERGY PREDICTED BY IDOCK:   -0.03 KCAL/MOL
REMARK 927      BINDING AFFINITY PREDICTED BY RF-SCORE:    0.00 PKD
ROOT
HETATM    1  C   UNL     1      -9.237   8.737  67.980  1.00  0.00    -0.147 C  
HETATM    2  C   UNL     1      -8.686  10.048  68.550  1.00  0.00    -0.123 C  
HETATM    3  C   UNL     1      -7.164  10.061  68.430  1.00  0.00    -0.073 C  
HETATM    4  C   UNL     1      -9.317  11.226  67.809  1.00  0.00    -0.163 C  
HETATM    5  O   UNL     1     -10.093  11.040  66.877  1.00  0.00    -0.197 OA 
HETATM    6  N   UNL     1      -8.966  12.475  68.307  1.00  0.00    -0.238 N  
HETATM    7  H   UNL     1      -8.426  12.500  69.172  1.00  0.00     0.000 HD 
ENDROOT
BRANCH   6   8
HETATM    8  C   UNL     1      -9.297  13.715  67.714  1.00  0.00    -0.218 A  
HETATM    9  C   UNL     1      -9.877  14.767  68.436  1.00  0.00    -0.220 A  
HETATM   10  C   UNL     1     -10.235  15.986  67.831  1.00  0.00    -0.258 A  
HETATM   11  C   UNL     1     -10.903  17.053  68.658  1.00  0.00    -0.284 C  
HETATM   12  C   UNL     1      -9.994  16.121  66.460  1.00  0.00    -0.280 A  
HETATM   13  F   UNL     1     -11.157  16.660  69.939  1.00  0.00    -0.333 F  
HETATM   14  F   UNL     1     -10.170  18.189  68.771  1.00  0.00    -0.344 F  
HETATM   15  N   UNL     1     -10.375  17.334  65.752  1.00  0.00    -0.298 N  
HETATM   16  F   UNL     1     -12.110  17.413  68.146  1.00  0.00     0.681 F  
HETATM   17  C   UNL     1      -9.417  15.085  65.712  1.00  0.00    -0.260 A  
HETATM   18  C   UNL     1      -9.075  13.882  66.343  1.00  0.00    -0.105 A  
HETATM   19  O   UNL     1      -9.874  18.394  66.137  1.00  0.00    -0.443 OA 
HETATM   20  O   UNL     1     -11.150  17.203  64.796  1.00  0.00    -0.909 OA 
ENDBRANCH   6   8
TORSDOF 1
ENDMDL
MODEL      144
REMARK 921   NORMALIZED FREE ENERGY PREDICTED BY IDOCK:   -3.68 KCAL/MOL
REMARK 922        TOTAL FREE ENERGY PREDICTED BY IDOCK:   -4.20 KCAL/MOL
REMARK 923 INTER-LIGAND FREE ENERGY PREDICTED BY IDOCK:   -3.89 KCAL/MOL
REMARK 924 INTRA-LIGAND FREE ENERGY PREDICTED BY IDOCK:   -0.31 KCAL/MOL
REMARK 927      BINDING AFFINITY PREDICTED BY RF-SCORE:    0.00 PKD
ROOT
HETATM    1  C   UNL     1     -13.270  10.499  71.912  1.00  0.00    -0.526 C  
HETATM    2  C   UNL     1     -12.909   9.010  71.893  1.00  0.00    -0.451 C  
HETATM    3  C   UNL     1     -14.172   8.177  71.691  1.00  0.00    -0.536 C  
HETATM    4  C   UNL     1     -11.885   8.752  70.788  1.00  0.00    -0.178 C  
HETATM    5  O   UNL     1     -11.517   9.659  70.048  1.00  0.00    -0.225 OA 
HETATM    6  N   UNL     1     -11.406   7.449  70.738  1.00  0.00    -0.275 N  
HETATM    7  H   UNL     1     -11.681   6.820  71.493  1.00  0.00     0.000 HD 
ENDROOT
BRANCH   6   8
HETATM    8  C   UNL     1     -10.569   6.923  69.728  1.00  0.00    -0.233 A  
HETATM    9  C   UNL     1      -9.176   6.846  69.865  1.00  0.00    -0.147 A  
HETATM   10  C   UNL     1      -8.346   6.353  68.841  1.00  0.00    -0.121 A  
HETATM   11  C   UNL     1      -6.853   6.349  69.038  1.00  0.00    -0.066 C  
HETATM   12  C   UNL     1      -8.961   5.936  67.657  1.00  0.00    -0.107 A  
HETATM   13  F   UNL     1      -6.464   6.918  70.214  1.00  0.00    -0.038 F  
HETATM   14  F   UNL     1      -6.311   5.105  69.047  1.00  0.00    -0.026 F  
HETATM   15  N   UNL     1      -8.170   5.454  66.534  1.00  0.00    -0.108 N  
HETATM   16  F   UNL     1      -6.209   7.052  68.068  1.00  0.00    -0.028 F  
HETATM   17  C   UNL     1     -10.352   6.003  67.490  1.00  0.00    -0.262 A  
HETATM   18  C   UNL     1     -11.151   6.502  68.527  1.00  0.00    -0.347 A  
HETATM   19  O   UNL     1      -7.452   4.470  66.731  1.00  0.00    -0.080 OA 
HETATM   20  O   UNL     1      -8.303   6.052  65.460  1.00  0.00    -0.136 OA 
ENDBRANCH   6   8
TORSDOF 1
ENDMDL
MODEL      145
REMARK 921   NORMALIZED FREE ENERGY PREDICTED BY IDOCK:   -3.66 KCAL/MOL
REMARK 922        TOTAL FREE ENERGY PREDICTED BY IDOCK:   -4.18 KCAL/MOL
REMARK 923 INTER-LIGAND FREE ENERGY PREDICTED BY IDOCK:   -4.54 KCAL/MOL
REMARK 924 INTRA-LIGAND FREE ENERGY PREDICTED BY IDOCK:    0.36 KCAL/MOL
REMARK 927      BINDING AFFINITY PREDICTED BY RF-SCORE:    0.00 PKD
ROOT
HETATM    1  C   UNL     1     -12.708  14.237  65.349  1.00  0.00    -0.385 C  
HETATM    2  C   UNL     1     -11.577  13.350  64.819  1.00  0.00    -0.367 C  
HETATM    3  C   UNL     1     -10.290  14.164  64.716  1.00  0.00    -0.387 C  
HETATM    4  C   UNL     1     -11.404  12.146  65.744  1.00  0.00    -0.354 C  
HETATM    5  O   UNL     1     -12.082  12.030  66.760  1.00  0.00    -0.613 OA 
HETATM    6  N   UNL     1     -10.468  11.214  65.309  1.00  0.00    -0.272 N  
HETATM    7  H   UNL     1     -10.070  11.349  64.380  1.00  0.00     0.000 HD 
ENDROOT
BRANCH   6   8
HETATM    8  C   UNL     1     -10.023  10.095  66.050  1.00  0.00    -0.256 A  
HETATM    9  C   UNL     1      -9.319   9.034  65.464  1.00  0.00    -0.255 A  
HETATM   10  C   UNL     1      -8.908   7.907  66.200  1.00  0.00    -0.197 A  
HETATM   11  C   UNL     1      -8.201   6.781  65.495  1.00  0.00    -0.131 C  
HETATM   12  C   UNL     1      -9.232   7.873  67.561  1.00  0.00    -0.136 A  
HETATM   13  F   UNL     1      -8.103   6.968  64.148  1.00  0.00    -0.130 F  
HETATM   14  F   UNL     1      -6.928   6.588  65.922  1.00  0.00    -0.055 F  
HETATM   15  N   UNL     1      -8.882   6.723  68.382  1.00  0.00    -0.123 N  
HETATM   16  F   UNL     1      -8.851   5.596  65.647  1.00  0.00    -0.142 F  
HETATM   17  C   UNL     1      -9.938   8.919  68.173  1.00  0.00    -0.208 A  
HETATM   18  C   UNL     1     -10.336  10.025  67.411  1.00  0.00    -0.292 A  
HETATM   19  O   UNL     1      -7.686   6.433  68.465  1.00  0.00    -0.100 OA 
HETATM   20  O   UNL     1      -9.812   6.145  68.958  1.00  0.00    -0.134 OA 
ENDBRANCH   6   8
TORSDOF 1
ENDMDL
MODEL      146
REMARK 921   NORMALIZED FREE ENERGY PREDICTED BY IDOCK:   -3.62 KCAL/MOL
REMARK 922        TOTAL FREE ENERGY PREDICTED BY IDOCK:   -4.14 KCAL/MOL
REMARK 923 INTER-LIGAND FREE ENERGY PREDICTED BY IDOCK:   -4.56 KCAL/MOL
REMARK 924 INTRA-LIGAND FREE ENERGY PREDICTED BY IDOCK:    0.42 KCAL/MOL
REMARK 927      BINDING AFFINITY PREDICTED BY RF-SCORE:    0.00 PKD
ROOT
HETATM    1  C   UNL     1     -13.207  10.764  71.967  1.00  0.00    -0.466 C  
HETATM    2  C   UNL     1     -12.982   9.249  71.962  1.00  0.00    -0.504 C  
HETATM    3  C   UNL     1     -14.316   8.531  71.770  1.00  0.00    -0.522 C  
HETATM    4  C   UNL     1     -11.988   8.889  70.860  1.00  0.00    -0.213 C  
HETATM    5  O   UNL     1     -11.541   9.751  70.110  1.00  0.00    -0.243 OA 
HETATM    6  N   UNL     1     -11.629   7.547  70.822  1.00  0.00    -0.314 N  
HETATM    7  H   UNL     1     -11.958   6.953  71.583  1.00  0.00     0.000 HD 
ENDROOT
BRANCH   6   8
HETATM    8  C   UNL     1     -10.844   6.938  69.816  1.00  0.00    -0.259 A  
HETATM    9  C   UNL     1     -10.534   5.571  69.825  1.00  0.00    -0.389 A  
HETATM   10  C   UNL     1      -9.724   4.978  68.839  1.00  0.00    -0.234 A  
HETATM   11  C   UNL     1      -9.388   3.513  68.941  1.00  0.00    -0.168 C  
HETATM   12  C   UNL     1      -9.224   5.808  67.830  1.00  0.00    -0.108 A  
HETATM   13  F   UNL     1      -9.876   2.928  70.072  1.00  0.00    -0.201 F  
HETATM   14  F   UNL     1      -9.878   2.773  67.915  1.00  0.00    -0.232 F  
HETATM   15  N   UNL     1      -8.343   5.280  66.798  1.00  0.00    -0.108 N  
HETATM   16  F   UNL     1      -8.045   3.300  68.975  1.00  0.00    -0.059 F  
HETATM   17  C   UNL     1      -9.516   7.179  67.797  1.00  0.00    -0.136 A  
HETATM   18  C   UNL     1     -10.322   7.740  68.796  1.00  0.00    -0.219 A  
HETATM   19  O   UNL     1      -8.784   4.369  66.092  1.00  0.00    -0.113 OA 
HETATM   20  O   UNL     1      -7.230   5.809  66.690  1.00  0.00    -0.071 OA 
ENDBRANCH   6   8
TORSDOF 1
ENDMDL
MODEL      147
REMARK 921   NORMALIZED FREE ENERGY PREDICTED BY IDOCK:   -3.62 KCAL/MOL
REMARK 922        TOTAL FREE ENERGY PREDICTED BY IDOCK:   -4.14 KCAL/MOL
REMARK 923 INTER-LIGAND FREE ENERGY PREDICTED BY IDOCK:   -4.09 KCAL/MOL
REMARK 924 INTRA-LIGAND FREE ENERGY PREDICTED BY IDOCK:   -0.05 KCAL/MOL
REMARK 927      BINDING AFFINITY PREDICTED BY RF-SCORE:    0.00 PKD
ROOT
HETATM    1  C   UNL     1      -9.281   4.388  68.177  1.00  0.00    -0.178 C  
HETATM    2  C   UNL     1      -9.282   5.407  67.033  1.00  0.00    -0.113 C  
HETATM    3  C   UNL     1     -10.484   5.158  66.124  1.00  0.00    -0.301 C  
HETATM    4  C   UNL     1      -9.303   6.819  67.614  1.00  0.00    -0.120 C  
HETATM    5  O   UNL     1      -9.365   7.000  68.827  1.00  0.00    -0.136 OA 
HETATM    6  N   UNL     1      -9.207   7.834  66.670  1.00  0.00    -0.168 N  
HETATM    7  H   UNL     1      -9.019   7.559  65.705  1.00  0.00     0.000 HD 
ENDROOT
BRANCH   6   8
HETATM    8  C   UNL     1      -9.348   9.216  66.935  1.00  0.00    -0.156 A  
HETATM    9  C   UNL     1     -10.273  10.023  66.260  1.00  0.00    -0.285 A  
HETATM   10  C   UNL     1     -10.384  11.405  66.505  1.00  0.00    -0.277 A  
HETATM   11  C   UNL     1     -11.365  12.221  65.704  1.00  0.00    -0.350 C  
HETATM   12  C   UNL     1      -9.526  11.962  67.457  1.00  0.00    -0.176 A  
HETATM   13  F   UNL     1     -12.006  11.498  64.742  1.00  0.00    -0.229 F  
HETATM   14  F   UNL     1     -12.351  12.771  66.455  1.00  0.00    -0.437 F  
HETATM   15  N   UNL     1      -9.548  13.390  67.737  1.00  0.00    -0.207 N  
HETATM   16  F   UNL     1     -10.757  13.241  65.042  1.00  0.00    -0.285 F  
HETATM   17  C   UNL     1      -8.588  11.179  68.147  1.00  0.00    -0.140 A  
HETATM   18  C   UNL     1      -8.500   9.807  67.877  1.00  0.00    -0.125 A  
HETATM   19  O   UNL     1     -10.611  13.870  68.138  1.00  0.00    -0.241 OA 
HETATM   20  O   UNL     1      -8.486  14.006  67.581  1.00  0.00    -0.165 OA 
ENDBRANCH   6   8
TORSDOF 1
ENDMDL
MODEL      148
REMARK 921   NORMALIZED FREE ENERGY PREDICTED BY IDOCK:   -3.61 KCAL/MOL
REMARK 922        TOTAL FREE ENERGY PREDICTED BY IDOCK:   -4.12 KCAL/MOL
REMARK 923 INTER-LIGAND FREE ENERGY PREDICTED BY IDOCK:   -3.81 KCAL/MOL
REMARK 924 INTRA-LIGAND FREE ENERGY PREDICTED BY IDOCK:   -0.31 KCAL/MOL
REMARK 927      BINDING AFFINITY PREDICTED BY RF-SCORE:    0.00 PKD
ROOT
HETATM    1  C   UNL     1     -11.024   8.024  72.748  1.00  0.00    -0.449 C  
HETATM    2  C   UNL     1     -11.623   7.989  71.339  1.00  0.00    -0.301 C  
HETATM    3  C   UNL     1     -12.045   9.396  70.924  1.00  0.00    -0.327 C  
HETATM    4  C   UNL     1     -10.599   7.402  70.369  1.00  0.00    -0.228 C  
HETATM    5  O   UNL     1      -9.475   7.091  70.752  1.00  0.00    -0.161 OA 
HETATM    6  N   UNL     1     -11.066   7.228  69.072  1.00  0.00    -0.446 N  
HETATM    7  H   UNL     1     -12.059   7.392  68.906  1.00  0.00     0.000 HD 
ENDROOT
BRANCH   6   8
HETATM    8  C   UNL     1     -10.278   6.842  67.963  1.00  0.00    -0.176 A  
HETATM    9  C   UNL     1      -9.621   7.771  67.145  1.00  0.00    -0.220 A  
HETATM   10  C   UNL     1      -8.866   7.382  66.022  1.00  0.00    -0.173 A  
HETATM   11  C   UNL     1      -8.230   8.437  65.156  1.00  0.00    -0.157 C  
HETATM   12  C   UNL     1      -8.791   6.014  65.738  1.00  0.00    -0.135 A  
HETATM   13  F   UNL     1      -8.539   9.707  65.545  1.00  0.00    -0.128 F  
HETATM   14  F   UNL     1      -6.875   8.385  65.147  1.00  0.00    -0.063 F  
HETATM   15  N   UNL     1      -8.067   5.533  64.571  1.00  0.00    -0.123 N  
HETATM   16  F   UNL     1      -8.638   8.348  63.862  1.00  0.00    -0.145 F  
HETATM   17  C   UNL     1      -9.440   5.062  66.538  1.00  0.00    -0.151 A  
HETATM   18  C   UNL     1     -10.187   5.483  67.646  1.00  0.00    -0.241 A  
HETATM   19  O   UNL     1      -6.866   5.807  64.499  1.00  0.00    -0.048 OA 
HETATM   20  O   UNL     1      -8.708   4.859  63.755  1.00  0.00    -0.139 OA 
ENDBRANCH   6   8
TORSDOF 1
ENDMDL
MODEL      149
REMARK 921   NORMALIZED FREE ENERGY PREDICTED BY IDOCK:   -3.59 KCAL/MOL
REMARK 922        TOTAL FREE ENERGY PREDICTED BY IDOCK:   -4.10 KCAL/MOL
REMARK 923 INTER-LIGAND FREE ENERGY PREDICTED BY IDOCK:   -3.96 KCAL/MOL
REMARK 924 INTRA-LIGAND FREE ENERGY PREDICTED BY IDOCK:   -0.14 KCAL/MOL
REMARK 927      BINDING AFFINITY PREDICTED BY RF-SCORE:    0.00 PKD
ROOT
HETATM    1  C   UNL     1      -9.718   3.411  64.920  1.00  0.00    -0.135 C  
HETATM    2  C   UNL     1      -9.204   3.098  66.328  1.00  0.00    -0.140 C  
HETATM    3  C   UNL     1      -7.697   2.859  66.284  1.00  0.00    -0.077 C  
HETATM    4  C   UNL     1      -9.560   4.252  67.264  1.00  0.00    -0.189 C  
HETATM    5  O   UNL     1     -10.124   5.256  66.839  1.00  0.00    -0.173 OA 
HETATM    6  N   UNL     1      -9.230   4.038  68.597  1.00  0.00    -0.138 N  
HETATM    7  H   UNL     1      -8.893   3.109  68.852  1.00  0.00     0.000 HD 
ENDROOT
BRANCH   6   8
HETATM    8  C   UNL     1      -9.322   5.000  69.628  1.00  0.00    -0.127 A  
HETATM    9  C   UNL     1     -10.529   5.622  69.974  1.00  0.00    -0.367 A  
HETATM   10  C   UNL     1     -10.608   6.605  70.979  1.00  0.00    -0.263 A  
HETATM   11  C   UNL     1     -11.929   7.270  71.262  1.00  0.00    -0.324 C  
HETATM   12  C   UNL     1      -9.422   6.953  71.634  1.00  0.00    -0.157 A  
HETATM   13  F   UNL     1     -12.923   6.869  70.418  1.00  0.00    -0.249 F  
HETATM   14  F   UNL     1     -12.401   7.028  72.510  1.00  0.00    -0.207 F  
HETATM   15  N   UNL     1      -9.411   7.991  72.655  1.00  0.00    -0.220 N  
HETATM   16  F   UNL     1     -11.860   8.621  71.121  1.00  0.00    -0.290 F  
HETATM   17  C   UNL     1      -8.200   6.348  71.308  1.00  0.00    -0.122 A  
HETATM   18  C   UNL     1      -8.155   5.377  70.300  1.00  0.00    -0.097 A  
HETATM   19  O   UNL     1     -10.129   7.818  73.643  1.00  0.00    -0.294 OA 
HETATM   20  O   UNL     1      -8.656   8.952  72.465  1.00  0.00    -0.396 OA 
ENDBRANCH   6   8
TORSDOF 1
ENDMDL
MODEL      150
REMARK 921   NORMALIZED FREE ENERGY PREDICTED BY IDOCK:   -3.56 KCAL/MOL
REMARK 922        TOTAL FREE ENERGY PREDICTED BY IDOCK:   -4.07 KCAL/MOL
REMARK 923 INTER-LIGAND FREE ENERGY PREDICTED BY IDOCK:   -3.76 KCAL/MOL
REMARK 924 INTRA-LIGAND FREE ENERGY PREDICTED BY IDOCK:   -0.31 KCAL/MOL
REMARK 927      BINDING AFFINITY PREDICTED BY RF-SCORE:    0.00 PKD
ROOT
HETATM    1  C   UNL     1      -5.671   4.926  65.228  1.00  0.00    -0.014 C  
HETATM    2  C   UNL     1      -7.173   5.218  65.154  1.00  0.00    -0.067 C  
HETATM    3  C   UNL     1      -7.955   4.052  65.754  1.00  0.00    -0.097 C  
HETATM    4  C   UNL     1      -7.470   6.526  65.885  1.00  0.00    -0.081 C  
HETATM    5  O   UNL     1      -6.577   7.142  66.460  1.00  0.00    -0.049 OA 
HETATM    6  N   UNL     1      -8.791   6.948  65.802  1.00  0.00    -0.309 N  
HETATM    7  H   UNL     1      -9.410   6.427  65.180  1.00  0.00     0.000 HD 
ENDROOT
BRANCH   6   8
HETATM    8  C   UNL     1      -9.348   8.040  66.506  1.00  0.00    -0.205 A  
HETATM    9  C   UNL     1      -9.723   7.956  67.854  1.00  0.00    -0.184 A  
HETATM   10  C   UNL     1     -10.309   9.037  68.540  1.00  0.00    -0.233 A  
HETATM   11  C   UNL     1     -10.735   8.859  69.973  1.00  0.00    -0.228 C  
HETATM   12  C   UNL     1     -10.514  10.220  67.823  1.00  0.00    -0.226 A  
HETATM   13  F   UNL     1     -10.557   7.588  70.433  1.00  0.00    -0.212 F  
HETATM   14  F   UNL     1     -10.057   9.651  70.842  1.00  0.00    -0.323 F  
HETATM   15  N   UNL     1     -11.154  11.369  68.447  1.00  0.00    -0.221 N  
HETATM   16  F   UNL     1     -12.057   9.124  70.148  1.00  0.00    -0.081 F  
HETATM   17  C   UNL     1     -10.151  10.332  66.473  1.00  0.00    -0.290 A  
HETATM   18  C   UNL     1      -9.574   9.237  65.818  1.00  0.00    -0.341 A  
HETATM   19  O   UNL     1     -10.608  11.845  69.446  1.00  0.00    -0.061 OA 
HETATM   20  O   UNL     1     -12.181  11.798  67.907  1.00  0.00    -0.538 OA 
ENDBRANCH   6   8
TORSDOF 1
ENDMDL
MODEL      151
REMARK 921   NORMALIZED FREE ENERGY PREDICTED BY IDOCK:   -3.56 KCAL/MOL
REMARK 922        TOTAL FREE ENERGY PREDICTED BY IDOCK:   -4.07 KCAL/MOL
REMARK 923 INTER-LIGAND FREE ENERGY PREDICTED BY IDOCK:   -3.76 KCAL/MOL
REMARK 924 INTRA-LIGAND FREE ENERGY PREDICTED BY IDOCK:   -0.32 KCAL/MOL
REMARK 927      BINDING AFFINITY PREDICTED BY RF-SCORE:    0.00 PKD
ROOT
HETATM    1  C   UNL     1     -10.268  12.056  63.781  1.00  0.00    -0.447 C  
HETATM    2  C   UNL     1      -9.861  10.581  63.862  1.00  0.00    -0.373 C  
HETATM    3  C   UNL     1      -8.475  10.395  63.250  1.00  0.00    -0.177 C  
HETATM    4  C   UNL     1      -9.895  10.127  65.320  1.00  0.00    -0.319 C  
HETATM    5  O   UNL     1     -10.166  10.917  66.219  1.00  0.00    -0.232 OA 
HETATM    6  N   UNL     1      -9.639   8.774  65.509  1.00  0.00    -0.453 N  
HETATM    7  H   UNL     1      -9.567   8.190  64.675  1.00  0.00     0.000 HD 
ENDROOT
BRANCH   6   8
HETATM    8  C   UNL     1      -9.471   8.140  66.761  1.00  0.00    -0.198 A  
HETATM    9  C   UNL     1      -8.245   8.123  67.440  1.00  0.00    -0.122 A  
HETATM   10  C   UNL     1      -8.076   7.460  68.670  1.00  0.00    -0.125 A  
HETATM   11  C   UNL     1      -6.717   7.438  69.318  1.00  0.00    -0.041 C  
HETATM   12  C   UNL     1      -9.188   6.803  69.207  1.00  0.00    -0.141 A  
HETATM   13  F   UNL     1      -5.751   8.032  68.560  1.00  0.00    -0.029 F  
HETATM   14  F   UNL     1      -6.676   8.078  70.513  1.00  0.00    -0.037 F  
HETATM   15  N   UNL     1      -9.085   6.059  70.453  1.00  0.00    -0.148 N  
HETATM   16  F   UNL     1      -6.276   6.170  69.534  1.00  0.00    -0.027 F  
HETATM   17  C   UNL     1     -10.427   6.802  68.549  1.00  0.00    -0.234 A  
HETATM   18  C   UNL     1     -10.561   7.467  67.324  1.00  0.00    -0.393 A  
HETATM   19  O   UNL     1      -8.733   6.684  71.457  1.00  0.00    -0.131 OA 
HETATM   20  O   UNL     1      -9.390   4.860  70.414  1.00  0.00    -0.133 OA 
ENDBRANCH   6   8
TORSDOF 1
ENDMDL
MODEL      152
REMARK 921   NORMALIZED FREE ENERGY PREDICTED BY IDOCK:   -3.56 KCAL/MOL
REMARK 922        TOTAL FREE ENERGY PREDICTED BY IDOCK:   -4.07 KCAL/MOL
REMARK 923 INTER-LIGAND FREE ENERGY PREDICTED BY IDOCK:   -4.21 KCAL/MOL
REMARK 924 INTRA-LIGAND FREE ENERGY PREDICTED BY IDOCK:    0.14 KCAL/MOL
REMARK 927      BINDING AFFINITY PREDICTED BY RF-SCORE:    0.00 PKD
ROOT
HETATM    1  C   UNL     1     -13.892   9.342  72.440  1.00  0.00    -0.484 C  
HETATM    2  C   UNL     1     -12.568   8.653  72.094  1.00  0.00    -0.451 C  
HETATM    3  C   UNL     1     -12.832   7.203  71.696  1.00  0.00    -0.420 C  
HETATM    4  C   UNL     1     -11.875   9.425  70.973  1.00  0.00    -0.322 C  
HETATM    5  O   UNL     1     -12.409  10.402  70.458  1.00  0.00    -0.298 OA 
HETATM    6  N   UNL     1     -10.613   8.949  70.639  1.00  0.00    -0.216 N  
HETATM    7  H   UNL     1     -10.216   8.218  71.231  1.00  0.00     0.000 HD 
ENDROOT
BRANCH   6   8
HETATM    8  C   UNL     1      -9.832   9.393  69.548  1.00  0.00    -0.183 A  
HETATM    9  C   UNL     1      -9.864  10.717  69.087  1.00  0.00    -0.217 A  
HETATM   10  C   UNL     1      -9.110  11.145  67.978  1.00  0.00    -0.153 A  
HETATM   11  C   UNL     1      -9.234  12.569  67.505  1.00  0.00    -0.188 C  
HETATM   12  C   UNL     1      -8.315  10.192  67.333  1.00  0.00    -0.118 A  
HETATM   13  F   UNL     1     -10.161  13.287  68.201  1.00  0.00    -0.215 F  
HETATM   14  F   UNL     1      -8.081  13.277  67.611  1.00  0.00    -0.127 F  
HETATM   15  N   UNL     1      -7.539  10.544  66.153  1.00  0.00    -0.131 N  
HETATM   16  F   UNL     1      -9.623  12.642  66.205  1.00  0.00    -0.243 F  
HETATM   17  C   UNL     1      -8.265   8.861  67.771  1.00  0.00    -0.110 A  
HETATM   18  C   UNL     1      -9.030   8.466  68.875  1.00  0.00    -0.146 A  
HETATM   19  O   UNL     1      -6.700  11.440  66.275  1.00  0.00    -0.069 OA 
HETATM   20  O   UNL     1      -7.762   9.894  65.124  1.00  0.00    -0.119 OA 
ENDBRANCH   6   8
TORSDOF 1
ENDMDL
MODEL      153
REMARK 921   NORMALIZED FREE ENERGY PREDICTED BY IDOCK:   -3.53 KCAL/MOL
REMARK 922        TOTAL FREE ENERGY PREDICTED BY IDOCK:   -4.04 KCAL/MOL
REMARK 923 INTER-LIGAND FREE ENERGY PREDICTED BY IDOCK:   -3.74 KCAL/MOL
REMARK 924 INTRA-LIGAND FREE ENERGY PREDICTED BY IDOCK:   -0.30 KCAL/MOL
REMARK 927      BINDING AFFINITY PREDICTED BY RF-SCORE:    0.00 PKD
ROOT
HETATM    1  C   UNL     1      -6.534  18.420  68.354  1.00  0.00    -0.215 C  
HETATM    2  C   UNL     1      -7.909  17.773  68.548  1.00  0.00    -0.290 C  
HETATM    3  C   UNL     1      -8.970  18.586  67.810  1.00  0.00    -0.289 C  
HETATM    4  C   UNL     1      -7.863  16.329  68.049  1.00  0.00    -0.149 C  
HETATM    5  O   UNL     1      -6.846  15.873  67.537  1.00  0.00    -0.150 OA 
HETATM    6  N   UNL     1      -9.030  15.606  68.265  1.00  0.00    -0.179 N  
HETATM    7  H   UNL     1      -9.759  16.050  68.825  1.00  0.00     0.000 HD 
ENDROOT
BRANCH   6   8
HETATM    8  C   UNL     1      -9.292  14.308  67.772  1.00  0.00    -0.198 A  
HETATM    9  C   UNL     1      -8.824  13.150  68.409  1.00  0.00    -0.117 A  
HETATM   10  C   UNL     1      -9.059  11.862  67.894  1.00  0.00    -0.183 A  
HETATM   11  C   UNL     1      -8.481  10.665  68.603  1.00  0.00    -0.142 C  
HETATM   12  C   UNL     1      -9.784  11.766  66.702  1.00  0.00    -0.202 A  
HETATM   13  F   UNL     1      -7.702  10.998  69.671  1.00  0.00    -0.119 F  
HETATM   14  F   UNL     1      -9.422   9.821  69.096  1.00  0.00    -0.156 F  
HETATM   15  N   UNL     1     -10.032  10.473  66.081  1.00  0.00    -0.220 N  
HETATM   16  F   UNL     1      -7.679   9.929  67.789  1.00  0.00    -0.089 F  
HETATM   17  C   UNL     1     -10.262  12.907  66.041  1.00  0.00    -0.293 A  
HETATM   18  C   UNL     1     -10.008  14.176  66.578  1.00  0.00    -0.289 A  
HETATM   19  O   UNL     1     -10.650   9.637  66.745  1.00  0.00    -0.209 OA 
HETATM   20  O   UNL     1      -9.629  10.325  64.920  1.00  0.00    -0.253 OA 
ENDBRANCH   6   8
TORSDOF 1
ENDMDL
MODEL      154
REMARK 921   NORMALIZED FREE ENERGY PREDICTED BY IDOCK:   -3.48 KCAL/MOL
REMARK 922        TOTAL FREE ENERGY PREDICTED BY IDOCK:   -3.99 KCAL/MOL
REMARK 923 INTER-LIGAND FREE ENERGY PREDICTED BY IDOCK:   -3.96 KCAL/MOL
REMARK 924 INTRA-LIGAND FREE ENERGY PREDICTED BY IDOCK:   -0.03 KCAL/MOL
REMARK 927      BINDING AFFINITY PREDICTED BY RF-SCORE:    0.00 PKD
ROOT
HETATM    1  C   UNL     1      -7.328   7.632  63.899  1.00  0.00    -0.092 C  
HETATM    2  C   UNL     1      -7.623   9.124  63.715  1.00  0.00    -0.113 C  
HETATM    3  C   UNL     1      -8.415   9.337  62.427  1.00  0.00    -0.207 C  
HETATM    4  C   UNL     1      -8.385   9.643  64.933  1.00  0.00    -0.148 C  
HETATM    5  O   UNL     1      -8.712   8.884  65.841  1.00  0.00    -0.149 OA 
HETATM    6  N   UNL     1      -8.624  11.012  64.926  1.00  0.00    -0.372 N  
HETATM    7  H   UNL     1      -8.183  11.560  64.186  1.00  0.00     0.000 HD 
ENDROOT
BRANCH   6   8
HETATM    8  C   UNL     1      -9.427  11.708  65.857  1.00  0.00    -0.228 A  
HETATM    9  C   UNL     1      -8.991  12.867  66.513  1.00  0.00    -0.086 A  
HETATM   10  C   UNL     1      -9.783  13.536  67.465  1.00  0.00    -0.228 A  
HETATM   11  C   UNL     1      -9.229  14.746  68.169  1.00  0.00    -0.195 C  
HETATM   12  C   UNL     1     -11.043  12.999  67.746  1.00  0.00    -0.262 A  
HETATM   13  F   UNL     1      -7.935  15.017  67.833  1.00  0.00    -0.117 F  
HETATM   14  F   UNL     1      -9.913  15.887  67.905  1.00  0.00    -0.215 F  
HETATM   15  N   UNL     1     -11.906  13.606  68.749  1.00  0.00    -0.344 N  
HETATM   16  F   UNL     1      -9.226  14.592  69.520  1.00  0.00    -0.095 F  
HETATM   17  C   UNL     1     -11.505  11.839  67.107  1.00  0.00    -0.366 A  
HETATM   18  C   UNL     1     -10.691  11.195  66.167  1.00  0.00    -0.285 A  
HETATM   19  O   UNL     1     -12.236  14.781  68.573  1.00  0.00    -0.215 OA 
HETATM   20  O   UNL     1     -12.265  12.884  69.688  1.00  0.00    -0.245 OA 
ENDBRANCH   6   8
TORSDOF 1
ENDMDL
MODEL      155
REMARK 921   NORMALIZED FREE ENERGY PREDICTED BY IDOCK:   -3.48 KCAL/MOL
REMARK 922        TOTAL FREE ENERGY PREDICTED BY IDOCK:   -3.99 KCAL/MOL
REMARK 923 INTER-LIGAND FREE ENERGY PREDICTED BY IDOCK:   -3.68 KCAL/MOL
REMARK 924 INTRA-LIGAND FREE ENERGY PREDICTED BY IDOCK:   -0.31 KCAL/MOL
REMARK 927      BINDING AFFINITY PREDICTED BY RF-SCORE:    0.00 PKD
ROOT
HETATM    1  C   UNL     1     -10.562  15.679  65.591  1.00  0.00    -0.393 C  
HETATM    2  C   UNL     1     -10.056  14.904  66.812  1.00  0.00    -0.254 C  
HETATM    3  C   UNL     1     -10.914  15.244  68.028  1.00  0.00    -0.299 C  
HETATM    4  C   UNL     1     -10.084  13.408  66.507  1.00  0.00    -0.280 C  
HETATM    5  O   UNL     1     -10.517  12.991  65.437  1.00  0.00    -0.285 OA 
HETATM    6  N   UNL     1      -9.552  12.605  67.509  1.00  0.00    -0.180 N  
HETATM    7  H   UNL     1      -9.095  13.074  68.292  1.00  0.00     0.000 HD 
ENDROOT
BRANCH   6   8
HETATM    8  C   UNL     1      -9.592  11.192  67.534  1.00  0.00    -0.168 A  
HETATM    9  C   UNL     1      -8.616  10.398  66.917  1.00  0.00    -0.127 A  
HETATM   10  C   UNL     1      -8.681   8.992  66.915  1.00  0.00    -0.132 A  
HETATM   11  C   UNL     1      -7.625   8.204  66.186  1.00  0.00    -0.089 C  
HETATM   12  C   UNL     1      -9.770   8.396  67.558  1.00  0.00    -0.162 A  
HETATM   13  F   UNL     1      -6.730   8.990  65.523  1.00  0.00    -0.068 F  
HETATM   14  F   UNL     1      -6.876   7.419  67.001  1.00  0.00    -0.063 F  
HETATM   15  N   UNL     1      -9.933   6.950  67.565  1.00  0.00    -0.139 N  
HETATM   16  F   UNL     1      -8.160   7.390  65.238  1.00  0.00    -0.105 F  
HETATM   17  C   UNL     1     -10.763   9.165  68.183  1.00  0.00    -0.186 A  
HETATM   18  C   UNL     1     -10.672  10.563  68.163  1.00  0.00    -0.273 A  
HETATM   19  O   UNL     1      -9.028   6.282  68.070  1.00  0.00    -0.116 OA 
HETATM   20  O   UNL     1     -10.985   6.504  67.089  1.00  0.00    -0.356 OA 
ENDBRANCH   6   8
TORSDOF 1
ENDMDL
MODEL      156
REMARK 921   NORMALIZED FREE ENERGY PREDICTED BY IDOCK:   -3.45 KCAL/MOL
REMARK 922        TOTAL FREE ENERGY PREDICTED BY IDOCK:   -3.95 KCAL/MOL
REMARK 923 INTER-LIGAND FREE ENERGY PREDICTED BY IDOCK:   -3.84 KCAL/MOL
REMARK 924 INTRA-LIGAND FREE ENERGY PREDICTED BY IDOCK:   -0.11 KCAL/MOL
REMARK 927      BINDING AFFINITY PREDICTED BY RF-SCORE:    0.00 PKD
ROOT
HETATM    1  C   UNL     1      -7.450   7.577  73.399  1.00  0.00    -0.120 C  
HETATM    2  C   UNL     1      -8.684   7.435  72.503  1.00  0.00    -0.151 C  
HETATM    3  C   UNL     1      -9.950   7.587  73.343  1.00  0.00    -0.378 C  
HETATM    4  C   UNL     1      -8.623   8.479  71.389  1.00  0.00    -0.175 C  
HETATM    5  O   UNL     1      -7.709   9.297  71.343  1.00  0.00    -0.334 OA 
HETATM    6  N   UNL     1      -9.644   8.383  70.451  1.00  0.00    -0.167 N  
HETATM    7  H   UNL     1     -10.265   7.576  70.517  1.00  0.00     0.000 HD 
ENDROOT
BRANCH   6   8
HETATM    8  C   UNL     1      -9.892   9.311  69.414  1.00  0.00    -0.174 A  
HETATM    9  C   UNL     1      -8.926   9.651  68.458  1.00  0.00    -0.124 A  
HETATM   10  C   UNL     1      -9.169  10.601  67.448  1.00  0.00    -0.153 A  
HETATM   11  C   UNL     1      -8.066  10.956  66.486  1.00  0.00    -0.154 C  
HETATM   12  C   UNL     1     -10.427  11.212  67.428  1.00  0.00    -0.220 A  
HETATM   13  F   UNL     1      -6.886  10.335  66.769  1.00  0.00    -0.077 F  
HETATM   14  F   UNL     1      -8.344  10.628  65.199  1.00  0.00    -0.163 F  
HETATM   15  N   UNL     1     -10.742  12.237  66.443  1.00  0.00    -0.244 N  
HETATM   16  F   UNL     1      -7.786  12.286  66.501  1.00  0.00    -0.049 F  
HETATM   17  C   UNL     1     -11.412  10.893  68.373  1.00  0.00    -0.374 A  
HETATM   18  C   UNL     1     -11.138   9.946  69.368  1.00  0.00    -0.237 A  
HETATM   19  O   UNL     1     -10.667  11.918  65.254  1.00  0.00    -0.267 OA 
HETATM   20  O   UNL     1     -11.092  13.341  66.879  1.00  0.00    -0.279 OA 
ENDBRANCH   6   8
TORSDOF 1
ENDMDL
MODEL      157
REMARK 921   NORMALIZED FREE ENERGY PREDICTED BY IDOCK:   -3.44 KCAL/MOL
REMARK 922        TOTAL FREE ENERGY PREDICTED BY IDOCK:   -3.94 KCAL/MOL
REMARK 923 INTER-LIGAND FREE ENERGY PREDICTED BY IDOCK:   -4.32 KCAL/MOL
REMARK 924 INTRA-LIGAND FREE ENERGY PREDICTED BY IDOCK:    0.38 KCAL/MOL
REMARK 927      BINDING AFFINITY PREDICTED BY RF-SCORE:    0.00 PKD
ROOT
HETATM    1  C   UNL     1     -11.639  15.210  68.025  1.00  0.00    -0.345 C  
HETATM    2  C   UNL     1     -12.085  13.793  67.650  1.00  0.00    -0.333 C  
HETATM    3  C   UNL     1     -12.302  13.705  66.142  1.00  0.00    -0.476 C  
HETATM    4  C   UNL     1     -11.035  12.791  68.125  1.00  0.00    -0.247 C  
HETATM    5  O   UNL     1     -10.000  13.171  68.665  1.00  0.00    -0.204 OA 
HETATM    6  N   UNL     1     -11.378  11.458  67.928  1.00  0.00    -0.287 N  
HETATM    7  H   UNL     1     -12.324  11.263  67.599  1.00  0.00     0.000 HD 
ENDROOT
BRANCH   6   8
HETATM    8  C   UNL     1     -10.525  10.353  68.146  1.00  0.00    -0.188 A  
HETATM    9  C   UNL     1     -10.783   9.083  67.613  1.00  0.00    -0.232 A  
HETATM   10  C   UNL     1      -9.948   7.978  67.862  1.00  0.00    -0.223 A  
HETATM   11  C   UNL     1     -10.316   6.631  67.300  1.00  0.00    -0.232 C  
HETATM   12  C   UNL     1      -8.830   8.186  68.677  1.00  0.00    -0.134 A  
HETATM   13  F   UNL     1     -11.512   6.631  66.644  1.00  0.00    -0.410 F  
HETATM   14  F   UNL     1      -9.417   6.154  66.402  1.00  0.00    -0.157 F  
HETATM   15  N   UNL     1      -7.941   7.086  69.017  1.00  0.00    -0.115 N  
HETATM   16  F   UNL     1     -10.439   5.689  68.273  1.00  0.00    -0.204 F  
HETATM   17  C   UNL     1      -8.547   9.445  69.226  1.00  0.00    -0.143 A  
HETATM   18  C   UNL     1      -9.401  10.524  68.962  1.00  0.00    -0.205 A  
HETATM   19  O   UNL     1      -7.388   6.497  68.085  1.00  0.00    -0.085 OA 
HETATM   20  O   UNL     1      -7.784   6.847  70.222  1.00  0.00    -0.096 OA 
ENDBRANCH   6   8
TORSDOF 1
ENDMDL
MODEL      158
REMARK 921   NORMALIZED FREE ENERGY PREDICTED BY IDOCK:   -3.41 KCAL/MOL
REMARK 922        TOTAL FREE ENERGY PREDICTED BY IDOCK:   -3.91 KCAL/MOL
REMARK 923 INTER-LIGAND FREE ENERGY PREDICTED BY IDOCK:   -3.88 KCAL/MOL
REMARK 924 INTRA-LIGAND FREE ENERGY PREDICTED BY IDOCK:   -0.03 KCAL/MOL
REMARK 927      BINDING AFFINITY PREDICTED BY RF-SCORE:    0.00 PKD
ROOT
HETATM    1  C   UNL     1      -6.226   7.486  68.162  1.00  0.00    -0.040 C  
HETATM    2  C   UNL     1      -7.651   7.838  67.724  1.00  0.00    -0.113 C  
HETATM    3  C   UNL     1      -8.656   7.165  68.656  1.00  0.00    -0.124 C  
HETATM    4  C   UNL     1      -7.819   9.356  67.722  1.00  0.00    -0.095 C  
HETATM    5  O   UNL     1      -6.906  10.091  68.087  1.00  0.00    -0.063 OA 
HETATM    6  N   UNL     1      -9.047   9.800  67.245  1.00  0.00    -0.134 N  
HETATM    7  H   UNL     1      -9.672   9.103  66.840  1.00  0.00     0.000 HD 
ENDROOT
BRANCH   6   8
HETATM    8  C   UNL     1      -9.501  11.139  67.276  1.00  0.00    -0.164 A  
HETATM    9  C   UNL     1     -10.029  11.783  66.149  1.00  0.00    -0.254 A  
HETATM   10  C   UNL     1     -10.448  13.126  66.178  1.00  0.00    -0.287 A  
HETATM   11  C   UNL     1     -10.956  13.769  64.915  1.00  0.00    -0.375 C  
HETATM   12  C   UNL     1     -10.317  13.816  67.387  1.00  0.00    -0.252 A  
HETATM   13  F   UNL     1     -10.878  12.952  63.826  1.00  0.00    -0.379 F  
HETATM   14  F   UNL     1     -12.257  14.147  64.985  1.00  0.00    -0.369 F  
HETATM   15  N   UNL     1     -10.686  15.220  67.489  1.00  0.00    -0.278 N  
HETATM   16  F   UNL     1     -10.242  14.878  64.584  1.00  0.00    -0.394 F  
HETATM   17  C   UNL     1      -9.790  13.198  68.531  1.00  0.00    -0.155 A  
HETATM   18  C   UNL     1      -9.378  11.861  68.468  1.00  0.00    -0.142 A  
HETATM   19  O   UNL     1     -11.855  15.517  67.228  1.00  0.00    -0.036 OA 
HETATM   20  O   UNL     1      -9.804  16.005  67.859  1.00  0.00    -0.224 OA 
ENDBRANCH   6   8
TORSDOF 1
ENDMDL
MODEL      159
REMARK 921   NORMALIZED FREE ENERGY PREDICTED BY IDOCK:   -3.37 KCAL/MOL
REMARK 922        TOTAL FREE ENERGY PREDICTED BY IDOCK:   -3.87 KCAL/MOL
REMARK 923 INTER-LIGAND FREE ENERGY PREDICTED BY IDOCK:   -3.56 KCAL/MOL
REMARK 924 INTRA-LIGAND FREE ENERGY PREDICTED BY IDOCK:   -0.31 KCAL/MOL
REMARK 927      BINDING AFFINITY PREDICTED BY RF-SCORE:    0.00 PKD
ROOT
HETATM    1  C   UNL     1     -13.893   9.345  72.448  1.00  0.00    -0.422 C  
HETATM    2  C   UNL     1     -12.570   8.638  72.134  1.00  0.00    -0.451 C  
HETATM    3  C   UNL     1     -12.842   7.186  71.748  1.00  0.00    -0.368 C  
HETATM    4  C   UNL     1     -11.849   9.388  71.016  1.00  0.00    -0.322 C  
HETATM    5  O   UNL     1     -12.363  10.365  70.480  1.00  0.00    -0.298 OA 
HETATM    6  N   UNL     1     -10.585   8.895  70.711  1.00  0.00    -0.211 N  
HETATM    7  H   UNL     1     -10.208   8.168  71.319  1.00  0.00     0.000 HD 
ENDROOT
BRANCH   6   8
HETATM    8  C   UNL     1      -9.781   9.318  69.629  1.00  0.00    -0.182 A  
HETATM    9  C   UNL     1      -9.960   8.841  68.324  1.00  0.00    -0.202 A  
HETATM   10  C   UNL     1      -9.134   9.240  67.257  1.00  0.00    -0.143 A  
HETATM   11  C   UNL     1      -9.351   8.646  65.890  1.00  0.00    -0.195 C  
HETATM   12  C   UNL     1      -8.105  10.144  67.542  1.00  0.00    -0.113 A  
HETATM   13  F   UNL     1     -10.325   7.692  65.868  1.00  0.00     0.112 F  
HETATM   14  F   UNL     1      -9.722   9.557  64.956  1.00  0.00    -0.344 F  
HETATM   15  N   UNL     1      -7.180  10.573  66.503  1.00  0.00    -0.117 N  
HETATM   16  F   UNL     1      -8.234   8.031  65.419  1.00  0.00    -0.118 F  
HETATM   17  C   UNL     1      -7.900  10.637  68.839  1.00  0.00    -0.129 A  
HETATM   18  C   UNL     1      -8.738  10.216  69.880  1.00  0.00    -0.091 A  
HETATM   19  O   UNL     1      -7.660  11.139  65.518  1.00  0.00     0.090 OA 
HETATM   20  O   UNL     1      -5.977  10.363  66.705  1.00  0.00    -0.057 OA 
ENDBRANCH   6   8
TORSDOF 1
ENDMDL
MODEL      160
REMARK 921   NORMALIZED FREE ENERGY PREDICTED BY IDOCK:   -3.37 KCAL/MOL
REMARK 922        TOTAL FREE ENERGY PREDICTED BY IDOCK:   -3.87 KCAL/MOL
REMARK 923 INTER-LIGAND FREE ENERGY PREDICTED BY IDOCK:   -3.60 KCAL/MOL
REMARK 924 INTRA-LIGAND FREE ENERGY PREDICTED BY IDOCK:   -0.27 KCAL/MOL
REMARK 927      BINDING AFFINITY PREDICTED BY RF-SCORE:    0.00 PKD
ROOT
HETATM    1  C   UNL     1     -12.072  15.498  69.751  1.00  0.00    -0.372 C  
HETATM    2  C   UNL     1     -11.038  15.495  68.620  1.00  0.00    -0.297 C  
HETATM    3  C   UNL     1      -9.925  16.490  68.939  1.00  0.00    -0.262 C  
HETATM    4  C   UNL     1     -10.491  14.081  68.440  1.00  0.00    -0.253 C  
HETATM    5  O   UNL     1     -10.849  13.168  69.178  1.00  0.00    -0.200 OA 
HETATM    6  N   UNL     1      -9.613  13.933  67.372  1.00  0.00    -0.229 N  
HETATM    7  H   UNL     1      -9.501  14.730  66.745  1.00  0.00     0.000 HD 
ENDROOT
BRANCH   6   8
HETATM    8  C   UNL     1      -8.864  12.770  67.083  1.00  0.00    -0.202 A  
HETATM    9  C   UNL     1      -9.191  11.903  66.031  1.00  0.00    -0.176 A  
HETATM   10  C   UNL     1      -8.462  10.729  65.770  1.00  0.00    -0.174 A  
HETATM   11  C   UNL     1      -8.902   9.817  64.655  1.00  0.00    -0.212 C  
HETATM   12  C   UNL     1      -7.380  10.442  66.609  1.00  0.00    -0.114 A  
HETATM   13  F   UNL     1     -10.054  10.225  64.051  1.00  0.00    -0.385 F  
HETATM   14  F   UNL     1      -7.993   9.707  63.655  1.00  0.00    -0.119 F  
HETATM   15  N   UNL     1      -6.602   9.224  66.433  1.00  0.00    -0.066 N  
HETATM   16  F   UNL     1      -9.155   8.556  65.098  1.00  0.00    -0.206 F  
HETATM   17  C   UNL     1      -7.031  11.289  67.671  1.00  0.00    -0.085 A  
HETATM   18  C   UNL     1      -7.780  12.449  67.907  1.00  0.00    -0.135 A  
HETATM   19  O   UNL     1      -6.044   9.064  65.345  1.00  0.00    -0.060 OA 
HETATM   20  O   UNL     1      -6.535   8.459  67.403  1.00  0.00    -0.056 OA 
ENDBRANCH   6   8
TORSDOF 1
ENDMDL
MODEL      161
REMARK 921   NORMALIZED FREE ENERGY PREDICTED BY IDOCK:   -3.36 KCAL/MOL
REMARK 922        TOTAL FREE ENERGY PREDICTED BY IDOCK:   -3.87 KCAL/MOL
REMARK 923 INTER-LIGAND FREE ENERGY PREDICTED BY IDOCK:   -3.58 KCAL/MOL
REMARK 924 INTRA-LIGAND FREE ENERGY PREDICTED BY IDOCK:   -0.29 KCAL/MOL
REMARK 927      BINDING AFFINITY PREDICTED BY RF-SCORE:    0.00 PKD
ROOT
HETATM    1  C   UNL     1     -10.734  16.913  68.228  1.00  0.00    -0.377 C  
HETATM    2  C   UNL     1     -10.578  15.551  68.912  1.00  0.00    -0.240 C  
HETATM    3  C   UNL     1     -11.938  15.064  69.406  1.00  0.00    -0.336 C  
HETATM    4  C   UNL     1      -9.951  14.562  67.931  1.00  0.00    -0.226 C  
HETATM    5  O   UNL     1      -9.701  14.893  66.776  1.00  0.00    -0.234 OA 
HETATM    6  N   UNL     1      -9.669  13.313  68.472  1.00  0.00    -0.356 N  
HETATM    7  H   UNL     1      -9.792  13.200  69.478  1.00  0.00     0.000 HD 
ENDROOT
BRANCH   6   8
HETATM    8  C   UNL     1      -9.226  12.186  67.742  1.00  0.00    -0.189 A  
HETATM    9  C   UNL     1      -7.895  12.029  67.332  1.00  0.00    -0.162 A  
HETATM   10  C   UNL     1      -7.467  10.921  66.576  1.00  0.00    -0.142 A  
HETATM   11  C   UNL     1      -6.033  10.843  66.125  1.00  0.00    -0.141 C  
HETATM   12  C   UNL     1      -8.428   9.963  66.235  1.00  0.00    -0.128 A  
HETATM   13  F   UNL     1      -5.303  11.946  66.460  1.00  0.00    -0.126 F  
HETATM   14  F   UNL     1      -5.355   9.793  66.653  1.00  0.00    -0.041 F  
HETATM   15  N   UNL     1      -8.076   8.811  65.419  1.00  0.00    -0.118 N  
HETATM   16  F   UNL     1      -5.929  10.740  64.773  1.00  0.00    -0.128 F  
HETATM   17  C   UNL     1      -9.767  10.096  66.630  1.00  0.00    -0.242 A  
HETATM   18  C   UNL     1     -10.162  11.212  67.379  1.00  0.00    -0.221 A  
HETATM   19  O   UNL     1      -7.203   8.056  65.855  1.00  0.00    -0.064 OA 
HETATM   20  O   UNL     1      -8.703   8.662  64.363  1.00  0.00    -0.109 OA 
ENDBRANCH   6   8
TORSDOF 1
ENDMDL
MODEL      162
REMARK 921   NORMALIZED FREE ENERGY PREDICTED BY IDOCK:   -3.34 KCAL/MOL
REMARK 922        TOTAL FREE ENERGY PREDICTED BY IDOCK:   -3.84 KCAL/MOL
REMARK 923 INTER-LIGAND FREE ENERGY PREDICTED BY IDOCK:   -4.03 KCAL/MOL
REMARK 924 INTRA-LIGAND FREE ENERGY PREDICTED BY IDOCK:    0.20 KCAL/MOL
REMARK 927      BINDING AFFINITY PREDICTED BY RF-SCORE:    0.00 PKD
ROOT
HETATM    1  C   UNL     1      -9.740   3.942  63.934  1.00  0.00    -0.164 C  
HETATM    2  C   UNL     1      -9.024   3.396  65.173  1.00  0.00    -0.138 C  
HETATM    3  C   UNL     1      -7.539   3.743  65.104  1.00  0.00    -0.081 C  
HETATM    4  C   UNL     1      -9.676   3.972  66.428  1.00  0.00    -0.188 C  
HETATM    5  O   UNL     1     -10.592   4.785  66.345  1.00  0.00    -0.284 OA 
HETATM    6  N   UNL     1      -9.173   3.470  67.623  1.00  0.00    -0.172 N  
HETATM    7  H   UNL     1      -8.510   2.696  67.563  1.00  0.00     0.000 HD 
ENDROOT
BRANCH   6   8
HETATM    8  C   UNL     1      -9.503   3.943  68.913  1.00  0.00    -0.163 A  
HETATM    9  C   UNL     1     -10.093   5.196  69.130  1.00  0.00    -0.274 A  
HETATM   10  C   UNL     1     -10.387   5.675  70.420  1.00  0.00    -0.330 A  
HETATM   11  C   UNL     1     -10.972   7.054  70.581  1.00  0.00    -0.260 C  
HETATM   12  C   UNL     1     -10.066   4.851  71.503  1.00  0.00    -0.197 A  
HETATM   13  F   UNL     1     -11.084   7.731  69.403  1.00  0.00    -0.208 F  
HETATM   14  F   UNL     1     -12.220   7.053  71.113  1.00  0.00    -0.344 F  
HETATM   15  N   UNL     1     -10.298   5.291  72.871  1.00  0.00    -0.185 N  
HETATM   16  F   UNL     1     -10.204   7.843  71.378  1.00  0.00    -0.194 F  
HETATM   17  C   UNL     1      -9.473   3.593  71.316  1.00  0.00    -0.231 A  
HETATM   18  C   UNL     1      -9.189   3.147  70.020  1.00  0.00    -0.221 A  
HETATM   19  O   UNL     1     -11.458   5.570  73.184  1.00  0.00    -0.266 OA 
HETATM   20  O   UNL     1      -9.316   5.321  73.622  1.00  0.00    -0.133 OA 
ENDBRANCH   6   8
TORSDOF 1
ENDMDL
MODEL      163
REMARK 921   NORMALIZED FREE ENERGY PREDICTED BY IDOCK:   -3.31 KCAL/MOL
REMARK 922        TOTAL FREE ENERGY PREDICTED BY IDOCK:   -3.81 KCAL/MOL
REMARK 923 INTER-LIGAND FREE ENERGY PREDICTED BY IDOCK:   -3.53 KCAL/MOL
REMARK 924 INTRA-LIGAND FREE ENERGY PREDICTED BY IDOCK:   -0.29 KCAL/MOL
REMARK 927      BINDING AFFINITY PREDICTED BY RF-SCORE:    0.00 PKD
ROOT
HETATM    1  C   UNL     1     -10.346   8.275  72.615  1.00  0.00    -0.374 C  
HETATM    2  C   UNL     1     -11.258   7.445  71.706  1.00  0.00    -0.277 C  
HETATM    3  C   UNL     1     -12.405   8.314  71.195  1.00  0.00    -0.224 C  
HETATM    4  C   UNL     1     -10.436   6.869  70.555  1.00  0.00    -0.211 C  
HETATM    5  O   UNL     1      -9.244   7.138  70.437  1.00  0.00    -0.155 OA 
HETATM    6  N   UNL     1     -11.138   6.012  69.715  1.00  0.00    -0.397 N  
HETATM    7  H   UNL     1     -12.085   5.756  69.995  1.00  0.00     0.000 HD 
ENDROOT
BRANCH   6   8
HETATM    8  C   UNL     1     -10.649   5.469  68.506  1.00  0.00    -0.138 A  
HETATM    9  C   UNL     1      -9.774   4.374  68.470  1.00  0.00    -0.181 A  
HETATM   10  C   UNL     1      -9.263   3.860  67.264  1.00  0.00    -0.200 A  
HETATM   11  C   UNL     1      -8.286   2.715  67.303  1.00  0.00    -0.080 C  
HETATM   12  C   UNL     1      -9.659   4.485  66.077  1.00  0.00    -0.189 A  
HETATM   13  F   UNL     1      -7.942   2.345  68.570  1.00  0.00    -0.053 F  
HETATM   14  F   UNL     1      -8.751   1.584  66.715  1.00  0.00    -0.088 F  
HETATM   15  N   UNL     1      -9.142   4.041  64.791  1.00  0.00    -0.133 N  
HETATM   16  F   UNL     1      -7.113   3.025  66.688  1.00  0.00    -0.050 F  
HETATM   17  C   UNL     1     -10.531   5.583  66.083  1.00  0.00    -0.149 A  
HETATM   18  C   UNL     1     -11.019   6.074  67.301  1.00  0.00    -0.356 A  
HETATM   19  O   UNL     1      -9.360   2.870  64.469  1.00  0.00    -0.136 OA 
HETATM   20  O   UNL     1      -8.549   4.884  64.106  1.00  0.00    -0.134 OA 
ENDBRANCH   6   8
TORSDOF 1
ENDMDL
MODEL      164
REMARK 921   NORMALIZED FREE ENERGY PREDICTED BY IDOCK:   -3.31 KCAL/MOL
REMARK 922        TOTAL FREE ENERGY PREDICTED BY IDOCK:   -3.81 KCAL/MOL
REMARK 923 INTER-LIGAND FREE ENERGY PREDICTED BY IDOCK:   -3.72 KCAL/MOL
REMARK 924 INTRA-LIGAND FREE ENERGY PREDICTED BY IDOCK:   -0.09 KCAL/MOL
REMARK 927      BINDING AFFINITY PREDICTED BY RF-SCORE:    0.00 PKD
ROOT
HETATM    1  C   UNL     1      -5.431  17.237  66.818  1.00  0.00    -0.221 C  
HETATM    2  C   UNL     1      -6.771  16.692  67.323  1.00  0.00    -0.213 C  
HETATM    3  C   UNL     1      -7.879  17.056  66.338  1.00  0.00    -0.343 C  
HETATM    4  C   UNL     1      -6.663  15.180  67.510  1.00  0.00    -0.160 C  
HETATM    5  O   UNL     1      -5.632  14.581  67.217  1.00  0.00    -0.289 OA 
HETATM    6  N   UNL     1      -7.791  14.584  68.061  1.00  0.00    -0.125 N  
HETATM    7  H   UNL     1      -8.532  15.202  68.393  1.00  0.00     0.000 HD 
ENDROOT
BRANCH   6   8
HETATM    8  C   UNL     1      -7.997  13.193  68.200  1.00  0.00    -0.154 A  
HETATM    9  C   UNL     1      -9.085  12.529  67.618  1.00  0.00    -0.187 A  
HETATM   10  C   UNL     1      -9.303  11.149  67.788  1.00  0.00    -0.166 A  
HETATM   11  C   UNL     1     -10.523  10.512  67.177  1.00  0.00    -0.249 C  
HETATM   12  C   UNL     1      -8.386  10.444  68.574  1.00  0.00    -0.124 A  
HETATM   13  F   UNL     1     -11.347  11.408  66.563  1.00  0.00    -0.348 F  
HETATM   14  F   UNL     1     -10.233   9.585  66.230  1.00  0.00    -0.318 F  
HETATM   15  N   UNL     1      -8.564   9.023  68.834  1.00  0.00    -0.130 N  
HETATM   16  F   UNL     1     -11.296   9.893  68.110  1.00  0.00    -0.279 F  
HETATM   17  C   UNL     1      -7.288  11.082  69.171  1.00  0.00    -0.121 A  
HETATM   18  C   UNL     1      -7.102  12.458  68.985  1.00  0.00    -0.041 A  
HETATM   19  O   UNL     1      -8.594   8.269  67.858  1.00  0.00    -0.130 OA 
HETATM   20  O   UNL     1      -8.639   8.678  70.020  1.00  0.00    -0.124 OA 
ENDBRANCH   6   8
TORSDOF 1
ENDMDL
MODEL      165
REMARK 921   NORMALIZED FREE ENERGY PREDICTED BY IDOCK:   -3.30 KCAL/MOL
REMARK 922        TOTAL FREE ENERGY PREDICTED BY IDOCK:   -3.80 KCAL/MOL
REMARK 923 INTER-LIGAND FREE ENERGY PREDICTED BY IDOCK:   -3.49 KCAL/MOL
REMARK 924 INTRA-LIGAND FREE ENERGY PREDICTED BY IDOCK:   -0.31 KCAL/MOL
REMARK 927      BINDING AFFINITY PREDICTED BY RF-SCORE:    0.00 PKD
ROOT
HETATM    1  C   UNL     1     -13.759   9.107  72.366  1.00  0.00    -0.543 C  
HETATM    2  C   UNL     1     -12.923   9.237  71.089  1.00  0.00    -0.264 C  
HETATM    3  C   UNL     1     -12.350  10.649  70.991  1.00  0.00    -0.507 C  
HETATM    4  C   UNL     1     -11.817   8.184  71.099  1.00  0.00    -0.279 C  
HETATM    5  O   UNL     1     -11.672   7.433  72.059  1.00  0.00    -0.274 OA 
HETATM    6  N   UNL     1     -11.051   8.140  69.940  1.00  0.00    -0.416 N  
HETATM    7  H   UNL     1     -11.354   8.718  69.156  1.00  0.00     0.000 HD 
ENDROOT
BRANCH   6   8
HETATM    8  C   UNL     1      -9.885   7.360  69.759  1.00  0.00    -0.171 A  
HETATM    9  C   UNL     1      -9.910   6.094  69.160  1.00  0.00    -0.176 A  
HETATM   10  C   UNL     1      -8.752   5.308  69.013  1.00  0.00    -0.104 A  
HETATM   11  C   UNL     1      -8.862   3.934  68.407  1.00  0.00    -0.110 C  
HETATM   12  C   UNL     1      -7.550   5.837  69.495  1.00  0.00    -0.087 A  
HETATM   13  F   UNL     1     -10.146   3.572  68.127  1.00  0.00    -0.102 F  
HETATM   14  F   UNL     1      -8.189   3.803  67.237  1.00  0.00    -0.089 F  
HETATM   15  N   UNL     1      -6.315   5.070  69.420  1.00  0.00    -0.033 N  
HETATM   16  F   UNL     1      -8.390   2.970  69.243  1.00  0.00    -0.066 F  
HETATM   17  C   UNL     1      -7.495   7.101  70.100  1.00  0.00    -0.089 A  
HETATM   18  C   UNL     1      -8.667   7.856  70.235  1.00  0.00    -0.138 A  
HETATM   19  O   UNL     1      -5.933   4.722  68.300  1.00  0.00    -0.024 OA 
HETATM   20  O   UNL     1      -5.727   4.853  70.487  1.00  0.00    -0.015 OA 
ENDBRANCH   6   8
TORSDOF 1
ENDMDL
MODEL      166
REMARK 921   NORMALIZED FREE ENERGY PREDICTED BY IDOCK:   -3.30 KCAL/MOL
REMARK 922        TOTAL FREE ENERGY PREDICTED BY IDOCK:   -3.79 KCAL/MOL
REMARK 923 INTER-LIGAND FREE ENERGY PREDICTED BY IDOCK:   -3.52 KCAL/MOL
REMARK 924 INTRA-LIGAND FREE ENERGY PREDICTED BY IDOCK:   -0.27 KCAL/MOL
REMARK 927      BINDING AFFINITY PREDICTED BY RF-SCORE:    0.00 PKD
ROOT
HETATM    1  C   UNL     1      -7.744   4.191  63.648  1.00  0.00    -0.071 C  
HETATM    2  C   UNL     1      -9.025   3.903  64.437  1.00  0.00    -0.128 C  
HETATM    3  C   UNL     1      -9.184   2.397  64.629  1.00  0.00    -0.133 C  
HETATM    4  C   UNL     1      -8.968   4.635  65.777  1.00  0.00    -0.134 C  
HETATM    5  O   UNL     1      -7.977   5.283  66.098  1.00  0.00    -0.102 OA 
HETATM    6  N   UNL     1     -10.123   4.529  66.543  1.00  0.00    -0.239 N  
HETATM    7  H   UNL     1     -10.932   4.082  66.110  1.00  0.00     0.000 HD 
ENDROOT
BRANCH   6   8
HETATM    8  C   UNL     1     -10.270   4.990  67.871  1.00  0.00    -0.084 A  
HETATM    9  C   UNL     1      -9.593   4.408  68.951  1.00  0.00    -0.233 A  
HETATM   10  C   UNL     1      -9.770   4.849  70.275  1.00  0.00    -0.287 A  
HETATM   11  C   UNL     1      -9.049   4.142  71.393  1.00  0.00    -0.127 C  
HETATM   12  C   UNL     1     -10.662   5.905  70.489  1.00  0.00    -0.294 A  
HETATM   13  F   UNL     1      -8.332   3.062  70.971  1.00  0.00    -0.059 F  
HETATM   14  F   UNL     1      -8.157   4.929  72.045  1.00  0.00    -0.100 F  
HETATM   15  N   UNL     1     -10.934   6.391  71.834  1.00  0.00    -0.242 N  
HETATM   16  F   UNL     1      -9.909   3.661  72.329  1.00  0.00    -0.186 F  
HETATM   17  C   UNL     1     -11.355   6.505  69.428  1.00  0.00    -0.395 A  
HETATM   18  C   UNL     1     -11.160   6.040  68.122  1.00  0.00    -0.246 A  
HETATM   19  O   UNL     1      -9.976   6.819  72.484  1.00  0.00    -0.168 OA 
HETATM   20  O   UNL     1     -12.112   6.366  72.209  1.00  0.00    -0.292 OA 
ENDBRANCH   6   8
TORSDOF 1
ENDMDL
MODEL      167
REMARK 921   NORMALIZED FREE ENERGY PREDICTED BY IDOCK:   -3.23 KCAL/MOL
REMARK 922        TOTAL FREE ENERGY PREDICTED BY IDOCK:   -3.72 KCAL/MOL
REMARK 923 INTER-LIGAND FREE ENERGY PREDICTED BY IDOCK:   -3.80 KCAL/MOL
REMARK 924 INTRA-LIGAND FREE ENERGY PREDICTED BY IDOCK:    0.07 KCAL/MOL
REMARK 927      BINDING AFFINITY PREDICTED BY RF-SCORE:    0.00 PKD
ROOT
HETATM    1  C   UNL     1     -13.785   9.112  72.818  1.00  0.00    -0.285 C  
HETATM    2  C   UNL     1     -13.368   8.918  71.357  1.00  0.00    -0.309 C  
HETATM    3  C   UNL     1     -12.907  10.250  70.772  1.00  0.00    -0.427 C  
HETATM    4  C   UNL     1     -12.266   7.862  71.282  1.00  0.00    -0.294 C  
HETATM    5  O   UNL     1     -11.815   7.350  72.302  1.00  0.00    -0.291 OA 
HETATM    6  N   UNL     1     -11.874   7.527  69.991  1.00  0.00    -0.457 N  
HETATM    7  H   UNL     1     -12.418   7.917  69.221  1.00  0.00     0.000 HD 
ENDROOT
BRANCH   6   8
HETATM    8  C   UNL     1     -10.784   6.692  69.658  1.00  0.00    -0.260 A  
HETATM    9  C   UNL     1      -9.858   7.022  68.659  1.00  0.00    -0.148 A  
HETATM   10  C   UNL     1      -8.795   6.169  68.308  1.00  0.00    -0.112 A  
HETATM   11  C   UNL     1      -7.869   6.564  67.188  1.00  0.00    -0.108 C  
HETATM   12  C   UNL     1      -8.686   4.957  68.997  1.00  0.00    -0.088 A  
HETATM   13  F   UNL     1      -8.236   7.724  66.572  1.00  0.00    -0.110 F  
HETATM   14  F   UNL     1      -6.588   6.762  67.588  1.00  0.00    -0.048 F  
HETATM   15  N   UNL     1      -7.640   4.001  68.664  1.00  0.00    -0.058 N  
HETATM   16  F   UNL     1      -7.834   5.628  66.202  1.00  0.00    -0.094 F  
HETATM   17  C   UNL     1      -9.599   4.600  70.000  1.00  0.00    -0.259 A  
HETATM   18  C   UNL     1     -10.649   5.469  70.323  1.00  0.00    -0.357 A  
HETATM   19  O   UNL     1      -6.472   4.383  68.770  1.00  0.00    -0.035 OA 
HETATM   20  O   UNL     1      -8.006   2.867  68.331  1.00  0.00    -0.057 OA 
ENDBRANCH   6   8
TORSDOF 1
ENDMDL
MODEL      168
REMARK 921   NORMALIZED FREE ENERGY PREDICTED BY IDOCK:   -3.22 KCAL/MOL
REMARK 922        TOTAL FREE ENERGY PREDICTED BY IDOCK:   -3.71 KCAL/MOL
REMARK 923 INTER-LIGAND FREE ENERGY PREDICTED BY IDOCK:   -3.39 KCAL/MOL
REMARK 924 INTRA-LIGAND FREE ENERGY PREDICTED BY IDOCK:   -0.31 KCAL/MOL
REMARK 927      BINDING AFFINITY PREDICTED BY RF-SCORE:    0.00 PKD
ROOT
HETATM    1  C   UNL     1      -7.731   4.518  64.362  1.00  0.00    -0.077 C  
HETATM    2  C   UNL     1      -8.941   4.331  65.282  1.00  0.00    -0.137 C  
HETATM    3  C   UNL     1      -9.014   2.879  65.747  1.00  0.00    -0.144 C  
HETATM    4  C   UNL     1      -8.831   5.293  66.463  1.00  0.00    -0.116 C  
HETATM    5  O   UNL     1      -7.853   6.023  66.591  1.00  0.00    -0.099 OA 
HETATM    6  N   UNL     1      -9.926   5.285  67.319  1.00  0.00    -0.161 N  
HETATM    7  H   UNL     1     -10.739   4.738  67.033  1.00  0.00     0.000 HD 
ENDROOT
BRANCH   6   8
HETATM    8  C   UNL     1     -10.007   5.970  68.552  1.00  0.00    -0.142 A  
HETATM    9  C   UNL     1      -9.554   5.413  69.756  1.00  0.00    -0.225 A  
HETATM   10  C   UNL     1      -9.669   6.088  70.986  1.00  0.00    -0.208 A  
HETATM   11  C   UNL     1      -9.209   5.407  72.248  1.00  0.00    -0.142 C  
HETATM   12  C   UNL     1     -10.262   7.354  70.974  1.00  0.00    -0.191 A  
HETATM   13  F   UNL     1      -8.783   4.128  72.044  1.00  0.00    -0.099 F  
HETATM   14  F   UNL     1      -8.173   6.036  72.857  1.00  0.00    -0.114 F  
HETATM   15  N   UNL     1     -10.456   8.098  72.210  1.00  0.00    -0.276 N  
HETATM   16  F   UNL     1     -10.207   5.311  73.168  1.00  0.00    -0.177 F  
HETATM   17  C   UNL     1     -10.726   7.935  69.785  1.00  0.00    -0.233 A  
HETATM   18  C   UNL     1     -10.600   7.236  68.578  1.00  0.00    -0.207 A  
HETATM   19  O   UNL     1      -9.450   8.367  72.871  1.00  0.00    -0.261 OA 
HETATM   20  O   UNL     1     -11.616   8.431  72.485  1.00  0.00    -0.384 OA 
ENDBRANCH   6   8
TORSDOF 1
ENDMDL
MODEL      169
REMARK 921   NORMALIZED FREE ENERGY PREDICTED BY IDOCK:   -3.21 KCAL/MOL
REMARK 922        TOTAL FREE ENERGY PREDICTED BY IDOCK:   -3.70 KCAL/MOL
REMARK 923 INTER-LIGAND FREE ENERGY PREDICTED BY IDOCK:   -3.51 KCAL/MOL
REMARK 924 INTRA-LIGAND FREE ENERGY PREDICTED BY IDOCK:   -0.19 KCAL/MOL
REMARK 927      BINDING AFFINITY PREDICTED BY RF-SCORE:    0.00 PKD
ROOT
HETATM    1  C   UNL     1      -7.992  19.902  67.327  1.00  0.00    -0.337 C  
HETATM    2  C   UNL     1      -9.035  18.824  67.640  1.00  0.00    -0.299 C  
HETATM    3  C   UNL     1     -10.207  18.945  66.670  1.00  0.00    -0.462 C  
HETATM    4  C   UNL     1      -8.379  17.447  67.556  1.00  0.00    -0.206 C  
HETATM    5  O   UNL     1      -7.203  17.329  67.225  1.00  0.00    -0.153 OA 
HETATM    6  N   UNL     1      -9.206  16.390  67.918  1.00  0.00    -0.201 N  
HETATM    7  H   UNL     1     -10.119  16.624  68.310  1.00  0.00     0.000 HD 
ENDROOT
BRANCH   6   8
HETATM    8  C   UNL     1      -8.886  15.020  67.789  1.00  0.00    -0.171 A  
HETATM    9  C   UNL     1      -7.850  14.414  68.512  1.00  0.00    -0.138 A  
HETATM   10  C   UNL     1      -7.515  13.057  68.353  1.00  0.00    -0.128 A  
HETATM   11  C   UNL     1      -6.354  12.486  69.125  1.00  0.00    -0.095 C  
HETATM   12  C   UNL     1      -8.259  12.313  67.432  1.00  0.00    -0.178 A  
HETATM   13  F   UNL     1      -5.691  13.419  69.866  1.00  0.00    -0.090 F  
HETATM   14  F   UNL     1      -6.712  11.518  70.005  1.00  0.00    -0.130 F  
HETATM   15  N   UNL     1      -7.947  10.914  67.177  1.00  0.00    -0.123 N  
HETATM   16  F   UNL     1      -5.414  11.944  68.304  1.00  0.00    -0.043 F  
HETATM   17  C   UNL     1      -9.300  12.892  66.693  1.00  0.00    -0.240 A  
HETATM   18  C   UNL     1      -9.606  14.247  66.871  1.00  0.00    -0.268 A  
HETATM   19  O   UNL     1      -8.005  10.139  68.136  1.00  0.00    -0.102 OA 
HETATM   20  O   UNL     1      -7.678  10.605  66.009  1.00  0.00    -0.146 OA 
ENDBRANCH   6   8
TORSDOF 1
ENDMDL
MODEL      170
REMARK 921   NORMALIZED FREE ENERGY PREDICTED BY IDOCK:   -3.19 KCAL/MOL
REMARK 922        TOTAL FREE ENERGY PREDICTED BY IDOCK:   -3.68 KCAL/MOL
REMARK 923 INTER-LIGAND FREE ENERGY PREDICTED BY IDOCK:   -3.59 KCAL/MOL
REMARK 924 INTRA-LIGAND FREE ENERGY PREDICTED BY IDOCK:   -0.08 KCAL/MOL
REMARK 927      BINDING AFFINITY PREDICTED BY RF-SCORE:    0.00 PKD
ROOT
HETATM    1  C   UNL     1     -10.542  10.343  67.273  1.00  0.00    -0.322 C  
HETATM    2  C   UNL     1     -10.332  10.226  68.786  1.00  0.00    -0.211 C  
HETATM    3  C   UNL     1     -11.424  11.001  69.519  1.00  0.00    -0.370 C  
HETATM    4  C   UNL     1     -10.329   8.751  69.183  1.00  0.00    -0.217 C  
HETATM    5  O   UNL     1     -10.530   7.874  68.349  1.00  0.00    -0.205 OA 
HETATM    6  N   UNL     1     -10.046   8.514  70.523  1.00  0.00    -0.188 N  
HETATM    7  H   UNL     1      -9.759   9.313  71.089  1.00  0.00     0.000 HD 
ENDROOT
BRANCH   6   8
HETATM    8  C   UNL     1     -10.125   7.259  71.167  1.00  0.00    -0.186 A  
HETATM    9  C   UNL     1      -9.449   6.125  70.696  1.00  0.00    -0.185 A  
HETATM   10  C   UNL     1      -9.559   4.869  71.322  1.00  0.00    -0.229 A  
HETATM   11  C   UNL     1      -8.846   3.683  70.730  1.00  0.00    -0.079 C  
HETATM   12  C   UNL     1     -10.382   4.781  72.450  1.00  0.00    -0.201 A  
HETATM   13  F   UNL     1      -8.207   3.969  69.561  1.00  0.00    -0.058 F  
HETATM   14  F   UNL     1      -7.891   3.164  71.542  1.00  0.00    -0.051 F  
HETATM   15  N   UNL     1     -10.584   3.510  73.129  1.00  0.00    -0.174 N  
HETATM   16  F   UNL     1      -9.703   2.669  70.433  1.00  0.00    -0.216 F  
HETATM   17  C   UNL     1     -11.073   5.898  72.942  1.00  0.00    -0.306 A  
HETATM   18  C   UNL     1     -10.945   7.133  72.294  1.00  0.00    -0.277 A  
HETATM   19  O   UNL     1      -9.584   2.947  73.581  1.00  0.00    -0.093 OA 
HETATM   20  O   UNL     1     -11.750   3.108  73.227  1.00  0.00    -0.023 OA 
ENDBRANCH   6   8
TORSDOF 1
ENDMDL
MODEL      171
REMARK 921   NORMALIZED FREE ENERGY PREDICTED BY IDOCK:   -3.18 KCAL/MOL
REMARK 922        TOTAL FREE ENERGY PREDICTED BY IDOCK:   -3.67 KCAL/MOL
REMARK 923 INTER-LIGAND FREE ENERGY PREDICTED BY IDOCK:   -3.50 KCAL/MOL
REMARK 924 INTRA-LIGAND FREE ENERGY PREDICTED BY IDOCK:   -0.17 KCAL/MOL
REMARK 927      BINDING AFFINITY PREDICTED BY RF-SCORE:    0.00 PKD
ROOT
HETATM    1  C   UNL     1      -7.499   9.022  63.018  1.00  0.00    -0.101 C  
HETATM    2  C   UNL     1      -7.902  10.001  64.126  1.00  0.00    -0.144 C  
HETATM    3  C   UNL     1      -9.186  10.725  63.730  1.00  0.00    -0.266 C  
HETATM    4  C   UNL     1      -8.070   9.237  65.438  1.00  0.00    -0.122 C  
HETATM    5  O   UNL     1      -7.936   8.018  65.479  1.00  0.00    -0.103 OA 
HETATM    6  N   UNL     1      -8.340  10.038  66.542  1.00  0.00    -0.125 N  
HETATM    7  H   UNL     1      -8.290  11.049  66.410  1.00  0.00     0.000 HD 
ENDROOT
BRANCH   6   8
HETATM    8  C   UNL     1      -8.678   9.568  67.831  1.00  0.00    -0.119 A  
HETATM    9  C   UNL     1      -9.943   9.770  68.400  1.00  0.00    -0.176 A  
HETATM   10  C   UNL     1     -10.262   9.329  69.698  1.00  0.00    -0.219 A  
HETATM   11  C   UNL     1     -11.625   9.627  70.265  1.00  0.00    -0.198 C  
HETATM   12  C   UNL     1      -9.261   8.674  70.421  1.00  0.00    -0.170 A  
HETATM   13  F   UNL     1     -12.397  10.387  69.438  1.00  0.00    -0.254 F  
HETATM   14  F   UNL     1     -12.361   8.516  70.519  1.00  0.00    -0.118 F  
HETATM   15  N   UNL     1      -9.497   8.226  71.785  1.00  0.00    -0.187 N  
HETATM   16  F   UNL     1     -11.551  10.325  71.430  1.00  0.00    -0.419 F  
HETATM   17  C   UNL     1      -7.985   8.460  69.878  1.00  0.00    -0.107 A  
HETATM   18  C   UNL     1      -7.698   8.914  68.585  1.00  0.00    -0.097 A  
HETATM   19  O   UNL     1     -10.416   7.422  71.964  1.00  0.00    -0.195 OA 
HETATM   20  O   UNL     1      -8.736   8.664  72.657  1.00  0.00    -0.380 OA 
ENDBRANCH   6   8
TORSDOF 1
ENDMDL
MODEL      172
REMARK 921   NORMALIZED FREE ENERGY PREDICTED BY IDOCK:   -3.16 KCAL/MOL
REMARK 922        TOTAL FREE ENERGY PREDICTED BY IDOCK:   -3.65 KCAL/MOL
REMARK 923 INTER-LIGAND FREE ENERGY PREDICTED BY IDOCK:   -3.43 KCAL/MOL
REMARK 924 INTRA-LIGAND FREE ENERGY PREDICTED BY IDOCK:   -0.22 KCAL/MOL
REMARK 927      BINDING AFFINITY PREDICTED BY RF-SCORE:    0.00 PKD
ROOT
HETATM    1  C   UNL     1     -10.881   7.711  73.120  1.00  0.00    -0.440 C  
HETATM    2  C   UNL     1     -11.343   6.523  72.271  1.00  0.00    -0.318 C  
HETATM    3  C   UNL     1     -12.644   6.878  71.555  1.00  0.00    -0.412 C  
HETATM    4  C   UNL     1     -10.242   6.152  71.279  1.00  0.00    -0.207 C  
HETATM    5  O   UNL     1      -9.206   6.806  71.216  1.00  0.00    -0.154 OA 
HETATM    6  N   UNL     1     -10.508   5.021  70.517  1.00  0.00    -0.211 N  
HETATM    7  H   UNL     1     -11.340   4.480  70.756  1.00  0.00     0.000 HD 
ENDROOT
BRANCH   6   8
HETATM    8  C   UNL     1      -9.722   4.557  69.437  1.00  0.00    -0.202 A  
HETATM    9  C   UNL     1     -10.141   4.651  68.103  1.00  0.00    -0.072 A  
HETATM   10  C   UNL     1      -9.369   4.157  67.036  1.00  0.00    -0.195 A  
HETATM   11  C   UNL     1      -9.905   4.245  65.632  1.00  0.00    -0.218 C  
HETATM   12  C   UNL     1      -8.147   3.553  67.350  1.00  0.00    -0.082 A  
HETATM   13  F   UNL     1     -11.169   4.753  65.570  1.00  0.00    -0.325 F  
HETATM   14  F   UNL     1      -9.163   5.034  64.816  1.00  0.00    -0.156 F  
HETATM   15  N   UNL     1      -7.309   2.978  66.308  1.00  0.00    -0.070 N  
HETATM   16  F   UNL     1      -9.979   3.024  65.038  1.00  0.00    -0.124 F  
HETATM   17  C   UNL     1      -7.702   3.444  68.676  1.00  0.00    -0.055 A  
HETATM   18  C   UNL     1      -8.497   3.942  69.716  1.00  0.00    -0.091 A  
HETATM   19  O   UNL     1      -6.921   3.735  65.413  1.00  0.00    -0.058 OA 
HETATM   20  O   UNL     1      -7.025   1.779  66.418  1.00  0.00    -0.041 OA 
ENDBRANCH   6   8
TORSDOF 1
ENDMDL
MODEL      173
REMARK 921   NORMALIZED FREE ENERGY PREDICTED BY IDOCK:   -3.15 KCAL/MOL
REMARK 922        TOTAL FREE ENERGY PREDICTED BY IDOCK:   -3.63 KCAL/MOL
REMARK 923 INTER-LIGAND FREE ENERGY PREDICTED BY IDOCK:   -3.62 KCAL/MOL
REMARK 924 INTRA-LIGAND FREE ENERGY PREDICTED BY IDOCK:   -0.01 KCAL/MOL
REMARK 927      BINDING AFFINITY PREDICTED BY RF-SCORE:    0.00 PKD
ROOT
HETATM    1  C   UNL     1      -7.300   4.378  71.964  1.00  0.00    -0.066 C  
HETATM    2  C   UNL     1      -7.391   5.886  72.217  1.00  0.00    -0.094 C  
HETATM    3  C   UNL     1      -5.994   6.452  72.460  1.00  0.00    -0.038 C  
HETATM    4  C   UNL     1      -8.068   6.558  71.023  1.00  0.00    -0.120 C  
HETATM    5  O   UNL     1      -8.399   5.906  70.038  1.00  0.00    -0.117 OA 
HETATM    6  N   UNL     1      -8.296   7.920  71.181  1.00  0.00    -0.108 N  
HETATM    7  H   UNL     1      -8.105   8.324  72.098  1.00  0.00     0.000 HD 
ENDROOT
BRANCH   6   8
HETATM    8  C   UNL     1      -8.772   8.792  70.175  1.00  0.00    -0.149 A  
HETATM    9  C   UNL     1      -9.823   9.693  70.392  1.00  0.00    -0.315 A  
HETATM   10  C   UNL     1     -10.314  10.534  69.376  1.00  0.00    -0.258 A  
HETATM   11  C   UNL     1     -11.482  11.440  69.667  1.00  0.00    -0.309 C  
HETATM   12  C   UNL     1      -9.714  10.442  68.117  1.00  0.00    -0.151 A  
HETATM   13  F   UNL     1     -11.991  11.275  70.921  1.00  0.00    -0.411 F  
HETATM   14  F   UNL     1     -11.179  12.759  69.575  1.00  0.00    -0.282 F  
HETATM   15  N   UNL     1     -10.192  11.246  67.002  1.00  0.00    -0.209 N  
HETATM   16  F   UNL     1     -12.523  11.215  68.822  1.00  0.00    -0.331 F  
HETATM   17  C   UNL     1      -8.662   9.548  67.870  1.00  0.00    -0.119 A  
HETATM   18  C   UNL     1      -8.199   8.721  68.901  1.00  0.00    -0.118 A  
HETATM   19  O   UNL     1     -10.162  12.472  67.136  1.00  0.00    -0.216 OA 
HETATM   20  O   UNL     1     -10.564  10.635  65.992  1.00  0.00    -0.210 OA 
ENDBRANCH   6   8
TORSDOF 1
ENDMDL
MODEL      174
REMARK 921   NORMALIZED FREE ENERGY PREDICTED BY IDOCK:   -3.14 KCAL/MOL
REMARK 922        TOTAL FREE ENERGY PREDICTED BY IDOCK:   -3.63 KCAL/MOL
REMARK 923 INTER-LIGAND FREE ENERGY PREDICTED BY IDOCK:   -3.97 KCAL/MOL
REMARK 924 INTRA-LIGAND FREE ENERGY PREDICTED BY IDOCK:    0.34 KCAL/MOL
REMARK 927      BINDING AFFINITY PREDICTED BY RF-SCORE:    0.00 PKD
ROOT
HETATM    1  C   UNL     1      -6.657   7.231  64.422  1.00  0.00    -0.040 C  
HETATM    2  C   UNL     1      -7.192   8.570  63.905  1.00  0.00    -0.097 C  
HETATM    3  C   UNL     1      -8.178   8.324  62.765  1.00  0.00    -0.146 C  
HETATM    4  C   UNL     1      -7.846   9.331  65.057  1.00  0.00    -0.111 C  
HETATM    5  O   UNL     1      -7.927   8.833  66.175  1.00  0.00    -0.099 OA 
HETATM    6  N   UNL     1      -8.283  10.609  64.729  1.00  0.00    -0.335 N  
HETATM    7  H   UNL     1      -8.035  10.967  63.806  1.00  0.00     0.000 HD 
ENDROOT
BRANCH   6   8
HETATM    8  C   UNL     1      -9.043  11.455  65.569  1.00  0.00    -0.137 A  
HETATM    9  C   UNL     1      -9.830  12.503  65.073  1.00  0.00    -0.111 A  
HETATM   10  C   UNL     1     -10.557  13.362  65.918  1.00  0.00    -0.286 A  
HETATM   11  C   UNL     1     -11.339  14.502  65.318  1.00  0.00    -0.353 C  
HETATM   12  C   UNL     1     -10.470  13.138  67.295  1.00  0.00    -0.243 A  
HETATM   13  F   UNL     1     -11.180  14.610  63.968  1.00  0.00    -0.177 F  
HETATM   14  F   UNL     1     -12.677  14.402  65.514  1.00  0.00    -0.439 F  
HETATM   15  N   UNL     1     -11.157  14.009  68.238  1.00  0.00    -0.245 N  
HETATM   16  F   UNL     1     -10.955  15.704  65.823  1.00  0.00    -0.319 F  
HETATM   17  C   UNL     1      -9.689  12.098  67.821  1.00  0.00    -0.197 A  
HETATM   18  C   UNL     1      -8.974  11.263  66.953  1.00  0.00    -0.163 A  
HETATM   19  O   UNL     1     -12.384  14.092  68.138  1.00  0.00    -0.227 OA 
HETATM   20  O   UNL     1     -10.457  14.574  69.088  1.00  0.00    -0.242 OA 
ENDBRANCH   6   8
TORSDOF 1
ENDMDL
MODEL      175
REMARK 921   NORMALIZED FREE ENERGY PREDICTED BY IDOCK:   -3.14 KCAL/MOL
REMARK 922        TOTAL FREE ENERGY PREDICTED BY IDOCK:   -3.63 KCAL/MOL
REMARK 923 INTER-LIGAND FREE ENERGY PREDICTED BY IDOCK:   -3.31 KCAL/MOL
REMARK 924 INTRA-LIGAND FREE ENERGY PREDICTED BY IDOCK:   -0.32 KCAL/MOL
REMARK 927      BINDING AFFINITY PREDICTED BY RF-SCORE:    0.00 PKD
ROOT
HETATM    1  C   UNL     1     -10.281   7.338  66.782  1.00  0.00    -0.305 C  
HETATM    2  C   UNL     1      -9.228   8.444  66.908  1.00  0.00    -0.196 C  
HETATM    3  C   UNL     1      -8.391   8.504  65.634  1.00  0.00    -0.154 C  
HETATM    4  C   UNL     1      -9.925   9.776  67.184  1.00  0.00    -0.198 C  
HETATM    5  O   UNL     1     -11.149   9.849  67.223  1.00  0.00    -0.208 OA 
HETATM    6  N   UNL     1      -9.063  10.841  67.416  1.00  0.00    -0.143 N  
HETATM    7  H   UNL     1      -8.068  10.629  67.496  1.00  0.00     0.000 HD 
ENDROOT
BRANCH   6   8
HETATM    8  C   UNL     1      -9.451  12.193  67.551  1.00  0.00    -0.180 A  
HETATM    9  C   UNL     1      -9.653  13.034  66.448  1.00  0.00    -0.258 A  
HETATM   10  C   UNL     1     -10.006  14.389  66.590  1.00  0.00    -0.278 A  
HETATM   11  C   UNL     1     -10.155  15.247  65.362  1.00  0.00    -0.362 C  
HETATM   12  C   UNL     1     -10.150  14.885  67.890  1.00  0.00    -0.227 A  
HETATM   13  F   UNL     1      -9.844  14.591  64.207  1.00  0.00     0.048 F  
HETATM   14  F   UNL     1     -11.414  15.716  65.178  1.00  0.00    -0.306 F  
HETATM   15  N   UNL     1     -10.470  16.285  68.123  1.00  0.00    -0.277 N  
HETATM   16  F   UNL     1      -9.332  16.330  65.393  1.00  0.00    -0.219 F  
HETATM   17  C   UNL     1      -9.952  14.068  69.012  1.00  0.00    -0.028 A  
HETATM   18  C   UNL     1      -9.597  12.724  68.837  1.00  0.00     0.220 A  
HETATM   19  O   UNL     1     -11.523  16.711  67.641  1.00  0.00     0.008 OA 
HETATM   20  O   UNL     1      -9.674  16.933  68.815  1.00  0.00    -0.247 OA 
ENDBRANCH   6   8
TORSDOF 1
ENDMDL
MODEL      176
REMARK 921   NORMALIZED FREE ENERGY PREDICTED BY IDOCK:   -3.13 KCAL/MOL
REMARK 922        TOTAL FREE ENERGY PREDICTED BY IDOCK:   -3.62 KCAL/MOL
REMARK 923 INTER-LIGAND FREE ENERGY PREDICTED BY IDOCK:   -3.33 KCAL/MOL
REMARK 924 INTRA-LIGAND FREE ENERGY PREDICTED BY IDOCK:   -0.29 KCAL/MOL
REMARK 927      BINDING AFFINITY PREDICTED BY RF-SCORE:    0.00 PKD
ROOT
HETATM    1  C   UNL     1      -9.656   5.096  68.055  1.00  0.00    -0.172 C  
HETATM    2  C   UNL     1      -9.080   6.028  66.985  1.00  0.00    -0.117 C  
HETATM    3  C   UNL     1      -9.565   5.590  65.605  1.00  0.00     0.028 C  
HETATM    4  C   UNL     1      -9.493   7.466  67.293  1.00  0.00    -0.146 C  
HETATM    5  O   UNL     1     -10.224   7.721  68.245  1.00  0.00    -0.190 OA 
HETATM    6  N   UNL     1      -8.946   8.419  66.442  1.00  0.00    -0.160 N  
HETATM    7  H   UNL     1      -8.242   8.102  65.774  1.00  0.00     0.000 HD 
ENDROOT
BRANCH   6   8
HETATM    8  C   UNL     1      -9.283   9.792  66.425  1.00  0.00    -0.160 A  
HETATM    9  C   UNL     1      -8.466  10.777  66.996  1.00  0.00    -0.128 A  
HETATM   10  C   UNL     1      -8.824  12.138  67.006  1.00  0.00    -0.203 A  
HETATM   11  C   UNL     1      -7.922  13.135  67.684  1.00  0.00    -0.174 C  
HETATM   12  C   UNL     1     -10.045  12.488  66.421  1.00  0.00    -0.243 A  
HETATM   13  F   UNL     1      -6.850  12.559  68.299  1.00  0.00    -0.063 F  
HETATM   14  F   UNL     1      -7.396  14.054  66.837  1.00  0.00    -0.064 F  
HETATM   15  N   UNL     1     -10.508  13.867  66.428  1.00  0.00    -0.280 N  
HETATM   16  F   UNL     1      -8.569  13.825  68.661  1.00  0.00    -0.167 F  
HETATM   17  C   UNL     1     -10.884  11.523  65.844  1.00  0.00    -0.316 A  
HETATM   18  C   UNL     1     -10.500  10.176  65.854  1.00  0.00    -0.141 A  
HETATM   19  O   UNL     1      -9.789  14.707  65.881  1.00  0.00    -0.305 OA 
HETATM   20  O   UNL     1     -11.605  14.085  66.958  1.00  0.00    -0.331 OA 
ENDBRANCH   6   8
TORSDOF 1
ENDMDL
MODEL      177
REMARK 921   NORMALIZED FREE ENERGY PREDICTED BY IDOCK:   -3.11 KCAL/MOL
REMARK 922        TOTAL FREE ENERGY PREDICTED BY IDOCK:   -3.59 KCAL/MOL
REMARK 923 INTER-LIGAND FREE ENERGY PREDICTED BY IDOCK:   -3.28 KCAL/MOL
REMARK 924 INTRA-LIGAND FREE ENERGY PREDICTED BY IDOCK:   -0.31 KCAL/MOL
REMARK 927      BINDING AFFINITY PREDICTED BY RF-SCORE:    0.00 PKD
ROOT
HETATM    1  C   UNL     1     -10.621   5.420  74.229  1.00  0.00    -0.232 C  
HETATM    2  C   UNL     1      -9.882   6.715  73.876  1.00  0.00    -0.292 C  
HETATM    3  C   UNL     1      -8.391   6.550  74.163  1.00  0.00    -0.136 C  
HETATM    4  C   UNL     1     -10.136   7.057  72.409  1.00  0.00    -0.174 C  
HETATM    5  O   UNL     1     -10.799   6.312  71.694  1.00  0.00    -0.234 OA 
HETATM    6  N   UNL     1      -9.594   8.269  71.997  1.00  0.00    -0.221 N  
HETATM    7  H   UNL     1      -9.184   8.867  72.716  1.00  0.00     0.000 HD 
ENDROOT
BRANCH   6   8
HETATM    8  C   UNL     1      -9.565   8.743  70.666  1.00  0.00    -0.199 A  
HETATM    9  C   UNL     1      -8.509   8.462  69.788  1.00  0.00    -0.127 A  
HETATM   10  C   UNL     1      -8.469   8.965  68.475  1.00  0.00    -0.129 A  
HETATM   11  C   UNL     1      -7.277   8.667  67.604  1.00  0.00    -0.084 C  
HETATM   12  C   UNL     1      -9.534   9.772  68.061  1.00  0.00    -0.131 A  
HETATM   13  F   UNL     1      -6.300   7.971  68.252  1.00  0.00    -0.044 F  
HETATM   14  F   UNL     1      -7.578   7.925  66.509  1.00  0.00    -0.085 F  
HETATM   15  N   UNL     1      -9.547  10.366  66.732  1.00  0.00    -0.167 N  
HETATM   16  F   UNL     1      -6.675   9.802  67.158  1.00  0.00    -0.070 F  
HETATM   17  C   UNL     1     -10.603  10.071  68.918  1.00  0.00    -0.239 A  
HETATM   18  C   UNL     1     -10.611   9.558  70.221  1.00  0.00    -0.317 A  
HETATM   19  O   UNL     1      -9.509   9.596  65.769  1.00  0.00    -0.205 OA 
HETATM   20  O   UNL     1      -9.628  11.600  66.673  1.00  0.00    -0.195 OA 
ENDBRANCH   6   8
TORSDOF 1
ENDMDL
MODEL      178
REMARK 921   NORMALIZED FREE ENERGY PREDICTED BY IDOCK:   -3.06 KCAL/MOL
REMARK 922        TOTAL FREE ENERGY PREDICTED BY IDOCK:   -3.55 KCAL/MOL
REMARK 923 INTER-LIGAND FREE ENERGY PREDICTED BY IDOCK:   -3.84 KCAL/MOL
REMARK 924 INTRA-LIGAND FREE ENERGY PREDICTED BY IDOCK:    0.29 KCAL/MOL
REMARK 927      BINDING AFFINITY PREDICTED BY RF-SCORE:    0.00 PKD
ROOT
HETATM    1  C   UNL     1     -10.373  14.271  64.962  1.00  0.00    -0.448 C  
HETATM    2  C   UNL     1     -10.786  12.799  64.855  1.00  0.00    -0.329 C  
HETATM    3  C   UNL     1     -10.210  12.195  63.576  1.00  0.00    -0.453 C  
HETATM    4  C   UNL     1     -10.304  12.048  66.094  1.00  0.00    -0.224 C  
HETATM    5  O   UNL     1      -9.645  12.618  66.959  1.00  0.00    -0.207 OA 
HETATM    6  N   UNL     1     -10.706  10.719  66.157  1.00  0.00    -0.170 N  
HETATM    7  H   UNL     1     -11.367  10.397  65.450  1.00  0.00     0.000 HD 
ENDROOT
BRANCH   6   8
HETATM    8  C   UNL     1     -10.276   9.778  67.120  1.00  0.00    -0.228 A  
HETATM    9  C   UNL     1      -9.466  10.129  68.209  1.00  0.00    -0.147 A  
HETATM   10  C   UNL     1      -9.012   9.180  69.144  1.00  0.00    -0.144 A  
HETATM   11  C   UNL     1      -8.101   9.619  70.260  1.00  0.00    -0.183 C  
HETATM   12  C   UNL     1      -9.398   7.850  68.952  1.00  0.00    -0.150 A  
HETATM   13  F   UNL     1      -7.751  10.935  70.181  1.00  0.00    -0.008 F  
HETATM   14  F   UNL     1      -8.643   9.467  71.494  1.00  0.00    -0.167 F  
HETATM   15  N   UNL     1      -8.936   6.802  69.851  1.00  0.00    -0.144 N  
HETATM   16  F   UNL     1      -6.926   8.934  70.258  1.00  0.00    -0.037 F  
HETATM   17  C   UNL     1     -10.206   7.469  67.871  1.00  0.00    -0.245 A  
HETATM   18  C   UNL     1     -10.638   8.437  66.955  1.00  0.00    -0.285 A  
HETATM   19  O   UNL     1      -9.227   6.912  71.044  1.00  0.00    -0.155 OA 
HETATM   20  O   UNL     1      -8.311   5.864  69.340  1.00  0.00    -0.111 OA 
ENDBRANCH   6   8
TORSDOF 1
ENDMDL
MODEL      179
REMARK 921   NORMALIZED FREE ENERGY PREDICTED BY IDOCK:   -3.03 KCAL/MOL
REMARK 922        TOTAL FREE ENERGY PREDICTED BY IDOCK:   -3.52 KCAL/MOL
REMARK 923 INTER-LIGAND FREE ENERGY PREDICTED BY IDOCK:   -3.26 KCAL/MOL
REMARK 924 INTRA-LIGAND FREE ENERGY PREDICTED BY IDOCK:   -0.26 KCAL/MOL
REMARK 927      BINDING AFFINITY PREDICTED BY RF-SCORE:    0.00 PKD
ROOT
HETATM    1  C   UNL     1     -10.996  16.552  68.687  1.00  0.00    -0.344 C  
HETATM    2  C   UNL     1      -9.781  15.886  68.034  1.00  0.00    -0.216 C  
HETATM    3  C   UNL     1      -8.499  16.530  68.556  1.00  0.00    -0.226 C  
HETATM    4  C   UNL     1      -9.812  14.386  68.322  1.00  0.00    -0.229 C  
HETATM    5  O   UNL     1     -10.690  13.898  69.027  1.00  0.00    -0.240 OA 
HETATM    6  N   UNL     1      -8.808  13.658  67.695  1.00  0.00    -0.182 N  
HETATM    7  H   UNL     1      -8.221  14.152  67.022  1.00  0.00     0.000 HD 
ENDROOT
BRANCH   6   8
HETATM    8  C   UNL     1      -8.532  12.288  67.912  1.00  0.00    -0.165 A  
HETATM    9  C   UNL     1      -9.350  11.265  67.412  1.00  0.00    -0.168 A  
HETATM   10  C   UNL     1      -9.089   9.905  67.662  1.00  0.00    -0.140 A  
HETATM   11  C   UNL     1     -10.040   8.862  67.138  1.00  0.00    -0.249 C  
HETATM   12  C   UNL     1      -7.969   9.596  68.441  1.00  0.00    -0.096 A  
HETATM   13  F   UNL     1     -11.130   9.393  66.515  1.00  0.00    -0.057 F  
HETATM   14  F   UNL     1      -9.480   8.027  66.226  1.00  0.00    -0.225 F  
HETATM   15  N   UNL     1      -7.655   8.216  68.780  1.00  0.00    -0.103 N  
HETATM   16  F   UNL     1     -10.538   8.081  68.133  1.00  0.00    -0.240 F  
HETATM   17  C   UNL     1      -7.135  10.598  68.956  1.00  0.00    -0.086 A  
HETATM   18  C   UNL     1      -7.424  11.943  68.693  1.00  0.00    -0.118 A  
HETATM   19  O   UNL     1      -7.456   7.436  67.846  1.00  0.00    -0.096 OA 
HETATM   20  O   UNL     1      -7.582   7.940  69.984  1.00  0.00    -0.080 OA 
ENDBRANCH   6   8
TORSDOF 1
ENDMDL
MODEL      180
REMARK 921   NORMALIZED FREE ENERGY PREDICTED BY IDOCK:   -3.00 KCAL/MOL
REMARK 922        TOTAL FREE ENERGY PREDICTED BY IDOCK:   -3.48 KCAL/MOL
REMARK 923 INTER-LIGAND FREE ENERGY PREDICTED BY IDOCK:   -3.21 KCAL/MOL
REMARK 924 INTRA-LIGAND FREE ENERGY PREDICTED BY IDOCK:   -0.27 KCAL/MOL
REMARK 927      BINDING AFFINITY PREDICTED BY RF-SCORE:    0.00 PKD
ROOT
HETATM    1  C   UNL     1     -10.141   4.689  73.686  1.00  0.00    -0.204 C  
HETATM    2  C   UNL     1     -10.934   4.968  72.404  1.00  0.00    -0.198 C  
HETATM    3  C   UNL     1     -12.191   5.766  72.741  1.00  0.00     0.115 C  
HETATM    4  C   UNL     1     -10.044   5.717  71.413  1.00  0.00    -0.200 C  
HETATM    5  O   UNL     1      -8.902   6.046  71.717  1.00  0.00    -0.138 OA 
HETATM    6  N   UNL     1     -10.625   5.940  70.171  1.00  0.00    -0.266 N  
HETATM    7  H   UNL     1     -11.527   5.497  69.989  1.00  0.00     0.000 HD 
ENDROOT
BRANCH   6   8
HETATM    8  C   UNL     1     -10.071   6.729  69.138  1.00  0.00    -0.171 A  
HETATM    9  C   UNL     1     -10.498   8.038  68.875  1.00  0.00    -0.207 A  
HETATM   10  C   UNL     1      -9.966   8.806  67.823  1.00  0.00    -0.243 A  
HETATM   11  C   UNL     1     -10.510  10.186  67.566  1.00  0.00    -0.253 C  
HETATM   12  C   UNL     1      -8.979   8.214  67.028  1.00  0.00    -0.141 A  
HETATM   13  F   UNL     1     -11.555  10.512  68.380  1.00  0.00    -0.336 F  
HETATM   14  F   UNL     1      -9.596  11.172  67.747  1.00  0.00    -0.163 F  
HETATM   15  N   UNL     1      -8.408   8.926  65.894  1.00  0.00    -0.121 N  
HETATM   16  F   UNL     1     -10.986  10.318  66.299  1.00  0.00    -0.189 F  
HETATM   17  C   UNL     1      -8.533   6.906  67.266  1.00  0.00    -0.121 A  
HETATM   18  C   UNL     1      -9.086   6.166  68.319  1.00  0.00    -0.112 A  
HETATM   19  O   UNL     1      -7.845   9.998  66.126  1.00  0.00    -0.107 OA 
HETATM   20  O   UNL     1      -8.506   8.382  64.787  1.00  0.00    -0.162 OA 
ENDBRANCH   6   8
TORSDOF 1
ENDMDL
MODEL      181
REMARK 921   NORMALIZED FREE ENERGY PREDICTED BY IDOCK:   -3.00 KCAL/MOL
REMARK 922        TOTAL FREE ENERGY PREDICTED BY IDOCK:   -3.48 KCAL/MOL
REMARK 923 INTER-LIGAND FREE ENERGY PREDICTED BY IDOCK:   -3.17 KCAL/MOL
REMARK 924 INTRA-LIGAND FREE ENERGY PREDICTED BY IDOCK:   -0.31 KCAL/MOL
REMARK 927      BINDING AFFINITY PREDICTED BY RF-SCORE:    0.00 PKD
ROOT
HETATM    1  C   UNL     1      -8.256   5.472  73.812  1.00  0.00    -0.111 C  
HETATM    2  C   UNL     1      -9.215   4.563  73.038  1.00  0.00    -0.132 C  
HETATM    3  C   UNL     1     -10.631   5.132  73.106  1.00  0.00    -0.282 C  
HETATM    4  C   UNL     1      -8.733   4.433  71.594  1.00  0.00    -0.118 C  
HETATM    5  O   UNL     1      -7.748   5.050  71.201  1.00  0.00    -0.086 OA 
HETATM    6  N   UNL     1      -9.472   3.550  70.816  1.00  0.00    -0.159 N  
HETATM    7  H   UNL     1     -10.183   2.991  71.289  1.00  0.00     0.000 HD 
ENDROOT
BRANCH   6   8
HETATM    8  C   UNL     1      -9.322   3.363  69.423  1.00  0.00    -0.166 A  
HETATM    9  C   UNL     1      -9.856   4.251  68.480  1.00  0.00    -0.115 A  
HETATM   10  C   UNL     1      -9.732   4.040  67.094  1.00  0.00    -0.207 A  
HETATM   11  C   UNL     1     -10.378   5.009  66.138  1.00  0.00    -0.268 C  
HETATM   12  C   UNL     1      -9.049   2.895  66.675  1.00  0.00    -0.145 A  
HETATM   13  F   UNL     1     -11.101   5.980  66.764  1.00  0.00    -0.355 F  
HETATM   14  F   UNL     1      -9.489   5.672  65.356  1.00  0.00    -0.121 F  
HETATM   15  N   UNL     1      -8.914   2.582  65.259  1.00  0.00    -0.131 N  
HETATM   16  F   UNL     1     -11.254   4.391  65.301  1.00  0.00    -0.344 F  
HETATM   17  C   UNL     1      -8.505   1.987  67.596  1.00  0.00    -0.094 A  
HETATM   18  C   UNL     1      -8.649   2.224  68.969  1.00  0.00    -0.113 A  
HETATM   19  O   UNL     1      -8.342   3.413  64.550  1.00  0.00    -0.092 OA 
HETATM   20  O   UNL     1      -9.358   1.490  64.884  1.00  0.00    -0.128 OA 
ENDBRANCH   6   8
TORSDOF 1
ENDMDL
MODEL      182
REMARK 921   NORMALIZED FREE ENERGY PREDICTED BY IDOCK:   -2.96 KCAL/MOL
REMARK 922        TOTAL FREE ENERGY PREDICTED BY IDOCK:   -3.44 KCAL/MOL
REMARK 923 INTER-LIGAND FREE ENERGY PREDICTED BY IDOCK:   -3.15 KCAL/MOL
REMARK 924 INTRA-LIGAND FREE ENERGY PREDICTED BY IDOCK:   -0.29 KCAL/MOL
REMARK 927      BINDING AFFINITY PREDICTED BY RF-SCORE:    0.00 PKD
ROOT
HETATM    1  C   UNL     1      -5.900  15.614  69.837  1.00  0.00    -0.151 C  
HETATM    2  C   UNL     1      -7.304  15.227  69.361  1.00  0.00    -0.207 C  
HETATM    3  C   UNL     1      -7.742  16.161  68.236  1.00  0.00    -0.148 C  
HETATM    4  C   UNL     1      -7.299  13.768  68.909  1.00  0.00    -0.076 C  
HETATM    5  O   UNL     1      -6.263  13.111  68.912  1.00  0.00    -0.077 OA 
HETATM    6  N   UNL     1      -8.546  13.272  68.546  1.00  0.00    -0.328 N  
HETATM    7  H   UNL     1      -9.356  13.869  68.718  1.00  0.00     0.000 HD 
ENDROOT
BRANCH   6   8
HETATM    8  C   UNL     1      -8.786  12.008  67.960  1.00  0.00    -0.175 A  
HETATM    9  C   UNL     1      -8.948  11.836  66.579  1.00  0.00    -0.196 A  
HETATM   10  C   UNL     1      -9.221  10.580  66.005  1.00  0.00    -0.205 A  
HETATM   11  C   UNL     1      -9.436  10.478  64.518  1.00  0.00    -0.276 C  
HETATM   12  C   UNL     1      -9.330   9.486  66.869  1.00  0.00    -0.146 A  
HETATM   13  F   UNL     1      -9.411  11.686  63.887  1.00  0.00    -0.188 F  
HETATM   14  F   UNL     1      -8.502   9.725  63.885  1.00  0.00    -0.137 F  
HETATM   15  N   UNL     1      -9.653   8.161  66.359  1.00  0.00    -0.225 N  
HETATM   16  F   UNL     1     -10.647   9.939  64.215  1.00  0.00     0.107 F  
HETATM   17  C   UNL     1      -9.174   9.629  68.256  1.00  0.00    -0.131 A  
HETATM   18  C   UNL     1      -8.908  10.893  68.796  1.00  0.00    -0.162 A  
HETATM   19  O   UNL     1      -8.880   7.672  65.532  1.00  0.00    -0.108 OA 
HETATM   20  O   UNL     1     -10.663   7.616  66.821  1.00  0.00    -0.318 OA 
ENDBRANCH   6   8
TORSDOF 1
ENDMDL
MODEL      183
REMARK 921   NORMALIZED FREE ENERGY PREDICTED BY IDOCK:   -2.91 KCAL/MOL
REMARK 922        TOTAL FREE ENERGY PREDICTED BY IDOCK:   -3.38 KCAL/MOL
REMARK 923 INTER-LIGAND FREE ENERGY PREDICTED BY IDOCK:   -3.53 KCAL/MOL
REMARK 924 INTRA-LIGAND FREE ENERGY PREDICTED BY IDOCK:    0.15 KCAL/MOL
REMARK 927      BINDING AFFINITY PREDICTED BY RF-SCORE:    0.00 PKD
ROOT
HETATM    1  C   UNL     1     -12.745  12.556  64.123  1.00  0.00    -0.417 C  
HETATM    2  C   UNL     1     -12.368  13.118  65.497  1.00  0.00    -0.529 C  
HETATM    3  C   UNL     1     -11.810  12.000  66.374  1.00  0.00    -0.232 C  
HETATM    4  C   UNL     1     -11.356  14.249  65.320  1.00  0.00    -0.336 C  
HETATM    5  O   UNL     1     -10.932  14.546  64.207  1.00  0.00    -0.200 OA 
HETATM    6  N   UNL     1     -11.011  14.905  66.496  1.00  0.00    -0.324 N  
HETATM    7  H   UNL     1     -11.534  14.661  67.338  1.00  0.00     0.000 HD 
ENDROOT
BRANCH   6   8
HETATM    8  C   UNL     1      -9.997  15.881  66.622  1.00  0.00    -0.257 A  
HETATM    9  C   UNL     1      -9.145  15.946  67.732  1.00  0.00    -0.196 A  
HETATM   10  C   UNL     1      -8.160  16.942  67.867  1.00  0.00    -0.191 A  
HETATM   11  C   UNL     1      -7.314  16.982  69.113  1.00  0.00    -0.186 C  
HETATM   12  C   UNL     1      -8.054  17.887  66.842  1.00  0.00    -0.229 A  
HETATM   13  F   UNL     1      -7.673  16.044  70.036  1.00  0.00    -0.034 F  
HETATM   14  F   UNL     1      -5.995  16.766  68.880  1.00  0.00    -0.138 F  
HETATM   15  N   UNL     1      -7.090  18.974  66.926  1.00  0.00    -0.204 N  
HETATM   16  F   UNL     1      -7.411  18.176  69.756  1.00  0.00     0.077 F  
HETATM   17  C   UNL     1      -8.894  17.848  65.720  1.00  0.00     0.347 A  
HETATM   18  C   UNL     1      -9.868  16.847  65.617  1.00  0.00    -0.067 A  
HETATM   19  O   UNL     1      -5.899  18.666  67.022  1.00  0.00    -0.151 OA 
HETATM   20  O   UNL     1      -7.539  20.125  66.863  1.00  0.00    -0.270 OA 
ENDBRANCH   6   8
TORSDOF 1
ENDMDL
MODEL      184
REMARK 921   NORMALIZED FREE ENERGY PREDICTED BY IDOCK:   -2.85 KCAL/MOL
REMARK 922        TOTAL FREE ENERGY PREDICTED BY IDOCK:   -3.33 KCAL/MOL
REMARK 923 INTER-LIGAND FREE ENERGY PREDICTED BY IDOCK:   -3.32 KCAL/MOL
REMARK 924 INTRA-LIGAND FREE ENERGY PREDICTED BY IDOCK:   -0.01 KCAL/MOL
REMARK 927      BINDING AFFINITY PREDICTED BY RF-SCORE:    0.00 PKD
ROOT
HETATM    1  C   UNL     1     -11.573   5.555  72.756  1.00  0.00    -0.298 C  
HETATM    2  C   UNL     1     -11.159   6.998  73.065  1.00  0.00    -0.295 C  
HETATM    3  C   UNL     1      -9.718   7.024  73.566  1.00  0.00    -0.269 C  
HETATM    4  C   UNL     1     -11.332   7.851  71.810  1.00  0.00    -0.264 C  
HETATM    5  O   UNL     1     -11.698   7.349  70.752  1.00  0.00    -0.294 OA 
HETATM    6  N   UNL     1     -11.081   9.206  71.994  1.00  0.00    -0.313 N  
HETATM    7  H   UNL     1     -10.920   9.526  72.949  1.00  0.00     0.000 HD 
ENDROOT
BRANCH   6   8
HETATM    8  C   UNL     1     -11.030  10.176  70.967  1.00  0.00    -0.075 A  
HETATM    9  C   UNL     1     -11.706  11.400  71.051  1.00  0.00     0.259 A  
HETATM   10  C   UNL     1     -11.679  12.347  70.010  1.00  0.00    -0.307 A  
HETATM   11  C   UNL     1     -12.473  13.620  70.147  1.00  0.00    -0.239 C  
HETATM   12  C   UNL     1     -10.945  12.025  68.864  1.00  0.00    -0.232 A  
HETATM   13  F   UNL     1     -13.215  13.669  71.289  1.00  0.00    -0.390 F  
HETATM   14  F   UNL     1     -11.705  14.737  70.172  1.00  0.00    -0.269 F  
HETATM   15  N   UNL     1     -10.902  12.931  67.726  1.00  0.00    -0.224 N  
HETATM   16  F   UNL     1     -13.363  13.776  69.131  1.00  0.00     0.913 F  
HETATM   17  C   UNL     1     -10.260  10.806  68.751  1.00  0.00    -0.207 A  
HETATM   18  C   UNL     1     -10.310   9.883  69.804  1.00  0.00    -0.278 A  
HETATM   19  O   UNL     1     -10.456  14.064  67.923  1.00  0.00    -0.236 OA 
HETATM   20  O   UNL     1     -11.289  12.482  66.640  1.00  0.00    -0.296 OA 
ENDBRANCH   6   8
TORSDOF 1
ENDMDL
MODEL      185
REMARK 921   NORMALIZED FREE ENERGY PREDICTED BY IDOCK:   -2.85 KCAL/MOL
REMARK 922        TOTAL FREE ENERGY PREDICTED BY IDOCK:   -3.32 KCAL/MOL
REMARK 923 INTER-LIGAND FREE ENERGY PREDICTED BY IDOCK:   -3.34 KCAL/MOL
REMARK 924 INTRA-LIGAND FREE ENERGY PREDICTED BY IDOCK:    0.01 KCAL/MOL
REMARK 927      BINDING AFFINITY PREDICTED BY RF-SCORE:    0.00 PKD
ROOT
HETATM    1  C   UNL     1      -8.608  14.233  67.435  1.00  0.00    -0.223 C  
HETATM    2  C   UNL     1      -9.741  13.227  67.212  1.00  0.00    -0.231 C  
HETATM    3  C   UNL     1     -10.612  13.685  66.045  1.00  0.00    -0.290 C  
HETATM    4  C   UNL     1      -9.146  11.844  66.958  1.00  0.00    -0.191 C  
HETATM    5  O   UNL     1      -7.930  11.681  66.905  1.00  0.00    -0.158 OA 
HETATM    6  N   UNL     1     -10.083  10.824  66.838  1.00  0.00    -0.204 N  
HETATM    7  H   UNL     1     -11.056  11.058  67.039  1.00  0.00     0.000 HD 
ENDROOT
BRANCH   6   8
HETATM    8  C   UNL     1      -9.800   9.492  66.461  1.00  0.00    -0.240 A  
HETATM    9  C   UNL     1     -10.323   8.386  67.145  1.00  0.00    -0.381 A  
HETATM   10  C   UNL     1     -10.010   7.062  66.785  1.00  0.00    -0.266 A  
HETATM   11  C   UNL     1     -10.567   5.923  67.597  1.00  0.00    -0.262 C  
HETATM   12  C   UNL     1      -9.141   6.876  65.704  1.00  0.00     0.136 A  
HETATM   13  F   UNL     1     -11.284   6.337  68.681  1.00  0.00    -0.346 F  
HETATM   14  F   UNL     1     -11.406   5.119  66.899  1.00  0.00     0.073 F  
HETATM   15  N   UNL     1      -8.733   5.540  65.296  1.00  0.00    -0.153 N  
HETATM   16  F   UNL     1      -9.584   5.128  68.099  1.00  0.00    -0.125 F  
HETATM   17  C   UNL     1      -8.601   7.964  65.003  1.00  0.00    -0.010 A  
HETATM   18  C   UNL     1      -8.929   9.270  65.389  1.00  0.00    -0.253 A  
HETATM   19  O   UNL     1      -9.624   4.757  64.959  1.00  0.00    -0.139 OA 
HETATM   20  O   UNL     1      -7.519   5.305  65.291  1.00  0.00    -0.074 OA 
ENDBRANCH   6   8
TORSDOF 1
ENDMDL
MODEL      186
REMARK 921   NORMALIZED FREE ENERGY PREDICTED BY IDOCK:   -2.85 KCAL/MOL
REMARK 922        TOTAL FREE ENERGY PREDICTED BY IDOCK:   -3.32 KCAL/MOL
REMARK 923 INTER-LIGAND FREE ENERGY PREDICTED BY IDOCK:   -3.09 KCAL/MOL
REMARK 924 INTRA-LIGAND FREE ENERGY PREDICTED BY IDOCK:   -0.23 KCAL/MOL
REMARK 927      BINDING AFFINITY PREDICTED BY RF-SCORE:    0.00 PKD
ROOT
HETATM    1  C   UNL     1     -10.185  11.759  64.872  1.00  0.00    -0.315 C  
HETATM    2  C   UNL     1     -10.323  11.313  66.331  1.00  0.00    -0.291 C  
HETATM    3  C   UNL     1     -11.731  11.623  66.832  1.00  0.00    -0.133 C  
HETATM    4  C   UNL     1     -10.006   9.822  66.435  1.00  0.00    -0.247 C  
HETATM    5  O   UNL     1      -9.748   9.162  65.433  1.00  0.00    -0.207 OA 
HETATM    6  N   UNL     1     -10.002   9.322  67.731  1.00  0.00    -0.179 N  
HETATM    7  H   UNL     1     -10.094   9.995  68.493  1.00  0.00     0.000 HD 
ENDROOT
BRANCH   6   8
HETATM    8  C   UNL     1      -9.882   7.958  68.082  1.00  0.00    -0.169 A  
HETATM    9  C   UNL     1      -8.744   7.438  68.713  1.00  0.00    -0.128 A  
HETATM   10  C   UNL     1      -8.617   6.072  69.028  1.00  0.00    -0.120 A  
HETATM   11  C   UNL     1      -7.343   5.574  69.659  1.00  0.00    -0.066 C  
HETATM   12  C   UNL     1      -9.679   5.230  68.685  1.00  0.00    -0.145 A  
HETATM   13  F   UNL     1      -6.393   6.543  69.787  1.00  0.00    -0.035 F  
HETATM   14  F   UNL     1      -7.516   5.075  70.908  1.00  0.00    -0.066 F  
HETATM   15  N   UNL     1      -9.608   3.798  68.938  1.00  0.00    -0.155 N  
HETATM   16  F   UNL     1      -6.759   4.593  68.920  1.00  0.00    -0.043 F  
HETATM   17  C   UNL     1     -10.830   5.722  68.051  1.00  0.00    -0.251 A  
HETATM   18  C   UNL     1     -10.924   7.086  67.747  1.00  0.00    -0.234 A  
HETATM   19  O   UNL     1      -9.453   3.438  70.108  1.00  0.00    -0.166 OA 
HETATM   20  O   UNL     1      -9.740   3.051  67.960  1.00  0.00    -0.137 OA 
ENDBRANCH   6   8
TORSDOF 1
ENDMDL
MODEL      187
REMARK 921   NORMALIZED FREE ENERGY PREDICTED BY IDOCK:   -2.84 KCAL/MOL
REMARK 922        TOTAL FREE ENERGY PREDICTED BY IDOCK:   -3.31 KCAL/MOL
REMARK 923 INTER-LIGAND FREE ENERGY PREDICTED BY IDOCK:   -3.55 KCAL/MOL
REMARK 924 INTRA-LIGAND FREE ENERGY PREDICTED BY IDOCK:    0.24 KCAL/MOL
REMARK 927      BINDING AFFINITY PREDICTED BY RF-SCORE:    0.00 PKD
ROOT
HETATM    1  C   UNL     1      -8.123   9.740  64.652  1.00  0.00    -0.148 C  
HETATM    2  C   UNL     1      -8.425  10.203  66.081  1.00  0.00    -0.134 C  
HETATM    3  C   UNL     1      -9.594  11.185  66.067  1.00  0.00    -0.248 C  
HETATM    4  C   UNL     1      -8.726   8.986  66.954  1.00  0.00    -0.123 C  
HETATM    5  O   UNL     1      -8.752   7.858  66.473  1.00  0.00    -0.133 OA 
HETATM    6  N   UNL     1      -8.919   9.275  68.300  1.00  0.00    -0.129 N  
HETATM    7  H   UNL     1      -8.735  10.231  68.604  1.00  0.00     0.000 HD 
ENDROOT
BRANCH   6   8
HETATM    8  C   UNL     1      -9.350   8.353  69.280  1.00  0.00    -0.154 A  
HETATM    9  C   UNL     1      -9.021   8.484  70.636  1.00  0.00    -0.182 A  
HETATM   10  C   UNL     1      -9.424   7.544  71.603  1.00  0.00    -0.170 A  
HETATM   11  C   UNL     1      -8.989   7.721  73.033  1.00  0.00    -0.199 C  
HETATM   12  C   UNL     1     -10.176   6.450  71.163  1.00  0.00    -0.191 A  
HETATM   13  F   UNL     1      -8.156   8.785  73.214  1.00  0.00    -0.166 F  
HETATM   14  F   UNL     1     -10.020   7.924  73.892  1.00  0.00    -0.320 F  
HETATM   15  N   UNL     1     -10.595   5.411  72.092  1.00  0.00    -0.222 N  
HETATM   16  F   UNL     1      -8.300   6.642  73.493  1.00  0.00    -0.115 F  
HETATM   17  C   UNL     1     -10.519   6.291  69.812  1.00  0.00    -0.289 A  
HETATM   18  C   UNL     1     -10.098   7.243  68.874  1.00  0.00    -0.180 A  
HETATM   19  O   UNL     1     -11.302   5.755  73.043  1.00  0.00    -0.268 OA 
HETATM   20  O   UNL     1     -10.235   4.255  71.837  1.00  0.00    -0.183 OA 
ENDBRANCH   6   8
TORSDOF 1
ENDMDL
MODEL      188
REMARK 921   NORMALIZED FREE ENERGY PREDICTED BY IDOCK:   -2.83 KCAL/MOL
REMARK 922        TOTAL FREE ENERGY PREDICTED BY IDOCK:   -3.30 KCAL/MOL
REMARK 923 INTER-LIGAND FREE ENERGY PREDICTED BY IDOCK:   -3.25 KCAL/MOL
REMARK 924 INTRA-LIGAND FREE ENERGY PREDICTED BY IDOCK:   -0.04 KCAL/MOL
REMARK 927      BINDING AFFINITY PREDICTED BY RF-SCORE:    0.00 PKD
ROOT
HETATM    1  C   UNL     1      -7.526   4.330  71.912  1.00  0.00    -0.070 C  
HETATM    2  C   UNL     1      -7.629   5.838  72.163  1.00  0.00    -0.101 C  
HETATM    3  C   UNL     1      -6.232   6.426  72.341  1.00  0.00    -0.049 C  
HETATM    4  C   UNL     1      -8.368   6.493  70.998  1.00  0.00    -0.126 C  
HETATM    5  O   UNL     1      -8.733   5.831  70.031  1.00  0.00    -0.128 OA 
HETATM    6  N   UNL     1      -8.611   7.852  71.160  1.00  0.00    -0.125 N  
HETATM    7  H   UNL     1      -8.385   8.263  72.066  1.00  0.00     0.000 HD 
ENDROOT
BRANCH   6   8
HETATM    8  C   UNL     1      -9.144   8.712  70.173  1.00  0.00    -0.158 A  
HETATM    9  C   UNL     1      -8.496   9.886  69.764  1.00  0.00    -0.206 A  
HETATM   10  C   UNL     1      -9.050  10.755  68.806  1.00  0.00    -0.180 A  
HETATM   11  C   UNL     1      -8.323  12.027  68.454  1.00  0.00    -0.151 C  
HETATM   12  C   UNL     1     -10.291  10.410  68.262  1.00  0.00    -0.171 A  
HETATM   13  F   UNL     1      -7.197  12.225  69.196  1.00  0.00    -0.105 F  
HETATM   14  F   UNL     1      -7.912  12.076  67.162  1.00  0.00    -0.146 F  
HETATM   15  N   UNL     1     -10.950  11.277  67.297  1.00  0.00    -0.270 N  
HETATM   16  F   UNL     1      -9.092  13.128  68.664  1.00  0.00    -0.173 F  
HETATM   17  C   UNL     1     -10.963   9.242  68.653  1.00  0.00    -0.039 A  
HETATM   18  C   UNL     1     -10.387   8.400  69.613  1.00  0.00    -0.218 A  
HETATM   19  O   UNL     1     -10.346  11.518  66.249  1.00  0.00    -0.225 OA 
HETATM   20  O   UNL     1     -12.082  11.681  67.591  1.00  0.00    -0.615 OA 
ENDBRANCH   6   8
TORSDOF 1
ENDMDL
MODEL      189
REMARK 921   NORMALIZED FREE ENERGY PREDICTED BY IDOCK:   -2.81 KCAL/MOL
REMARK 922        TOTAL FREE ENERGY PREDICTED BY IDOCK:   -3.28 KCAL/MOL
REMARK 923 INTER-LIGAND FREE ENERGY PREDICTED BY IDOCK:   -2.97 KCAL/MOL
REMARK 924 INTRA-LIGAND FREE ENERGY PREDICTED BY IDOCK:   -0.32 KCAL/MOL
REMARK 927      BINDING AFFINITY PREDICTED BY RF-SCORE:    0.00 PKD
ROOT
HETATM    1  C   UNL     1     -11.735  16.555  68.456  1.00  0.00     0.128 C  
HETATM    2  C   UNL     1     -10.623  15.828  67.694  1.00  0.00    -0.301 C  
HETATM    3  C   UNL     1      -9.273  16.458  68.029  1.00  0.00    -0.204 C  
HETATM    4  C   UNL     1     -10.652  14.343  68.053  1.00  0.00    -0.241 C  
HETATM    5  O   UNL     1     -11.450  13.911  68.880  1.00  0.00    -0.260 OA 
HETATM    6  N   UNL     1      -9.748  13.560  67.345  1.00  0.00    -0.224 N  
HETATM    7  H   UNL     1      -9.236  14.008  66.585  1.00  0.00     0.000 HD 
ENDROOT
BRANCH   6   8
HETATM    8  C   UNL     1      -9.479  12.195  67.592  1.00  0.00    -0.187 A  
HETATM    9  C   UNL     1      -8.564  11.769  68.564  1.00  0.00    -0.123 A  
HETATM   10  C   UNL     1      -8.276  10.408  68.781  1.00  0.00    -0.128 A  
HETATM   11  C   UNL     1      -7.242  10.026  69.807  1.00  0.00    -0.127 C  
HETATM   12  C   UNL     1      -8.940   9.473  67.981  1.00  0.00    -0.123 A  
HETATM   13  F   UNL     1      -6.629  11.102  70.378  1.00  0.00    -0.156 F  
HETATM   14  F   UNL     1      -7.746   9.310  70.843  1.00  0.00    -0.111 F  
HETATM   15  N   UNL     1      -8.666   8.050  68.113  1.00  0.00    -0.126 N  
HETATM   16  F   UNL     1      -6.238   9.284  69.266  1.00  0.00    -0.040 F  
HETATM   17  C   UNL     1      -9.860   9.870  66.999  1.00  0.00    -0.241 A  
HETATM   18  C   UNL     1     -10.121  11.233  66.805  1.00  0.00    -0.254 A  
HETATM   19  O   UNL     1      -8.872   7.535  69.215  1.00  0.00    -0.136 OA 
HETATM   20  O   UNL     1      -8.276   7.460  67.097  1.00  0.00    -0.115 OA 
ENDBRANCH   6   8
TORSDOF 1
ENDMDL
MODEL      190
REMARK 921   NORMALIZED FREE ENERGY PREDICTED BY IDOCK:   -2.73 KCAL/MOL
REMARK 922        TOTAL FREE ENERGY PREDICTED BY IDOCK:   -3.20 KCAL/MOL
REMARK 923 INTER-LIGAND FREE ENERGY PREDICTED BY IDOCK:   -2.89 KCAL/MOL
REMARK 924 INTRA-LIGAND FREE ENERGY PREDICTED BY IDOCK:   -0.31 KCAL/MOL
REMARK 927      BINDING AFFINITY PREDICTED BY RF-SCORE:    0.00 PKD
ROOT
HETATM    1  C   UNL     1     -12.132  11.267  69.452  1.00  0.00    -0.384 C  
HETATM    2  C   UNL     1     -11.204  10.244  70.113  1.00  0.00    -0.387 C  
HETATM    3  C   UNL     1     -11.942   9.537  71.247  1.00  0.00    -0.445 C  
HETATM    4  C   UNL     1     -10.714   9.251  69.060  1.00  0.00    -0.167 C  
HETATM    5  O   UNL     1     -11.109   9.319  67.900  1.00  0.00    -0.098 OA 
HETATM    6  N   UNL     1      -9.783   8.329  69.524  1.00  0.00    -0.172 N  
HETATM    7  H   UNL     1      -9.427   8.460  70.472  1.00  0.00     0.000 HD 
ENDROOT
BRANCH   6   8
HETATM    8  C   UNL     1      -9.289   7.226  68.792  1.00  0.00    -0.143 A  
HETATM    9  C   UNL     1      -8.066   7.260  68.108  1.00  0.00    -0.124 A  
HETATM   10  C   UNL     1      -7.597   6.169  67.353  1.00  0.00    -0.090 A  
HETATM   11  C   UNL     1      -6.298   6.295  66.600  1.00  0.00    -0.041 C  
HETATM   12  C   UNL     1      -8.402   5.027  67.300  1.00  0.00    -0.106 A  
HETATM   13  F   UNL     1      -5.744   7.538  66.689  1.00  0.00    -0.027 F  
HETATM   14  F   UNL     1      -5.336   5.443  67.034  1.00  0.00    -0.007 F  
HETATM   15  N   UNL     1      -8.009   3.873  66.506  1.00  0.00    -0.096 N  
HETATM   16  F   UNL     1      -6.457   6.066  65.269  1.00  0.00    -0.037 F  
HETATM   17  C   UNL     1      -9.632   4.965  67.973  1.00  0.00    -0.190 A  
HETATM   18  C   UNL     1     -10.073   6.070  68.713  1.00  0.00    -0.210 A  
HETATM   19  O   UNL     1      -6.935   3.334  66.787  1.00  0.00    -0.052 OA 
HETATM   20  O   UNL     1      -8.799   3.503  65.628  1.00  0.00    -0.118 OA 
ENDBRANCH   6   8
TORSDOF 1
ENDMDL
MODEL      191
REMARK 921   NORMALIZED FREE ENERGY PREDICTED BY IDOCK:   -2.69 KCAL/MOL
REMARK 922        TOTAL FREE ENERGY PREDICTED BY IDOCK:   -3.15 KCAL/MOL
REMARK 923 INTER-LIGAND FREE ENERGY PREDICTED BY IDOCK:   -3.42 KCAL/MOL
REMARK 924 INTRA-LIGAND FREE ENERGY PREDICTED BY IDOCK:    0.27 KCAL/MOL
REMARK 927      BINDING AFFINITY PREDICTED BY RF-SCORE:    0.00 PKD
ROOT
HETATM    1  C   UNL     1     -11.218  14.790  68.845  1.00  0.00    -0.282 C  
HETATM    2  C   UNL     1     -11.375  14.295  67.404  1.00  0.00    -0.349 C  
HETATM    3  C   UNL     1     -11.051  15.428  66.433  1.00  0.00    -0.230 C  
HETATM    4  C   UNL     1     -10.464  13.090  67.182  1.00  0.00    -0.243 C  
HETATM    5  O   UNL     1      -9.717  12.693  68.071  1.00  0.00    -0.203 OA 
HETATM    6  N   UNL     1     -10.593  12.490  65.934  1.00  0.00    -0.259 N  
HETATM    7  H   UNL     1     -11.345  12.823  65.331  1.00  0.00     0.000 HD 
ENDROOT
BRANCH   6   8
HETATM    8  C   UNL     1      -9.768  11.458  65.433  1.00  0.00    -0.230 A  
HETATM    9  C   UNL     1      -8.630  11.004  66.113  1.00  0.00    -0.175 A  
HETATM   10  C   UNL     1      -7.793   9.999  65.592  1.00  0.00    -0.138 A  
HETATM   11  C   UNL     1      -6.557   9.598  66.352  1.00  0.00    -0.071 C  
HETATM   12  C   UNL     1      -8.134   9.458  64.348  1.00  0.00    -0.138 A  
HETATM   13  F   UNL     1      -6.351  10.344  67.475  1.00  0.00    -0.056 F  
HETATM   14  F   UNL     1      -6.578   8.310  66.779  1.00  0.00    -0.053 F  
HETATM   15  N   UNL     1      -7.297   8.446  63.720  1.00  0.00    -0.101 N  
HETATM   16  F   UNL     1      -5.429   9.748  65.608  1.00  0.00    -0.041 F  
HETATM   17  C   UNL     1      -9.266   9.894  63.644  1.00  0.00    -0.283 A  
HETATM   18  C   UNL     1     -10.076  10.899  64.188  1.00  0.00    -0.416 A  
HETATM   19  O   UNL     1      -7.120   7.395  64.342  1.00  0.00    -0.056 OA 
HETATM   20  O   UNL     1      -6.853   8.708  62.595  1.00  0.00    -0.095 OA 
ENDBRANCH   6   8
TORSDOF 1
ENDMDL
MODEL      192
REMARK 921   NORMALIZED FREE ENERGY PREDICTED BY IDOCK:   -2.67 KCAL/MOL
REMARK 922        TOTAL FREE ENERGY PREDICTED BY IDOCK:   -3.13 KCAL/MOL
REMARK 923 INTER-LIGAND FREE ENERGY PREDICTED BY IDOCK:   -3.29 KCAL/MOL
REMARK 924 INTRA-LIGAND FREE ENERGY PREDICTED BY IDOCK:    0.15 KCAL/MOL
REMARK 927      BINDING AFFINITY PREDICTED BY RF-SCORE:    0.00 PKD
ROOT
HETATM    1  C   UNL     1      -8.699   5.099  72.318  1.00  0.00    -0.127 C  
HETATM    2  C   UNL     1      -8.688   5.391  70.814  1.00  0.00    -0.139 C  
HETATM    3  C   UNL     1      -9.947   4.816  70.170  1.00  0.00    -0.321 C  
HETATM    4  C   UNL     1      -8.584   6.899  70.593  1.00  0.00    -0.141 C  
HETATM    5  O   UNL     1      -8.575   7.675  71.544  1.00  0.00    -0.113 OA 
HETATM    6  N   UNL     1      -8.466   7.280  69.262  1.00  0.00    -0.132 N  
HETATM    7  H   UNL     1      -8.346   6.539  68.572  1.00  0.00     0.000 HD 
ENDROOT
BRANCH   6   8
HETATM    8  C   UNL     1      -8.500   8.611  68.786  1.00  0.00    -0.129 A  
HETATM    9  C   UNL     1      -9.151   8.971  67.598  1.00  0.00    -0.144 A  
HETATM   10  C   UNL     1      -9.152  10.292  67.112  1.00  0.00    -0.156 A  
HETATM   11  C   UNL     1      -9.827  10.597  65.801  1.00  0.00    -0.241 C  
HETATM   12  C   UNL     1      -8.468  11.255  67.860  1.00  0.00    -0.133 A  
HETATM   13  F   UNL     1     -10.318   9.487  65.179  1.00  0.00    -0.230 F  
HETATM   14  F   UNL     1     -10.885  11.438  65.919  1.00  0.00    -0.305 F  
HETATM   15  N   UNL     1      -8.384  12.634  67.404  1.00  0.00    -0.175 N  
HETATM   16  F   UNL     1      -8.972  11.162  64.907  1.00  0.00    -0.191 F  
HETATM   17  C   UNL     1      -7.805  10.923  69.052  1.00  0.00    -0.138 A  
HETATM   18  C   UNL     1      -7.820   9.598  69.506  1.00  0.00    -0.117 A  
HETATM   19  O   UNL     1      -9.446  13.240  67.242  1.00  0.00    -0.218 OA 
HETATM   20  O   UNL     1      -7.250  13.101  67.243  1.00  0.00    -0.136 OA 
ENDBRANCH   6   8
TORSDOF 1
ENDMDL
MODEL      193
REMARK 921   NORMALIZED FREE ENERGY PREDICTED BY IDOCK:   -2.67 KCAL/MOL
REMARK 922        TOTAL FREE ENERGY PREDICTED BY IDOCK:   -3.13 KCAL/MOL
REMARK 923 INTER-LIGAND FREE ENERGY PREDICTED BY IDOCK:   -3.55 KCAL/MOL
REMARK 924 INTRA-LIGAND FREE ENERGY PREDICTED BY IDOCK:    0.42 KCAL/MOL
REMARK 927      BINDING AFFINITY PREDICTED BY RF-SCORE:    0.00 PKD
ROOT
HETATM    1  C   UNL     1     -12.064  11.714  70.333  1.00  0.00    -0.462 C  
HETATM    2  C   UNL     1     -11.865  10.899  69.051  1.00  0.00    -0.370 C  
HETATM    3  C   UNL     1     -11.197  11.767  67.988  1.00  0.00    -0.324 C  
HETATM    4  C   UNL     1     -11.032   9.658  69.366  1.00  0.00    -0.190 C  
HETATM    5  O   UNL     1     -10.590   9.466  70.494  1.00  0.00    -0.228 OA 
HETATM    6  N   UNL     1     -10.868   8.786  68.296  1.00  0.00    -0.457 N  
HETATM    7  H   UNL     1     -11.399   8.983  67.446  1.00  0.00     0.000 HD 
ENDROOT
BRANCH   6   8
HETATM    8  C   UNL     1     -10.028   7.650  68.287  1.00  0.00    -0.176 A  
HETATM    9  C   UNL     1      -9.946   6.779  67.191  1.00  0.00    -0.220 A  
HETATM   10  C   UNL     1      -9.133   5.631  67.203  1.00  0.00    -0.111 A  
HETATM   11  C   UNL     1      -9.135   4.712  66.010  1.00  0.00    -0.131 C  
HETATM   12  C   UNL     1      -8.395   5.374  68.363  1.00  0.00    -0.094 A  
HETATM   13  F   UNL     1     -10.023   5.085  65.045  1.00  0.00    -0.084 F  
HETATM   14  F   UNL     1      -7.935   4.637  65.381  1.00  0.00    -0.093 F  
HETATM   15  N   UNL     1      -7.564   4.185  68.470  1.00  0.00    -0.062 N  
HETATM   16  F   UNL     1      -9.483   3.441  66.346  1.00  0.00    -0.174 F  
HETATM   17  C   UNL     1      -8.458   6.227  69.475  1.00  0.00    -0.129 A  
HETATM   18  C   UNL     1      -9.281   7.360  69.434  1.00  0.00    -0.145 A  
HETATM   19  O   UNL     1      -6.662   4.049  67.640  1.00  0.00    -0.045 OA 
HETATM   20  O   UNL     1      -7.808   3.416  69.409  1.00  0.00    -0.051 OA 
ENDBRANCH   6   8
TORSDOF 1
ENDMDL
MODEL      194
REMARK 921   NORMALIZED FREE ENERGY PREDICTED BY IDOCK:   -2.61 KCAL/MOL
REMARK 922        TOTAL FREE ENERGY PREDICTED BY IDOCK:   -3.07 KCAL/MOL
REMARK 923 INTER-LIGAND FREE ENERGY PREDICTED BY IDOCK:   -2.97 KCAL/MOL
REMARK 924 INTRA-LIGAND FREE ENERGY PREDICTED BY IDOCK:   -0.09 KCAL/MOL
REMARK 927      BINDING AFFINITY PREDICTED BY RF-SCORE:    0.00 PKD
ROOT
HETATM    1  C   UNL     1      -8.538   4.201  70.529  1.00  0.00    -0.111 C  
HETATM    2  C   UNL     1      -8.084   5.644  70.282  1.00  0.00    -0.104 C  
HETATM    3  C   UNL     1      -6.592   5.771  70.577  1.00  0.00    -0.044 C  
HETATM    4  C   UNL     1      -8.406   6.035  68.841  1.00  0.00    -0.107 C  
HETATM    5  O   UNL     1      -8.902   5.224  68.065  1.00  0.00    -0.106 OA 
HETATM    6  N   UNL     1      -8.129   7.360  68.527  1.00  0.00    -0.123 N  
HETATM    7  H   UNL     1      -7.850   7.974  69.292  1.00  0.00     0.000 HD 
ENDROOT
BRANCH   6   8
HETATM    8  C   UNL     1      -8.200   7.927  67.234  1.00  0.00    -0.122 A  
HETATM    9  C   UNL     1      -8.972   9.061  66.948  1.00  0.00    -0.144 A  
HETATM   10  C   UNL     1      -9.066   9.599  65.651  1.00  0.00    -0.236 A  
HETATM   11  C   UNL     1      -9.957  10.789  65.407  1.00  0.00    -0.271 C  
HETATM   12  C   UNL     1      -8.355   8.957  64.633  1.00  0.00    -0.170 A  
HETATM   13  F   UNL     1     -10.655  11.173  66.514  1.00  0.00    -0.266 F  
HETATM   14  F   UNL     1      -9.284  11.896  65.006  1.00  0.00    -0.138 F  
HETATM   15  N   UNL     1      -8.434   9.425  63.257  1.00  0.00    -0.189 N  
HETATM   16  F   UNL     1     -10.898  10.534  64.459  1.00  0.00    -0.336 F  
HETATM   17  C   UNL     1      -7.576   7.819  64.889  1.00  0.00    -0.102 A  
HETATM   18  C   UNL     1      -7.506   7.305  66.190  1.00  0.00    -0.083 A  
HETATM   19  O   UNL     1      -8.076  10.585  63.035  1.00  0.00    -0.154 OA 
HETATM   20  O   UNL     1      -8.826   8.611  62.412  1.00  0.00    -0.169 OA 
ENDBRANCH   6   8
TORSDOF 1
ENDMDL
MODEL      195
REMARK 921   NORMALIZED FREE ENERGY PREDICTED BY IDOCK:   -2.58 KCAL/MOL
REMARK 922        TOTAL FREE ENERGY PREDICTED BY IDOCK:   -3.03 KCAL/MOL
REMARK 923 INTER-LIGAND FREE ENERGY PREDICTED BY IDOCK:   -3.24 KCAL/MOL
REMARK 924 INTRA-LIGAND FREE ENERGY PREDICTED BY IDOCK:    0.20 KCAL/MOL
REMARK 927      BINDING AFFINITY PREDICTED BY RF-SCORE:    0.00 PKD
ROOT
HETATM    1  C   UNL     1     -12.151  11.190  69.435  1.00  0.00    -0.396 C  
HETATM    2  C   UNL     1     -11.636  10.242  70.524  1.00  0.00    -0.424 C  
HETATM    3  C   UNL     1     -12.804   9.761  71.381  1.00  0.00    -0.489 C  
HETATM    4  C   UNL     1     -10.903   9.073  69.869  1.00  0.00    -0.218 C  
HETATM    5  O   UNL     1     -10.842   8.972  68.648  1.00  0.00    -0.142 OA 
HETATM    6  N   UNL     1     -10.304   8.193  70.764  1.00  0.00    -0.195 N  
HETATM    7  H   UNL     1     -10.305   8.456  71.750  1.00  0.00     0.000 HD 
ENDROOT
BRANCH   6   8
HETATM    8  C   UNL     1      -9.695   6.965  70.420  1.00  0.00    -0.172 A  
HETATM    9  C   UNL     1      -9.158   6.718  69.150  1.00  0.00    -0.138 A  
HETATM   10  C   UNL     1      -8.584   5.480  68.804  1.00  0.00    -0.100 A  
HETATM   11  C   UNL     1      -8.073   5.268  67.403  1.00  0.00    -0.100 C  
HETATM   12  C   UNL     1      -8.566   4.482  69.783  1.00  0.00    -0.069 A  
HETATM   13  F   UNL     1      -8.307   6.329  66.580  1.00  0.00    -0.107 F  
HETATM   14  F   UNL     1      -6.735   5.055  67.341  1.00  0.00    -0.048 F  
HETATM   15  N   UNL     1      -8.029   3.161  69.491  1.00  0.00    -0.049 N  
HETATM   16  F   UNL     1      -8.670   4.205  66.800  1.00  0.00    -0.109 F  
HETATM   17  C   UNL     1      -9.099   4.700  71.062  1.00  0.00    -0.181 A  
HETATM   18  C   UNL     1      -9.667   5.941  71.374  1.00  0.00    -0.196 A  
HETATM   19  O   UNL     1      -6.850   3.096  69.135  1.00  0.00    -0.040 OA 
HETATM   20  O   UNL     1      -8.792   2.200  69.654  1.00  0.00    -0.062 OA 
ENDBRANCH   6   8
TORSDOF 1
ENDMDL
MODEL      196
REMARK 921   NORMALIZED FREE ENERGY PREDICTED BY IDOCK:   -2.56 KCAL/MOL
REMARK 922        TOTAL FREE ENERGY PREDICTED BY IDOCK:   -3.01 KCAL/MOL
REMARK 923 INTER-LIGAND FREE ENERGY PREDICTED BY IDOCK:   -3.30 KCAL/MOL
REMARK 924 INTRA-LIGAND FREE ENERGY PREDICTED BY IDOCK:    0.29 KCAL/MOL
REMARK 927      BINDING AFFINITY PREDICTED BY RF-SCORE:    0.00 PKD
ROOT
HETATM    1  C   UNL     1      -9.967  11.489  66.030  1.00  0.00    -0.258 C  
HETATM    2  C   UNL     1      -9.882  11.575  67.558  1.00  0.00    -0.203 C  
HETATM    3  C   UNL     1     -11.089  12.338  68.098  1.00  0.00    -0.285 C  
HETATM    4  C   UNL     1      -9.806  10.164  68.139  1.00  0.00    -0.144 C  
HETATM    5  O   UNL     1      -9.868   9.179  67.410  1.00  0.00    -0.163 OA 
HETATM    6  N   UNL     1      -9.626  10.116  69.516  1.00  0.00    -0.235 N  
HETATM    7  H   UNL     1      -9.448  10.999  69.996  1.00  0.00     0.000 HD 
ENDROOT
BRANCH   6   8
HETATM    8  C   UNL     1      -9.668   8.945  70.307  1.00  0.00    -0.185 A  
HETATM    9  C   UNL     1      -9.770   7.662  69.751  1.00  0.00    -0.171 A  
HETATM   10  C   UNL     1      -9.847   6.503  70.545  1.00  0.00    -0.197 A  
HETATM   11  C   UNL     1     -10.008   5.161  69.881  1.00  0.00    -0.246 C  
HETATM   12  C   UNL     1      -9.821   6.669  71.934  1.00  0.00    -0.166 A  
HETATM   13  F   UNL     1     -10.139   5.244  68.526  1.00  0.00    -0.192 F  
HETATM   14  F   UNL     1      -8.960   4.324  70.088  1.00  0.00    -0.102 F  
HETATM   15  N   UNL     1      -9.939   5.525  72.825  1.00  0.00    -0.167 N  
HETATM   16  F   UNL     1     -11.122   4.510  70.311  1.00  0.00     0.425 F  
HETATM   17  C   UNL     1      -9.722   7.941  72.518  1.00  0.00    -0.290 A  
HETATM   18  C   UNL     1      -9.651   9.075  71.699  1.00  0.00    -0.319 A  
HETATM   19  O   UNL     1      -9.084   4.641  72.725  1.00  0.00    -0.121 OA 
HETATM   20  O   UNL     1     -10.873   5.543  73.636  1.00  0.00    -0.278 OA 
ENDBRANCH   6   8
TORSDOF 1
ENDMDL
MODEL      197
REMARK 921   NORMALIZED FREE ENERGY PREDICTED BY IDOCK:   -2.52 KCAL/MOL
REMARK 922        TOTAL FREE ENERGY PREDICTED BY IDOCK:   -2.97 KCAL/MOL
REMARK 923 INTER-LIGAND FREE ENERGY PREDICTED BY IDOCK:   -2.66 KCAL/MOL
REMARK 924 INTRA-LIGAND FREE ENERGY PREDICTED BY IDOCK:   -0.31 KCAL/MOL
REMARK 927      BINDING AFFINITY PREDICTED BY RF-SCORE:    0.00 PKD
ROOT
HETATM    1  C   UNL     1      -5.996   2.944  64.173  1.00  0.00    -0.014 C  
HETATM    2  C   UNL     1      -7.440   3.407  64.390  1.00  0.00    -0.075 C  
HETATM    3  C   UNL     1      -8.281   2.243  64.909  1.00  0.00    -0.083 C  
HETATM    4  C   UNL     1      -7.452   4.585  65.363  1.00  0.00    -0.081 C  
HETATM    5  O   UNL     1      -6.413   4.985  65.879  1.00  0.00    -0.038 OA 
HETATM    6  N   UNL     1      -8.703   5.156  65.562  1.00  0.00    -0.142 N  
HETATM    7  H   UNL     1      -9.468   4.827  64.971  1.00  0.00     0.000 HD 
ENDROOT
BRANCH   6   8
HETATM    8  C   UNL     1      -9.004   6.156  66.515  1.00  0.00    -0.139 A  
HETATM    9  C   UNL     1      -9.178   5.873  67.876  1.00  0.00    -0.108 A  
HETATM   10  C   UNL     1      -9.511   6.868  68.814  1.00  0.00    -0.135 A  
HETATM   11  C   UNL     1      -9.734   6.483  70.253  1.00  0.00    -0.168 C  
HETATM   12  C   UNL     1      -9.671   8.174  68.340  1.00  0.00    -0.161 A  
HETATM   13  F   UNL     1      -9.652   5.139  70.468  1.00  0.00    -0.183 F  
HETATM   14  F   UNL     1      -8.838   7.037  71.107  1.00  0.00    -0.137 F  
HETATM   15  N   UNL     1     -10.058   9.252  69.238  1.00  0.00    -0.192 N  
HETATM   16  F   UNL     1     -10.970   6.843  70.691  1.00  0.00    -0.248 F  
HETATM   17  C   UNL     1      -9.506   8.486  66.982  1.00  0.00    -0.223 A  
HETATM   18  C   UNL     1      -9.178   7.472  66.073  1.00  0.00    -0.102 A  
HETATM   19  O   UNL     1      -9.311   9.488  70.191  1.00  0.00    -0.215 OA 
HETATM   20  O   UNL     1     -11.092   9.870  68.956  1.00  0.00    -0.213 OA 
ENDBRANCH   6   8
TORSDOF 1
ENDMDL
MODEL      198
REMARK 921   NORMALIZED FREE ENERGY PREDICTED BY IDOCK:   -2.48 KCAL/MOL
REMARK 922        TOTAL FREE ENERGY PREDICTED BY IDOCK:   -2.93 KCAL/MOL
REMARK 923 INTER-LIGAND FREE ENERGY PREDICTED BY IDOCK:   -2.62 KCAL/MOL
REMARK 924 INTRA-LIGAND FREE ENERGY PREDICTED BY IDOCK:   -0.31 KCAL/MOL
REMARK 927      BINDING AFFINITY PREDICTED BY RF-SCORE:    0.00 PKD
ROOT
HETATM    1  C   UNL     1      -5.152  13.725  68.829  1.00  0.00    -0.075 C  
HETATM    2  C   UNL     1      -6.648  13.566  69.118  1.00  0.00    -0.109 C  
HETATM    3  C   UNL     1      -7.159  14.792  69.872  1.00  0.00    -0.086 C  
HETATM    4  C   UNL     1      -7.399  13.365  67.803  1.00  0.00    -0.157 C  
HETATM    5  O   UNL     1      -6.806  13.398  66.729  1.00  0.00     0.328 OA 
HETATM    6  N   UNL     1      -8.758  13.111  67.947  1.00  0.00    -0.181 N  
HETATM    7  H   UNL     1      -9.110  12.969  68.894  1.00  0.00     0.000 HD 
ENDROOT
BRANCH   6   8
HETATM    8  C   UNL     1      -9.692  13.033  66.889  1.00  0.00    -0.238 A  
HETATM    9  C   UNL     1     -10.384  14.154  66.409  1.00  0.00    -0.287 A  
HETATM   10  C   UNL     1     -11.338  14.064  65.379  1.00  0.00    -0.315 A  
HETATM   11  C   UNL     1     -12.081  15.301  64.949  1.00  0.00    -0.039 C  
HETATM   12  C   UNL     1     -11.585  12.798  64.838  1.00  0.00    -0.330 A  
HETATM   13  F   UNL     1     -11.775  16.399  65.698  1.00  0.00     0.326 F  
HETATM   14  F   UNL     1     -11.834  15.663  63.666  1.00  0.00    -0.052 F  
HETATM   15  N   UNL     1     -12.588  12.613  63.799  1.00  0.00    -0.369 N  
HETATM   16  F   UNL     1     -13.428  15.152  65.064  1.00  0.00     0.359 F  
HETATM   17  C   UNL     1     -10.910  11.659  65.299  1.00  0.00    -0.340 A  
HETATM   18  C   UNL     1      -9.968  11.781  66.329  1.00  0.00    -0.246 A  
HETATM   19  O   UNL     1     -12.435  13.241  62.748  1.00  0.00    -0.311 OA 
HETATM   20  O   UNL     1     -13.502  11.815  64.041  1.00  0.00    -0.493 OA 
ENDBRANCH   6   8
TORSDOF 1
ENDMDL
MODEL      199
REMARK 921   NORMALIZED FREE ENERGY PREDICTED BY IDOCK:   -2.48 KCAL/MOL
REMARK 922        TOTAL FREE ENERGY PREDICTED BY IDOCK:   -2.93 KCAL/MOL
REMARK 923 INTER-LIGAND FREE ENERGY PREDICTED BY IDOCK:   -2.77 KCAL/MOL
REMARK 924 INTRA-LIGAND FREE ENERGY PREDICTED BY IDOCK:   -0.16 KCAL/MOL
REMARK 927      BINDING AFFINITY PREDICTED BY RF-SCORE:    0.00 PKD
ROOT
HETATM    1  C   UNL     1      -8.040   3.754  71.845  1.00  0.00    -0.071 C  
HETATM    2  C   UNL     1      -7.899   5.255  72.118  1.00  0.00    -0.105 C  
HETATM    3  C   UNL     1      -6.559   5.531  72.795  1.00  0.00    -0.070 C  
HETATM    4  C   UNL     1      -8.031   6.022  70.804  1.00  0.00    -0.114 C  
HETATM    5  O   UNL     1      -8.171   5.427  69.739  1.00  0.00    -0.096 OA 
HETATM    6  N   UNL     1      -8.019   7.405  70.939  1.00  0.00    -0.096 N  
HETATM    7  H   UNL     1      -8.039   7.783  71.886  1.00  0.00     0.000 HD 
ENDROOT
BRANCH   6   8
HETATM    8  C   UNL     1      -7.981   8.331  69.872  1.00  0.00    -0.108 A  
HETATM    9  C   UNL     1      -8.997   8.417  68.910  1.00  0.00    -0.146 A  
HETATM   10  C   UNL     1      -8.936   9.318  67.830  1.00  0.00    -0.130 A  
HETATM   11  C   UNL     1     -10.039   9.318  66.805  1.00  0.00    -0.261 C  
HETATM   12  C   UNL     1      -7.809  10.140  67.740  1.00  0.00    -0.098 A  
HETATM   13  F   UNL     1     -10.973   8.348  67.019  1.00  0.00    -0.345 F  
HETATM   14  F   UNL     1     -10.736  10.481  66.760  1.00  0.00    -0.287 F  
HETATM   15  N   UNL     1      -7.650  11.069  66.630  1.00  0.00    -0.141 N  
HETATM   16  F   UNL     1      -9.567   9.093  65.550  1.00  0.00    -0.306 F  
HETATM   17  C   UNL     1      -6.776  10.075  68.687  1.00  0.00    -0.053 A  
HETATM   18  C   UNL     1      -6.865   9.165  69.747  1.00  0.00    -0.051 A  
HETATM   19  O   UNL     1      -8.523  11.928  66.483  1.00  0.00    -0.173 OA 
HETATM   20  O   UNL     1      -6.632  10.942  65.938  1.00  0.00    -0.118 OA 
ENDBRANCH   6   8
TORSDOF 1
ENDMDL
MODEL      200
REMARK 921   NORMALIZED FREE ENERGY PREDICTED BY IDOCK:   -2.44 KCAL/MOL
REMARK 922        TOTAL FREE ENERGY PREDICTED BY IDOCK:   -2.89 KCAL/MOL
REMARK 923 INTER-LIGAND FREE ENERGY PREDICTED BY IDOCK:   -2.66 KCAL/MOL
REMARK 924 INTRA-LIGAND FREE ENERGY PREDICTED BY IDOCK:   -0.23 KCAL/MOL
REMARK 927      BINDING AFFINITY PREDICTED BY RF-SCORE:    0.00 PKD
ROOT
HETATM    1  C   UNL     1      -9.762  12.423  66.579  1.00  0.00    -0.245 C  
HETATM    2  C   UNL     1      -9.858  11.992  68.046  1.00  0.00    -0.199 C  
HETATM    3  C   UNL     1     -11.265  12.265  68.571  1.00  0.00    -0.316 C  
HETATM    4  C   UNL     1      -9.493  10.514  68.163  1.00  0.00    -0.151 C  
HETATM    5  O   UNL     1      -9.233   9.849  67.165  1.00  0.00    -0.137 OA 
HETATM    6  N   UNL     1      -9.448  10.032  69.466  1.00  0.00    -0.217 N  
HETATM    7  H   UNL     1      -9.546  10.712  70.220  1.00  0.00     0.000 HD 
ENDROOT
BRANCH   6   8
HETATM    8  C   UNL     1      -9.278   8.677  69.832  1.00  0.00    -0.155 A  
HETATM    9  C   UNL     1      -8.114   8.202  70.451  1.00  0.00    -0.108 A  
HETATM   10  C   UNL     1      -7.938   6.846  70.781  1.00  0.00    -0.106 A  
HETATM   11  C   UNL     1      -6.638   6.397  71.396  1.00  0.00    -0.054 C  
HETATM   12  C   UNL     1      -8.978   5.965  70.466  1.00  0.00    -0.144 A  
HETATM   13  F   UNL     1      -5.718   7.398  71.497  1.00  0.00    -0.035 F  
HETATM   14  F   UNL     1      -6.775   5.909  72.655  1.00  0.00    -0.062 F  
HETATM   15  N   UNL     1      -8.856   4.540  70.736  1.00  0.00    -0.098 N  
HETATM   16  F   UNL     1      -6.035   5.426  70.661  1.00  0.00    -0.018 F  
HETATM   17  C   UNL     1     -10.154   6.411  69.845  1.00  0.00    -0.206 A  
HETATM   18  C   UNL     1     -10.296   7.767  69.526  1.00  0.00    -0.219 A  
HETATM   19  O   UNL     1      -8.670   4.201  71.908  1.00  0.00    -0.106 OA 
HETATM   20  O   UNL     1      -8.980   3.776  69.770  1.00  0.00    -0.082 OA 
ENDBRANCH   6   8
TORSDOF 1
ENDMDL
MODEL      201
REMARK 921   NORMALIZED FREE ENERGY PREDICTED BY IDOCK:   -2.31 KCAL/MOL
REMARK 922        TOTAL FREE ENERGY PREDICTED BY IDOCK:   -2.75 KCAL/MOL
REMARK 923 INTER-LIGAND FREE ENERGY PREDICTED BY IDOCK:   -2.45 KCAL/MOL
REMARK 924 INTRA-LIGAND FREE ENERGY PREDICTED BY IDOCK:   -0.30 KCAL/MOL
REMARK 927      BINDING AFFINITY PREDICTED BY RF-SCORE:    0.00 PKD
ROOT
HETATM    1  C   UNL     1     -10.182   4.522  74.195  1.00  0.00    -0.264 C  
HETATM    2  C   UNL     1     -10.826   4.738  72.822  1.00  0.00    -0.280 C  
HETATM    3  C   UNL     1     -11.811   5.903  72.893  1.00  0.00    -0.007 C  
HETATM    4  C   UNL     1      -9.733   4.991  71.785  1.00  0.00    -0.163 C  
HETATM    5  O   UNL     1      -8.553   5.048  72.116  1.00  0.00    -0.122 OA 
HETATM    6  N   UNL     1     -10.192   5.104  70.478  1.00  0.00    -0.256 N  
HETATM    7  H   UNL     1     -11.177   4.900  70.309  1.00  0.00     0.000 HD 
ENDROOT
BRANCH   6   8
HETATM    8  C   UNL     1      -9.407   5.480  69.365  1.00  0.00    -0.118 A  
HETATM    9  C   UNL     1      -9.331   6.802  68.905  1.00  0.00    -0.129 A  
HETATM   10  C   UNL     1      -8.574   7.163  67.775  1.00  0.00    -0.126 A  
HETATM   11  C   UNL     1      -8.581   8.594  67.307  1.00  0.00    -0.125 C  
HETATM   12  C   UNL     1      -7.887   6.144  67.107  1.00  0.00    -0.102 A  
HETATM   13  F   UNL     1      -9.419   9.392  68.029  1.00  0.00    -0.134 F  
HETATM   14  F   UNL     1      -7.366   9.194  67.380  1.00  0.00    -0.080 F  
HETATM   15  N   UNL     1      -7.117   6.428  65.905  1.00  0.00    -0.065 N  
HETATM   16  F   UNL     1      -8.999   8.706  66.018  1.00  0.00    -0.155 F  
HETATM   17  C   UNL     1      -7.946   4.812  67.542  1.00  0.00    -0.094 A  
HETATM   18  C   UNL     1      -8.712   4.485  68.669  1.00  0.00    -0.118 A  
HETATM   19  O   UNL     1      -6.197   7.243  66.003  1.00  0.00    -0.039 OA 
HETATM   20  O   UNL     1      -7.428   5.804  64.882  1.00  0.00    -0.072 OA 
ENDBRANCH   6   8
TORSDOF 1
ENDMDL
MODEL      202
REMARK 921   NORMALIZED FREE ENERGY PREDICTED BY IDOCK:   -2.30 KCAL/MOL
REMARK 922        TOTAL FREE ENERGY PREDICTED BY IDOCK:   -2.74 KCAL/MOL
REMARK 923 INTER-LIGAND FREE ENERGY PREDICTED BY IDOCK:   -2.49 KCAL/MOL
REMARK 924 INTRA-LIGAND FREE ENERGY PREDICTED BY IDOCK:   -0.25 KCAL/MOL
REMARK 927      BINDING AFFINITY PREDICTED BY RF-SCORE:    0.00 PKD
ROOT
HETATM    1  C   UNL     1     -10.110   4.626  73.859  1.00  0.00    -0.216 C  
HETATM    2  C   UNL     1     -10.888   4.786  72.549  1.00  0.00    -0.208 C  
HETATM    3  C   UNL     1     -12.172   5.572  72.807  1.00  0.00     0.098 C  
HETATM    4  C   UNL     1     -10.003   5.482  71.518  1.00  0.00    -0.177 C  
HETATM    5  O   UNL     1      -8.874   5.865  71.812  1.00  0.00    -0.138 OA 
HETATM    6  N   UNL     1     -10.569   5.596  70.253  1.00  0.00    -0.290 N  
HETATM    7  H   UNL     1     -11.455   5.116  70.093  1.00  0.00     0.000 HD 
ENDROOT
BRANCH   6   8
HETATM    8  C   UNL     1     -10.018   6.320  69.172  1.00  0.00    -0.150 A  
HETATM    9  C   UNL     1      -8.892   5.880  68.464  1.00  0.00    -0.111 A  
HETATM   10  C   UNL     1      -8.328   6.624  67.410  1.00  0.00    -0.121 A  
HETATM   11  C   UNL     1      -7.086   6.115  66.728  1.00  0.00    -0.073 C  
HETATM   12  C   UNL     1      -8.934   7.842  67.084  1.00  0.00    -0.126 A  
HETATM   13  F   UNL     1      -6.593   4.975  67.290  1.00  0.00    -0.046 F  
HETATM   14  F   UNL     1      -7.271   5.816  65.418  1.00  0.00    -0.063 F  
HETATM   15  N   UNL     1      -8.387   8.690  66.036  1.00  0.00    -0.125 N  
HETATM   16  F   UNL     1      -6.068   7.015  66.787  1.00  0.00    -0.031 F  
HETATM   17  C   UNL     1     -10.061   8.308  67.777  1.00  0.00    -0.262 A  
HETATM   18  C   UNL     1     -10.595   7.546  68.824  1.00  0.00    -0.179 A  
HETATM   19  O   UNL     1      -8.309   8.209  64.903  1.00  0.00    -0.160 OA 
HETATM   20  O   UNL     1      -8.070   9.842  66.359  1.00  0.00    -0.115 OA 
ENDBRANCH   6   8
TORSDOF 1
ENDMDL
MODEL      203
REMARK 921   NORMALIZED FREE ENERGY PREDICTED BY IDOCK:   -2.29 KCAL/MOL
REMARK 922        TOTAL FREE ENERGY PREDICTED BY IDOCK:   -2.73 KCAL/MOL
REMARK 923 INTER-LIGAND FREE ENERGY PREDICTED BY IDOCK:   -2.56 KCAL/MOL
REMARK 924 INTRA-LIGAND FREE ENERGY PREDICTED BY IDOCK:   -0.17 KCAL/MOL
REMARK 927      BINDING AFFINITY PREDICTED BY RF-SCORE:    0.00 PKD
ROOT
HETATM    1  C   UNL     1      -7.098   2.675  73.436  1.00  0.00    -0.036 C  
HETATM    2  C   UNL     1      -8.388   2.783  72.616  1.00  0.00    -0.070 C  
HETATM    3  C   UNL     1      -9.463   1.889  73.228  1.00  0.00    -0.095 C  
HETATM    4  C   UNL     1      -8.835   4.244  72.569  1.00  0.00    -0.108 C  
HETATM    5  O   UNL     1      -8.215   5.111  73.177  1.00  0.00    -0.107 OA 
HETATM    6  N   UNL     1      -9.945   4.482  71.768  1.00  0.00    -0.188 N  
HETATM    7  H   UNL     1     -10.289   3.705  71.202  1.00  0.00     0.000 HD 
ENDROOT
BRANCH   6   8
HETATM    8  C   UNL     1     -10.636   5.711  71.672  1.00  0.00    -0.241 A  
HETATM    9  C   UNL     1     -10.038   6.877  71.174  1.00  0.00    -0.204 A  
HETATM   10  C   UNL     1     -10.722   8.105  71.113  1.00  0.00    -0.258 A  
HETATM   11  C   UNL     1      -9.999   9.330  70.615  1.00  0.00    -0.273 C  
HETATM   12  C   UNL     1     -12.041   8.133  71.576  1.00  0.00    -0.298 A  
HETATM   13  F   UNL     1      -8.684   9.102  70.338  1.00  0.00    -0.144 F  
HETATM   14  F   UNL     1     -10.522   9.840  69.472  1.00  0.00    -0.188 F  
HETATM   15  N   UNL     1     -12.803   9.373  71.587  1.00  0.00    -0.352 N  
HETATM   16  F   UNL     1     -10.005  10.333  71.534  1.00  0.00     0.641 F  
HETATM   17  C   UNL     1     -12.665   6.982  72.081  1.00  0.00    -0.123 A  
HETATM   18  C   UNL     1     -11.956   5.776  72.132  1.00  0.00    -0.095 A  
HETATM   19  O   UNL     1     -12.970   9.942  70.505  1.00  0.00    -0.175 OA 
HETATM   20  O   UNL     1     -13.250   9.744  72.679  1.00  0.00    -0.241 OA 
ENDBRANCH   6   8
TORSDOF 1
ENDMDL
MODEL      204
REMARK 921   NORMALIZED FREE ENERGY PREDICTED BY IDOCK:   -2.20 KCAL/MOL
REMARK 922        TOTAL FREE ENERGY PREDICTED BY IDOCK:   -2.63 KCAL/MOL
REMARK 923 INTER-LIGAND FREE ENERGY PREDICTED BY IDOCK:   -2.84 KCAL/MOL
REMARK 924 INTRA-LIGAND FREE ENERGY PREDICTED BY IDOCK:    0.21 KCAL/MOL
REMARK 927      BINDING AFFINITY PREDICTED BY RF-SCORE:    0.00 PKD
ROOT
HETATM    1  C   UNL     1     -10.474  12.091  66.595  1.00  0.00    -0.247 C  
HETATM    2  C   UNL     1     -10.177  10.948  67.572  1.00  0.00    -0.224 C  
HETATM    3  C   UNL     1     -11.411  10.669  68.427  1.00  0.00    -0.348 C  
HETATM    4  C   UNL     1      -9.749   9.710  66.786  1.00  0.00    -0.197 C  
HETATM    5  O   UNL     1      -9.733   9.718  65.559  1.00  0.00    -0.276 OA 
HETATM    6  N   UNL     1      -9.357   8.634  67.573  1.00  0.00    -0.135 N  
HETATM    7  H   UNL     1      -9.280   8.792  68.578  1.00  0.00     0.000 HD 
ENDROOT
BRANCH   6   8
HETATM    8  C   UNL     1      -9.058   7.337  67.096  1.00  0.00    -0.130 A  
HETATM    9  C   UNL     1      -8.644   7.094  65.780  1.00  0.00    -0.143 A  
HETATM   10  C   UNL     1      -8.381   5.797  65.302  1.00  0.00    -0.146 A  
HETATM   11  C   UNL     1      -7.991   5.605  63.860  1.00  0.00    -0.120 C  
HETATM   12  C   UNL     1      -8.551   4.734  66.195  1.00  0.00    -0.115 A  
HETATM   13  F   UNL     1      -8.011   6.762  63.139  1.00  0.00    -0.108 F  
HETATM   14  F   UNL     1      -6.740   5.105  63.699  1.00  0.00    -0.036 F  
HETATM   15  N   UNL     1      -8.341   3.359  65.766  1.00  0.00    -0.101 N  
HETATM   16  F   UNL     1      -8.838   4.762  63.211  1.00  0.00    -0.130 F  
HETATM   17  C   UNL     1      -8.966   4.947  67.517  1.00  0.00    -0.114 A  
HETATM   18  C   UNL     1      -9.224   6.250  67.961  1.00  0.00    -0.116 A  
HETATM   19  O   UNL     1      -7.223   3.066  65.335  1.00  0.00    -0.063 OA 
HETATM   20  O   UNL     1      -9.295   2.581  65.898  1.00  0.00    -0.092 OA 
ENDBRANCH   6   8
TORSDOF 1
ENDMDL
MODEL      205
REMARK 921   NORMALIZED FREE ENERGY PREDICTED BY IDOCK:   -2.19 KCAL/MOL
REMARK 922        TOTAL FREE ENERGY PREDICTED BY IDOCK:   -2.63 KCAL/MOL
REMARK 923 INTER-LIGAND FREE ENERGY PREDICTED BY IDOCK:   -2.70 KCAL/MOL
REMARK 924 INTRA-LIGAND FREE ENERGY PREDICTED BY IDOCK:    0.08 KCAL/MOL
REMARK 927      BINDING AFFINITY PREDICTED BY RF-SCORE:    0.00 PKD
ROOT
HETATM    1  C   UNL     1     -11.352   7.820  72.908  1.00  0.00    -0.406 C  
HETATM    2  C   UNL     1     -11.927   7.714  71.491  1.00  0.00    -0.331 C  
HETATM    3  C   UNL     1     -12.583   9.037  71.102  1.00  0.00    -0.263 C  
HETATM    4  C   UNL     1     -10.810   7.335  70.520  1.00  0.00    -0.243 C  
HETATM    5  O   UNL     1      -9.652   7.214  70.909  1.00  0.00    -0.167 OA 
HETATM    6  N   UNL     1     -11.231   7.113  69.215  1.00  0.00    -0.472 N  
HETATM    7  H   UNL     1     -12.237   7.107  69.042  1.00  0.00     0.000 HD 
ENDROOT
BRANCH   6   8
HETATM    8  C   UNL     1     -10.381   6.894  68.107  1.00  0.00    -0.190 A  
HETATM    9  C   UNL     1     -10.657   5.937  67.121  1.00  0.00    -0.373 A  
HETATM   10  C   UNL     1      -9.790   5.700  66.038  1.00  0.00    -0.056 A  
HETATM   11  C   UNL     1     -10.124   4.619  65.045  1.00  0.00    -0.002 C  
HETATM   12  C   UNL     1      -8.617   6.460  65.974  1.00  0.00    -0.147 A  
HETATM   13  F   UNL     1     -11.247   3.918  65.371  1.00  0.00     0.130 F  
HETATM   14  F   UNL     1     -10.347   5.086  63.791  1.00  0.00     0.428 F  
HETATM   15  N   UNL     1      -7.647   6.246  64.910  1.00  0.00    -0.085 N  
HETATM   16  F   UNL     1      -9.135   3.690  64.950  1.00  0.00    -0.118 F  
HETATM   17  C   UNL     1      -8.314   7.423  66.947  1.00  0.00    -0.122 A  
HETATM   18  C   UNL     1      -9.196   7.632  68.014  1.00  0.00    -0.138 A  
HETATM   19  O   UNL     1      -8.037   6.402  63.751  1.00  0.00    -0.109 OA 
HETATM   20  O   UNL     1      -6.495   5.954  65.256  1.00  0.00    -0.040 OA 
ENDBRANCH   6   8
TORSDOF 1
ENDMDL
MODEL      206
REMARK 921   NORMALIZED FREE ENERGY PREDICTED BY IDOCK:   -2.15 KCAL/MOL
REMARK 922        TOTAL FREE ENERGY PREDICTED BY IDOCK:   -2.58 KCAL/MOL
REMARK 923 INTER-LIGAND FREE ENERGY PREDICTED BY IDOCK:   -2.31 KCAL/MOL
REMARK 924 INTRA-LIGAND FREE ENERGY PREDICTED BY IDOCK:   -0.27 KCAL/MOL
REMARK 927      BINDING AFFINITY PREDICTED BY RF-SCORE:    0.00 PKD
ROOT
HETATM    1  C   UNL     1     -10.165   4.332  74.365  1.00  0.00    -0.273 C  
HETATM    2  C   UNL     1     -10.776   4.375  72.961  1.00  0.00    -0.284 C  
HETATM    3  C   UNL     1     -11.426   5.737  72.725  1.00  0.00    -0.304 C  
HETATM    4  C   UNL     1      -9.689   4.087  71.928  1.00  0.00    -0.167 C  
HETATM    5  O   UNL     1      -8.523   3.916  72.272  1.00  0.00    -0.091 OA 
HETATM    6  N   UNL     1     -10.145   4.002  70.618  1.00  0.00    -0.063 N  
HETATM    7  H   UNL     1     -11.154   4.024  70.471  1.00  0.00     0.000 HD 
ENDROOT
BRANCH   6   8
HETATM    8  C   UNL     1      -9.326   3.889  69.471  1.00  0.00    -0.176 A  
HETATM    9  C   UNL     1      -8.477   4.920  69.046  1.00  0.00    -0.086 A  
HETATM   10  C   UNL     1      -7.689   4.814  67.884  1.00  0.00    -0.082 A  
HETATM   11  C   UNL     1      -6.840   5.982  67.457  1.00  0.00    -0.063 C  
HETATM   12  C   UNL     1      -7.781   3.628  67.149  1.00  0.00    -0.079 A  
HETATM   13  F   UNL     1      -7.001   7.081  68.249  1.00  0.00    -0.067 F  
HETATM   14  F   UNL     1      -5.509   5.720  67.476  1.00  0.00    -0.004 F  
HETATM   15  N   UNL     1      -7.032   3.457  65.912  1.00  0.00    -0.060 N  
HETATM   16  F   UNL     1      -7.142   6.399  66.198  1.00  0.00    -0.060 F  
HETATM   17  C   UNL     1      -8.623   2.580  67.550  1.00  0.00    -0.122 A  
HETATM   18  C   UNL     1      -9.397   2.719  68.709  1.00  0.00    -0.234 A  
HETATM   19  O   UNL     1      -5.804   3.542  65.980  1.00  0.00    -0.021 OA 
HETATM   20  O   UNL     1      -7.688   3.207  64.893  1.00  0.00    -0.076 OA 
ENDBRANCH   6   8
TORSDOF 1
ENDMDL
MODEL      207
REMARK 921   NORMALIZED FREE ENERGY PREDICTED BY IDOCK:   -1.93 KCAL/MOL
REMARK 922        TOTAL FREE ENERGY PREDICTED BY IDOCK:   -2.35 KCAL/MOL
REMARK 923 INTER-LIGAND FREE ENERGY PREDICTED BY IDOCK:   -2.28 KCAL/MOL
REMARK 924 INTRA-LIGAND FREE ENERGY PREDICTED BY IDOCK:   -0.07 KCAL/MOL
REMARK 927      BINDING AFFINITY PREDICTED BY RF-SCORE:    0.00 PKD
ROOT
HETATM    1  C   UNL     1      -6.649  12.567  67.297  1.00  0.00    -0.125 C  
HETATM    2  C   UNL     1      -7.548  11.461  67.861  1.00  0.00    -0.108 C  
HETATM    3  C   UNL     1      -9.008  11.773  67.544  1.00  0.00    -0.168 C  
HETATM    4  C   UNL     1      -7.122  10.117  67.274  1.00  0.00    -0.088 C  
HETATM    5  O   UNL     1      -6.222  10.049  66.442  1.00  0.00    -0.063 OA 
HETATM    6  N   UNL     1      -7.804   9.020  67.789  1.00  0.00    -0.100 N  
HETATM    7  H   UNL     1      -8.431   9.187  68.576  1.00  0.00     0.000 HD 
ENDROOT
BRANCH   6   8
HETATM    8  C   UNL     1      -7.699   7.694  67.313  1.00  0.00    -0.113 A  
HETATM    9  C   UNL     1      -8.810   6.960  66.873  1.00  0.00    -0.122 A  
HETATM   10  C   UNL     1      -8.704   5.628  66.432  1.00  0.00    -0.126 A  
HETATM   11  C   UNL     1      -9.947   4.883  66.023  1.00  0.00    -0.223 C  
HETATM   12  C   UNL     1      -7.433   5.042  66.448  1.00  0.00    -0.087 A  
HETATM   13  F   UNL     1     -11.090   5.604  66.207  1.00  0.00    -0.306 F  
HETATM   14  F   UNL     1      -9.958   4.524  64.715  1.00  0.00    -0.173 F  
HETATM   15  N   UNL     1      -7.246   3.656  66.048  1.00  0.00    -0.067 N  
HETATM   16  F   UNL     1     -10.119   3.744  66.745  1.00  0.00    -0.207 F  
HETATM   17  C   UNL     1      -6.305   5.752  66.884  1.00  0.00    -0.038 A  
HETATM   18  C   UNL     1      -6.445   7.075  67.321  1.00  0.00    -0.053 A  
HETATM   19  O   UNL     1      -7.581   3.348  64.901  1.00  0.00    -0.075 OA 
HETATM   20  O   UNL     1      -6.735   2.898  66.883  1.00  0.00    -0.039 OA 
ENDBRANCH   6   8
TORSDOF 1
ENDMDL
MODEL      208
REMARK 921   NORMALIZED FREE ENERGY PREDICTED BY IDOCK:   -1.66 KCAL/MOL
REMARK 922        TOTAL FREE ENERGY PREDICTED BY IDOCK:   -2.06 KCAL/MOL
REMARK 923 INTER-LIGAND FREE ENERGY PREDICTED BY IDOCK:   -2.20 KCAL/MOL
REMARK 924 INTRA-LIGAND FREE ENERGY PREDICTED BY IDOCK:    0.14 KCAL/MOL
REMARK 927      BINDING AFFINITY PREDICTED BY RF-SCORE:    0.00 PKD
ROOT
HETATM    1  C   UNL     1      -9.078   5.429  72.944  1.00  0.00    -0.126 C  
HETATM    2  C   UNL     1     -10.000   5.235  71.736  1.00  0.00    -0.245 C  
HETATM    3  C   UNL     1     -10.958   6.418  71.624  1.00  0.00    -0.302 C  
HETATM    4  C   UNL     1      -9.152   5.080  70.474  1.00  0.00    -0.138 C  
HETATM    5  O   UNL     1      -7.929   5.169  70.522  1.00  0.00    -0.086 OA 
HETATM    6  N   UNL     1      -9.878   4.798  69.322  1.00  0.00    -0.197 N  
HETATM    7  H   UNL     1     -10.875   4.609  69.432  1.00  0.00     0.000 HD 
ENDROOT
BRANCH   6   8
HETATM    8  C   UNL     1      -9.349   4.752  68.013  1.00  0.00    -0.133 A  
HETATM    9  C   UNL     1      -8.043   4.320  67.740  1.00  0.00    -0.094 A  
HETATM   10  C   UNL     1      -7.511   4.310  66.438  1.00  0.00    -0.085 A  
HETATM   11  C   UNL     1      -6.082   3.883  66.226  1.00  0.00    -0.031 C  
HETATM   12  C   UNL     1      -8.337   4.754  65.400  1.00  0.00    -0.122 A  
HETATM   13  F   UNL     1      -5.424   3.614  67.389  1.00  0.00    -0.016 F  
HETATM   14  F   UNL     1      -5.958   2.759  65.477  1.00  0.00    -0.017 F  
HETATM   15  N   UNL     1      -7.848   4.814  64.031  1.00  0.00    -0.082 N  
HETATM   16  F   UNL     1      -5.348   4.849  65.612  1.00  0.00    -0.011 F  
HETATM   17  C   UNL     1      -9.647   5.193  65.643  1.00  0.00    -0.104 A  
HETATM   18  C   UNL     1     -10.145   5.195  66.952  1.00  0.00    -0.258 A  
HETATM   19  O   UNL     1      -7.458   3.760  63.523  1.00  0.00    -0.056 OA 
HETATM   20  O   UNL     1      -7.890   5.917  63.471  1.00  0.00    -0.093 OA 
ENDBRANCH   6   8
TORSDOF 1
ENDMDL
MODEL      209
REMARK 921   NORMALIZED FREE ENERGY PREDICTED BY IDOCK:   -1.61 KCAL/MOL
REMARK 922        TOTAL FREE ENERGY PREDICTED BY IDOCK:   -2.01 KCAL/MOL
REMARK 923 INTER-LIGAND FREE ENERGY PREDICTED BY IDOCK:   -1.90 KCAL/MOL
REMARK 924 INTRA-LIGAND FREE ENERGY PREDICTED BY IDOCK:   -0.11 KCAL/MOL
REMARK 927      BINDING AFFINITY PREDICTED BY RF-SCORE:    0.00 PKD
ROOT
HETATM    1  C   UNL     1      -6.607   6.441  72.723  1.00  0.00    -0.064 C  
HETATM    2  C   UNL     1      -6.716   5.098  71.993  1.00  0.00    -0.052 C  
HETATM    3  C   UNL     1      -7.669   4.177  72.750  1.00  0.00    -0.080 C  
HETATM    4  C   UNL     1      -7.191   5.340  70.561  1.00  0.00    -0.065 C  
HETATM    5  O   UNL     1      -7.469   6.471  70.172  1.00  0.00    -0.089 OA 
HETATM    6  N   UNL     1      -7.234   4.200  69.767  1.00  0.00    -0.048 N  
HETATM    7  H   UNL     1      -6.846   3.342  70.159  1.00  0.00     0.000 HD 
ENDROOT
BRANCH   6   8
HETATM    8  C   UNL     1      -7.770   4.132  68.461  1.00  0.00    -0.066 A  
HETATM    9  C   UNL     1      -7.326   4.957  67.418  1.00  0.00    -0.078 A  
HETATM   10  C   UNL     1      -7.888   4.908  66.129  1.00  0.00    -0.099 A  
HETATM   11  C   UNL     1      -7.396   5.860  65.071  1.00  0.00    -0.072 C  
HETATM   12  C   UNL     1      -8.927   3.997  65.913  1.00  0.00    -0.128 A  
HETATM   13  F   UNL     1      -6.470   6.746  65.535  1.00  0.00    -0.043 F  
HETATM   14  F   UNL     1      -6.804   5.242  64.019  1.00  0.00    -0.042 F  
HETATM   15  N   UNL     1      -9.591   3.914  64.620  1.00  0.00    -0.164 N  
HETATM   16  F   UNL     1      -8.402   6.622  64.565  1.00  0.00    -0.126 F  
HETATM   17  C   UNL     1      -9.394   3.161  66.938  1.00  0.00    -0.163 A  
HETATM   18  C   UNL     1      -8.816   3.237  68.211  1.00  0.00    -0.159 A  
HETATM   19  O   UNL     1      -8.891   3.637  63.643  1.00  0.00    -0.094 OA 
HETATM   20  O   UNL     1     -10.814   4.099  64.608  1.00  0.00    -0.265 OA 
ENDBRANCH   6   8
TORSDOF 1
ENDMDL
MODEL      210
REMARK 921   NORMALIZED FREE ENERGY PREDICTED BY IDOCK:   -1.51 KCAL/MOL
REMARK 922        TOTAL FREE ENERGY PREDICTED BY IDOCK:   -1.90 KCAL/MOL
REMARK 923 INTER-LIGAND FREE ENERGY PREDICTED BY IDOCK:   -1.63 KCAL/MOL
REMARK 924 INTRA-LIGAND FREE ENERGY PREDICTED BY IDOCK:   -0.28 KCAL/MOL
REMARK 927      BINDING AFFINITY PREDICTED BY RF-SCORE:    0.00 PKD
ROOT
HETATM    1  C   UNL     1      -5.950   9.405  71.245  1.00  0.00    -0.076 C  
HETATM    2  C   UNL     1      -5.893   7.925  70.852  1.00  0.00    -0.034 C  
HETATM    3  C   UNL     1      -6.820   7.116  71.756  1.00  0.00    -0.059 C  
HETATM    4  C   UNL     1      -6.278   7.779  69.381  1.00  0.00    -0.034 C  
HETATM    5  O   UNL     1      -6.619   8.755  68.719  1.00  0.00    -0.052 OA 
HETATM    6  N   UNL     1      -6.167   6.487  68.881  1.00  0.00    -0.029 N  
HETATM    7  H   UNL     1      -5.741   5.785  69.487  1.00  0.00     0.000 HD 
ENDROOT
BRANCH   6   8
HETATM    8  C   UNL     1      -6.598   6.064  67.603  1.00  0.00    -0.056 A  
HETATM    9  C   UNL     1      -7.803   5.379  67.400  1.00  0.00    -0.101 A  
HETATM   10  C   UNL     1      -8.209   4.930  66.129  1.00  0.00    -0.108 A  
HETATM   11  C   UNL     1      -9.492   4.154  65.994  1.00  0.00    -0.180 C  
HETATM   12  C   UNL     1      -7.357   5.190  65.051  1.00  0.00    -0.068 A  
HETATM   13  F   UNL     1     -10.098   3.905  67.190  1.00  0.00    -0.221 F  
HETATM   14  F   UNL     1     -10.430   4.783  65.242  1.00  0.00    -0.192 F  
HETATM   15  N   UNL     1      -7.683   4.722  63.712  1.00  0.00    -0.071 N  
HETATM   16  F   UNL     1      -9.291   2.932  65.432  1.00  0.00    -0.147 F  
HETATM   17  C   UNL     1      -6.143   5.872  65.224  1.00  0.00    -0.026 A  
HETATM   18  C   UNL     1      -5.766   6.302  66.503  1.00  0.00    -0.017 A  
HETATM   19  O   UNL     1      -8.741   5.121  63.217  1.00  0.00    -0.120 OA 
HETATM   20  O   UNL     1      -6.857   3.984  63.162  1.00  0.00    -0.037 OA 
ENDBRANCH   6   8
TORSDOF 1
ENDMDL
MODEL      211
REMARK 921   NORMALIZED FREE ENERGY PREDICTED BY IDOCK:   -1.50 KCAL/MOL
REMARK 922        TOTAL FREE ENERGY PREDICTED BY IDOCK:   -1.89 KCAL/MOL
REMARK 923 INTER-LIGAND FREE ENERGY PREDICTED BY IDOCK:   -1.58 KCAL/MOL
REMARK 924 INTRA-LIGAND FREE ENERGY PREDICTED BY IDOCK:   -0.31 KCAL/MOL
REMARK 927      BINDING AFFINITY PREDICTED BY RF-SCORE:    0.00 PKD
ROOT
HETATM    1  C   UNL     1      -9.455   3.358  68.172  1.00  0.00    -0.211 C  
HETATM    2  C   UNL     1      -9.526   4.496  67.148  1.00  0.00    -0.182 C  
HETATM    3  C   UNL     1     -10.955   5.027  67.069  1.00  0.00     0.456 C  
HETATM    4  C   UNL     1      -8.542   5.594  67.545  1.00  0.00    -0.108 C  
HETATM    5  O   UNL     1      -7.882   5.506  68.576  1.00  0.00    -0.087 OA 
HETATM    6  N   UNL     1      -8.445   6.640  66.634  1.00  0.00    -0.116 N  
HETATM    7  H   UNL     1      -8.938   6.534  65.747  1.00  0.00     0.000 HD 
ENDROOT
BRANCH   6   8
HETATM    8  C   UNL     1      -7.721   7.837  66.836  1.00  0.00    -0.103 A  
HETATM    9  C   UNL     1      -8.232   8.913  67.573  1.00  0.00    -0.109 A  
HETATM   10  C   UNL     1      -7.519  10.115  67.741  1.00  0.00    -0.089 A  
HETATM   11  C   UNL     1      -8.152  11.250  68.502  1.00  0.00    -0.148 C  
HETATM   12  C   UNL     1      -6.262  10.209  67.136  1.00  0.00    -0.062 A  
HETATM   13  F   UNL     1      -9.431  10.987  68.894  1.00  0.00    -0.181 F  
HETATM   14  F   UNL     1      -7.490  11.575  69.640  1.00  0.00    -0.045 F  
HETATM   15  N   UNL     1      -5.480  11.434  67.226  1.00  0.00    -0.055 N  
HETATM   16  F   UNL     1      -8.231  12.383  67.755  1.00  0.00    -0.126 F  
HETATM   17  C   UNL     1      -5.726   9.149  66.390  1.00  0.00    -0.053 A  
HETATM   18  C   UNL     1      -6.463   7.967  66.239  1.00  0.00    -0.047 A  
HETATM   19  O   UNL     1      -5.177  11.828  68.354  1.00  0.00    -0.043 OA 
HETATM   20  O   UNL     1      -5.155  11.968  66.158  1.00  0.00    -0.267 OA 
ENDBRANCH   6   8
TORSDOF 1
ENDMDL
MODEL      212
REMARK 921   NORMALIZED FREE ENERGY PREDICTED BY IDOCK:   -1.37 KCAL/MOL
REMARK 922        TOTAL FREE ENERGY PREDICTED BY IDOCK:   -1.75 KCAL/MOL
REMARK 923 INTER-LIGAND FREE ENERGY PREDICTED BY IDOCK:   -1.98 KCAL/MOL
REMARK 924 INTRA-LIGAND FREE ENERGY PREDICTED BY IDOCK:    0.23 KCAL/MOL
REMARK 927      BINDING AFFINITY PREDICTED BY RF-SCORE:    0.00 PKD
ROOT
HETATM    1  C   UNL     1      -5.826   5.902  74.319  1.00  0.00    -0.058 C  
HETATM    2  C   UNL     1      -6.340   4.743  73.458  1.00  0.00    -0.051 C  
HETATM    3  C   UNL     1      -7.513   4.062  74.159  1.00  0.00    -0.067 C  
HETATM    4  C   UNL     1      -6.742   5.275  72.084  1.00  0.00    -0.061 C  
HETATM    5  O   UNL     1      -6.677   6.474  71.829  1.00  0.00    -0.060 OA 
HETATM    6  N   UNL     1      -7.133   4.296  71.177  1.00  0.00    -0.036 N  
HETATM    7  H   UNL     1      -7.012   3.323  71.459  1.00  0.00     0.000 HD 
ENDROOT
BRANCH   6   8
HETATM    8  C   UNL     1      -7.684   4.538  69.899  1.00  0.00    -0.057 A  
HETATM    9  C   UNL     1      -8.156   5.798  69.506  1.00  0.00    -0.108 A  
HETATM   10  C   UNL     1      -8.735   6.024  68.243  1.00  0.00    -0.113 A  
HETATM   11  C   UNL     1      -9.270   7.391  67.909  1.00  0.00    -0.131 C  
HETATM   12  C   UNL     1      -8.831   4.932  67.373  1.00  0.00    -0.103 A  
HETATM   13  F   UNL     1      -9.188   8.269  68.949  1.00  0.00    -0.145 F  
HETATM   14  F   UNL     1      -8.617   7.991  66.882  1.00  0.00    -0.119 F  
HETATM   15  N   UNL     1      -9.456   5.073  66.066  1.00  0.00    -0.155 N  
HETATM   16  F   UNL     1     -10.586   7.355  67.571  1.00  0.00    -0.261 F  
HETATM   17  C   UNL     1      -8.369   3.660  67.740  1.00  0.00    -0.100 A  
HETATM   18  C   UNL     1      -7.801   3.467  69.006  1.00  0.00    -0.053 A  
HETATM   19  O   UNL     1      -8.959   5.891  65.288  1.00  0.00    -0.089 OA 
HETATM   20  O   UNL     1     -10.420   4.335  65.827  1.00  0.00    -0.212 OA 
ENDBRANCH   6   8
TORSDOF 1
ENDMDL
MODEL      213
REMARK 921   NORMALIZED FREE ENERGY PREDICTED BY IDOCK:   -1.16 KCAL/MOL
REMARK 922        TOTAL FREE ENERGY PREDICTED BY IDOCK:   -1.53 KCAL/MOL
REMARK 923 INTER-LIGAND FREE ENERGY PREDICTED BY IDOCK:   -1.95 KCAL/MOL
REMARK 924 INTRA-LIGAND FREE ENERGY PREDICTED BY IDOCK:    0.42 KCAL/MOL
REMARK 927      BINDING AFFINITY PREDICTED BY RF-SCORE:    0.00 PKD
ROOT
HETATM    1  C   UNL     1      -9.126   5.393  72.881  1.00  0.00    -0.126 C  
HETATM    2  C   UNL     1      -9.808   5.332  71.510  1.00  0.00    -0.228 C  
HETATM    3  C   UNL     1     -10.507   6.658  71.223  1.00  0.00    -0.244 C  
HETATM    4  C   UNL     1      -8.765   5.007  70.442  1.00  0.00    -0.108 C  
HETATM    5  O   UNL     1      -7.579   4.888  70.735  1.00  0.00    -0.063 OA 
HETATM    6  N   UNL     1      -9.283   4.827  69.165  1.00  0.00    -0.114 N  
HETATM    7  H   UNL     1     -10.299   4.813  69.070  1.00  0.00     0.000 HD 
ENDROOT
BRANCH   6   8
HETATM    8  C   UNL     1      -8.519   4.662  67.987  1.00  0.00    -0.102 A  
HETATM    9  C   UNL     1      -9.097   4.627  66.711  1.00  0.00    -0.121 A  
HETATM   10  C   UNL     1      -8.334   4.428  65.545  1.00  0.00    -0.114 A  
HETATM   11  C   UNL     1      -9.029   4.348  64.211  1.00  0.00    -0.151 C  
HETATM   12  C   UNL     1      -6.954   4.261  65.698  1.00  0.00    -0.062 A  
HETATM   13  F   UNL     1     -10.387   4.409  64.309  1.00  0.00    -0.155 F  
HETATM   14  F   UNL     1      -8.686   5.348  63.361  1.00  0.00    -0.128 F  
HETATM   15  N   UNL     1      -6.100   4.008  64.547  1.00  0.00    -0.022 N  
HETATM   16  F   UNL     1      -8.766   3.178  63.570  1.00  0.00    -0.089 F  
HETATM   17  C   UNL     1      -6.348   4.290  66.963  1.00  0.00    -0.040 A  
HETATM   18  C   UNL     1      -7.136   4.486  68.104  1.00  0.00    -0.057 A  
HETATM   19  O   UNL     1      -6.089   4.860  63.655  1.00  0.00    -0.021 OA 
HETATM   20  O   UNL     1      -5.427   2.970  64.568  1.00  0.00    -0.009 OA 
ENDBRANCH   6   8
TORSDOF 1
ENDMDL
MODEL      214
REMARK 921   NORMALIZED FREE ENERGY PREDICTED BY IDOCK:    0.26 KCAL/MOL
REMARK 922        TOTAL FREE ENERGY PREDICTED BY IDOCK:   -0.03 KCAL/MOL
REMARK 923 INTER-LIGAND FREE ENERGY PREDICTED BY IDOCK:   -0.31 KCAL/MOL
REMARK 924 INTRA-LIGAND FREE ENERGY PREDICTED BY IDOCK:    0.28 KCAL/MOL
REMARK 927      BINDING AFFINITY PREDICTED BY RF-SCORE:    0.00 PKD
ROOT
HETATM    1  C   UNL     1     -12.714  15.458  72.107  1.00  0.00    -0.457 C  
HETATM    2  C   UNL     1     -11.626  15.048  71.109  1.00  0.00    -0.377 C  
HETATM    3  C   UNL     1     -12.262  14.341  69.915  1.00  0.00    -0.407 C  
HETATM    4  C   UNL     1     -10.845  16.287  70.675  1.00  0.00    -0.030 C  
HETATM    5  O   UNL     1     -11.159  17.402  71.080  1.00  0.00     0.730 OA 
HETATM    6  N   UNL     1      -9.763  16.026  69.842  1.00  0.00    -0.065 N  
HETATM    7  H   UNL     1      -9.517  15.048  69.688  1.00  0.00     0.000 HD 
ENDROOT
BRANCH   6   8
HETATM    8  C   UNL     1      -8.977  17.003  69.192  1.00  0.00    -0.050 A  
HETATM    9  C   UNL     1      -8.317  16.757  67.980  1.00  0.00    -0.200 A  
HETATM   10  C   UNL     1      -7.507  17.724  67.355  1.00  0.00    -0.210 A  
HETATM   11  C   UNL     1      -6.786  17.372  66.081  1.00  0.00    -0.227 C  
HETATM   12  C   UNL     1      -7.374  18.962  67.991  1.00  0.00    -0.250 A  
HETATM   13  F   UNL     1      -6.957  16.072  65.708  1.00  0.00     0.934 F  
HETATM   14  F   UNL     1      -7.185  18.106  65.012  1.00  0.00     0.062 F  
HETATM   15  N   UNL     1      -6.520  20.000  67.432  1.00  0.00    -0.201 N  
HETATM   16  F   UNL     1      -5.441  17.540  66.194  1.00  0.00    -0.186 F  
HETATM   17  C   UNL     1      -8.020  19.236  69.206  1.00  0.00    -0.123 A  
HETATM   18  C   UNL     1      -8.816  18.251  69.804  1.00  0.00     1.191 A  
HETATM   19  O   UNL     1      -6.788  20.400  66.296  1.00  0.00    -0.230 OA 
HETATM   20  O   UNL     1      -5.609  20.423  68.155  1.00  0.00    -0.210 OA 
ENDBRANCH   6   8
TORSDOF 1
ENDMDL
MODEL      215
REMARK 921   NORMALIZED FREE ENERGY PREDICTED BY IDOCK:    1.18 KCAL/MOL
REMARK 922        TOTAL FREE ENERGY PREDICTED BY IDOCK:    0.95 KCAL/MOL
REMARK 923 INTER-LIGAND FREE ENERGY PREDICTED BY IDOCK:    1.25 KCAL/MOL
REMARK 924 INTRA-LIGAND FREE ENERGY PREDICTED BY IDOCK:   -0.31 KCAL/MOL
REMARK 927      BINDING AFFINITY PREDICTED BY RF-SCORE:    0.00 PKD
ROOT
HETATM    1  C   UNL     1      -5.612  17.772  71.034  1.00  0.00     0.123 C  
HETATM    2  C   UNL     1      -6.818  16.953  70.562  1.00  0.00     1.662 C  
HETATM    3  C   UNL     1      -7.629  17.765  69.556  1.00  0.00     0.371 C  
HETATM    4  C   UNL     1      -6.330  15.638  69.958  1.00  0.00    -0.116 C  
HETATM    5  O   UNL     1      -5.131  15.397  69.861  1.00  0.00    -0.096 OA 
HETATM    6  N   UNL     1      -7.343  14.764  69.583  1.00  0.00    -0.316 N  
HETATM    7  H   UNL     1      -8.298  15.016  69.841  1.00  0.00     0.000 HD 
ENDROOT
BRANCH   6   8
HETATM    8  C   UNL     1      -7.161  13.555  68.873  1.00  0.00    -0.093 A  
HETATM    9  C   UNL     1      -7.081  12.310  69.512  1.00  0.00     0.219 A  
HETATM   10  C   UNL     1      -6.864  11.114  68.802  1.00  0.00    -0.079 A  
HETATM   11  C   UNL     1      -6.736   9.818  69.559  1.00  0.00    -0.054 C  
HETATM   12  C   UNL     1      -6.725  11.204  67.413  1.00  0.00    -0.084 A  
HETATM   13  F   UNL     1      -6.776   9.980  70.912  1.00  0.00    -0.109 F  
HETATM   14  F   UNL     1      -7.719   8.927  69.276  1.00  0.00    -0.085 F  
HETATM   15  N   UNL     1      -6.456  10.020  66.612  1.00  0.00    -0.070 N  
HETATM   16  F   UNL     1      -5.554   9.195  69.305  1.00  0.00    -0.035 F  
HETATM   17  C   UNL     1      -6.799  12.437  66.748  1.00  0.00     0.297 A  
HETATM   18  C   UNL     1      -7.011  13.610  67.484  1.00  0.00    -0.157 A  
HETATM   19  O   UNL     1      -7.284   9.106  66.660  1.00  0.00    -0.084 OA 
HETATM   20  O   UNL     1      -5.431  10.035  65.919  1.00  0.00    -0.043 OA 
ENDBRANCH   6   8
TORSDOF 1
ENDMDL
MODEL      216
REMARK 921   NORMALIZED FREE ENERGY PREDICTED BY IDOCK:    2.07 KCAL/MOL
REMARK 922        TOTAL FREE ENERGY PREDICTED BY IDOCK:    1.89 KCAL/MOL
REMARK 923 INTER-LIGAND FREE ENERGY PREDICTED BY IDOCK:    2.17 KCAL/MOL
REMARK 924 INTRA-LIGAND FREE ENERGY PREDICTED BY IDOCK:   -0.28 KCAL/MOL
REMARK 927      BINDING AFFINITY PREDICTED BY RF-SCORE:    0.00 PKD
ROOT
HETATM    1  C   UNL     1     -13.219  12.103  72.624  1.00  0.00     0.680 C  
HETATM    2  C   UNL     1     -12.393  11.174  71.729  1.00  0.00     0.010 C  
HETATM    3  C   UNL     1     -13.145   9.863  71.515  1.00  0.00    -0.516 C  
HETATM    4  C   UNL     1     -12.104  11.876  70.403  1.00  0.00    -0.333 C  
HETATM    5  O   UNL     1     -12.559  12.992  70.169  1.00  0.00    -0.131 OA 
HETATM    6  N   UNL     1     -11.275  11.167  69.543  1.00  0.00    -0.262 N  
HETATM    7  H   UNL     1     -10.846  10.314  69.904  1.00  0.00     0.000 HD 
ENDROOT
BRANCH   6   8
HETATM    8  C   UNL     1     -10.976  11.529  68.210  1.00  0.00    -0.224 A  
HETATM    9  C   UNL     1      -9.755  12.108  67.840  1.00  0.00    -0.200 A  
HETATM   10  C   UNL     1      -9.477  12.498  66.517  1.00  0.00    -0.240 A  
HETATM   11  C   UNL     1      -8.163  13.164  66.202  1.00  0.00     1.213 C  
HETATM   12  C   UNL     1     -10.476  12.290  65.560  1.00  0.00    -0.264 A  
HETATM   13  F   UNL     1      -7.394  13.383  67.306  1.00  0.00    -0.159 F  
HETATM   14  F   UNL     1      -7.381  12.445  65.358  1.00  0.00     1.881 F  
HETATM   15  N   UNL     1     -10.284  12.704  64.178  1.00  0.00    -0.369 N  
HETATM   16  F   UNL     1      -8.335  14.387  65.634  1.00  0.00     0.917 F  
HETATM   17  C   UNL     1     -11.709  11.714  65.901  1.00  0.00     0.035 A  
HETATM   18  C   UNL     1     -11.955  11.340  67.228  1.00  0.00     0.394 A  
HETATM   19  O   UNL     1      -9.332  12.211  63.568  1.00  0.00    -0.078 OA 
HETATM   20  O   UNL     1     -11.112  13.498  63.714  1.00  0.00    -0.180 OA 
ENDBRANCH   6   8
TORSDOF 1
ENDMDL
MODEL      217
REMARK 921   NORMALIZED FREE ENERGY PREDICTED BY IDOCK:    2.93 KCAL/MOL
REMARK 922        TOTAL FREE ENERGY PREDICTED BY IDOCK:    2.80 KCAL/MOL
REMARK 923 INTER-LIGAND FREE ENERGY PREDICTED BY IDOCK:    3.08 KCAL/MOL
REMARK 924 INTRA-LIGAND FREE ENERGY PREDICTED BY IDOCK:   -0.28 KCAL/MOL
REMARK 927      BINDING AFFINITY PREDICTED BY RF-SCORE:    0.00 PKD
ROOT
HETATM    1  C   UNL     1      -7.563   7.079  71.947  1.00  0.00    -0.092 C  
HETATM    2  C   UNL     1      -8.817   6.941  71.077  1.00  0.00    -0.140 C  
HETATM    3  C   UNL     1      -9.826   8.022  71.456  1.00  0.00    -0.217 C  
HETATM    4  C   UNL     1      -8.423   7.034  69.604  1.00  0.00    -0.134 C  
HETATM    5  O   UNL     1      -7.259   7.245  69.276  1.00  0.00    -0.077 OA 
HETATM    6  N   UNL     1      -9.468   6.824  68.713  1.00  0.00    -0.131 N  
HETATM    7  H   UNL     1     -10.361   6.519  69.102  1.00  0.00     0.000 HD 
ENDROOT
BRANCH   6   8
HETATM    8  C   UNL     1      -9.396   6.997  67.312  1.00  0.00    -0.133 A  
HETATM    9  C   UNL     1      -8.789   6.060  66.465  1.00  0.00    -0.131 A  
HETATM   10  C   UNL     1      -8.691   6.255  65.075  1.00  0.00     0.090 A  
HETATM   11  C   UNL     1      -7.977   5.231  64.233  1.00  0.00    -0.111 C  
HETATM   12  C   UNL     1      -9.224   7.437  64.551  1.00  0.00     1.495 A  
HETATM   13  F   UNL     1      -7.424   4.224  64.966  1.00  0.00    -0.068 F  
HETATM   14  F   UNL     1      -8.783   4.615  63.331  1.00  0.00    -0.113 F  
HETATM   15  N   UNL     1      -9.125   7.734  63.129  1.00  0.00     1.136 N  
HETATM   16  F   UNL     1      -6.946   5.775  63.533  1.00  0.00    -0.037 F  
HETATM   17  C   UNL     1      -9.836   8.394  65.374  1.00  0.00     0.807 A  
HETATM   18  C   UNL     1      -9.914   8.171  66.755  1.00  0.00    -0.349 A  
HETATM   19  O   UNL     1      -9.640   6.931  62.347  1.00  0.00     1.481 OA 
HETATM   20  O   UNL     1      -8.557   8.789  62.818  1.00  0.00    -0.199 OA 
ENDBRANCH   6   8
TORSDOF 1
ENDMDL
MODEL      218
REMARK 921   NORMALIZED FREE ENERGY PREDICTED BY IDOCK:    6.17 KCAL/MOL
REMARK 922        TOTAL FREE ENERGY PREDICTED BY IDOCK:    6.22 KCAL/MOL
REMARK 923 INTER-LIGAND FREE ENERGY PREDICTED BY IDOCK:    6.50 KCAL/MOL
REMARK 924 INTRA-LIGAND FREE ENERGY PREDICTED BY IDOCK:   -0.28 KCAL/MOL
REMARK 927      BINDING AFFINITY PREDICTED BY RF-SCORE:    0.00 PKD
ROOT
HETATM    1  C   UNL     1      -7.563   7.079  71.947  1.00  0.00    -0.092 C  
HETATM    2  C   UNL     1      -8.819   6.926  71.083  1.00  0.00    -0.142 C  
HETATM    3  C   UNL     1      -9.834   8.004  71.457  1.00  0.00    -0.217 C  
HETATM    4  C   UNL     1      -8.431   7.010  69.608  1.00  0.00    -0.134 C  
HETATM    5  O   UNL     1      -7.270   7.225  69.274  1.00  0.00    -0.077 OA 
HETATM    6  N   UNL     1      -9.478   6.785  68.722  1.00  0.00    -0.131 N  
HETATM    7  H   UNL     1     -10.368   6.478  69.117  1.00  0.00     0.000 HD 
ENDROOT
BRANCH   6   8
HETATM    8  C   UNL     1      -9.413   6.948  67.320  1.00  0.00    -0.137 A  
HETATM    9  C   UNL     1      -9.295   8.204  66.710  1.00  0.00    -0.233 A  
HETATM   10  C   UNL     1      -9.265   8.361  65.312  1.00  0.00     0.115 A  
HETATM   11  C   UNL     1      -9.190   9.746  64.725  1.00  0.00    -0.261 C  
HETATM   12  C   UNL     1      -9.361   7.205  64.531  1.00  0.00     1.860 A  
HETATM   13  F   UNL     1      -9.235  10.732  65.666  1.00  0.00    -0.183 F  
HETATM   14  F   UNL     1      -8.053   9.976  64.021  1.00  0.00    -0.130 F  
HETATM   15  N   UNL     1      -9.381   7.286  63.077  1.00  0.00     1.971 N  
HETATM   16  F   UNL     1     -10.231  10.001  63.887  1.00  0.00    -0.243 F  
HETATM   17  C   UNL     1      -9.482   5.935  65.113  1.00  0.00     0.497 A  
HETATM   18  C   UNL     1      -9.513   5.813  66.508  1.00  0.00    -0.168 A  
HETATM   19  O   UNL     1      -8.406   7.805  62.528  1.00  0.00    -0.140 OA 
HETATM   20  O   UNL     1     -10.364   6.798  62.505  1.00  0.00     4.349 OA 
ENDBRANCH   6   8
TORSDOF 1
ENDMDL
MODEL      219
REMARK 921   NORMALIZED FREE ENERGY PREDICTED BY IDOCK:    7.88 KCAL/MOL
REMARK 922        TOTAL FREE ENERGY PREDICTED BY IDOCK:    8.04 KCAL/MOL
REMARK 923 INTER-LIGAND FREE ENERGY PREDICTED BY IDOCK:    8.29 KCAL/MOL
REMARK 924 INTRA-LIGAND FREE ENERGY PREDICTED BY IDOCK:   -0.26 KCAL/MOL
REMARK 927      BINDING AFFINITY PREDICTED BY RF-SCORE:    0.00 PKD
ROOT
HETATM    1  C   UNL     1     -12.883  13.558  73.103  1.00  0.00     0.649 C  
HETATM    2  C   UNL     1     -12.494  13.031  71.718  1.00  0.00    -0.013 C  
HETATM    3  C   UNL     1     -13.613  13.327  70.722  1.00  0.00     0.615 C  
HETATM    4  C   UNL     1     -11.176  13.671  71.286  1.00  0.00     2.019 C  
HETATM    5  O   UNL     1     -10.623  14.510  71.990  1.00  0.00     1.570 OA 
HETATM    6  N   UNL     1     -10.670  13.194  70.082  1.00  0.00     0.408 N  
HETATM    7  H   UNL     1     -11.145  12.397  69.657  1.00  0.00     0.000 HD 
ENDROOT
BRANCH   6   8
HETATM    8  C   UNL     1      -9.551  13.721  69.399  1.00  0.00     0.666 A  
HETATM    9  C   UNL     1      -9.541  15.009  68.846  1.00  0.00    -0.221 A  
HETATM   10  C   UNL     1      -8.436  15.515  68.137  1.00  0.00    -0.147 A  
HETATM   11  C   UNL     1      -8.517  16.888  67.524  1.00  0.00    -0.194 C  
HETATM   12  C   UNL     1      -7.325  14.679  67.993  1.00  0.00    -0.135 A  
HETATM   13  F   UNL     1      -9.738  17.475  67.678  1.00  0.00    -0.257 F  
HETATM   14  F   UNL     1      -7.629  17.769  68.050  1.00  0.00    -0.210 F  
HETATM   15  N   UNL     1      -6.158  15.111  67.237  1.00  0.00     0.137 N  
HETATM   16  F   UNL     1      -8.297  16.861  66.182  1.00  0.00    -0.284 F  
HETATM   17  C   UNL     1      -7.306  13.385  68.534  1.00  0.00    -0.111 A  
HETATM   18  C   UNL     1      -8.424  12.909  69.231  1.00  0.00     0.871 A  
HETATM   19  O   UNL     1      -5.580  16.129  67.625  1.00  0.00    -0.128 OA 
HETATM   20  O   UNL     1      -5.820  14.403  66.280  1.00  0.00     3.062 OA 
ENDBRANCH   6   8
TORSDOF 1
ENDMDL
MODEL      220
REMARK 921   NORMALIZED FREE ENERGY PREDICTED BY IDOCK:   10.48 KCAL/MOL
REMARK 922        TOTAL FREE ENERGY PREDICTED BY IDOCK:   10.79 KCAL/MOL
REMARK 923 INTER-LIGAND FREE ENERGY PREDICTED BY IDOCK:   10.47 KCAL/MOL
REMARK 924 INTRA-LIGAND FREE ENERGY PREDICTED BY IDOCK:    0.32 KCAL/MOL
REMARK 927      BINDING AFFINITY PREDICTED BY RF-SCORE:    0.00 PKD
ROOT
HETATM    1  C   UNL     1     -11.573  13.810  65.133  1.00  0.00    -0.341 C  
HETATM    2  C   UNL     1     -10.282  13.873  65.956  1.00  0.00    -0.317 C  
HETATM    3  C   UNL     1      -9.076  13.899  65.019  1.00  0.00     1.730 C  
HETATM    4  C   UNL     1     -10.317  15.106  66.857  1.00  0.00    -0.272 C  
HETATM    5  O   UNL     1     -11.258  15.892  66.811  1.00  0.00    -0.149 OA 
HETATM    6  N   UNL     1      -9.238  15.217  67.726  1.00  0.00    -0.180 N  
HETATM    7  H   UNL     1      -8.590  14.430  67.770  1.00  0.00     0.000 HD 
ENDROOT
BRANCH   6   8
HETATM    8  C   UNL     1      -8.964  16.330  68.553  1.00  0.00    -0.219 A  
HETATM    9  C   UNL     1      -7.674  16.630  69.012  1.00  0.00    -0.221 A  
HETATM   10  C   UNL     1      -7.414  17.721  69.863  1.00  0.00     1.058 A  
HETATM   11  C   UNL     1      -6.011  17.952  70.360  1.00  0.00     0.053 C  
HETATM   12  C   UNL     1      -8.501  18.511  70.248  1.00  0.00     2.626 A  
HETATM   13  F   UNL     1      -5.134  16.987  69.962  1.00  0.00    -0.139 F  
HETATM   14  F   UNL     1      -5.472  19.122  69.934  1.00  0.00    -0.194 F  
HETATM   15  N   UNL     1      -8.322  19.631  71.161  1.00  0.00     2.434 N  
HETATM   16  F   UNL     1      -5.947  17.960  71.718  1.00  0.00     0.504 F  
HETATM   17  C   UNL     1      -9.803  18.234  69.806  1.00  0.00     0.632 A  
HETATM   18  C   UNL     1     -10.029  17.139  68.963  1.00  0.00    -0.273 A  
HETATM   19  O   UNL     1      -7.552  20.528  70.810  1.00  0.00     0.560 OA 
HETATM   20  O   UNL     1      -8.984  19.610  72.207  1.00  0.00     3.177 OA 
ENDBRANCH   6   8
TORSDOF 1
ENDMDL
MODEL      221
REMARK 921   NORMALIZED FREE ENERGY PREDICTED BY IDOCK:   17.73 KCAL/MOL
REMARK 922        TOTAL FREE ENERGY PREDICTED BY IDOCK:   18.47 KCAL/MOL
REMARK 923 INTER-LIGAND FREE ENERGY PREDICTED BY IDOCK:   18.60 KCAL/MOL
REMARK 924 INTRA-LIGAND FREE ENERGY PREDICTED BY IDOCK:   -0.14 KCAL/MOL
REMARK 927      BINDING AFFINITY PREDICTED BY RF-SCORE:    0.00 PKD
ROOT
HETATM    1  C   UNL     1      -9.741  16.243  72.631  1.00  0.00     8.558 C  
HETATM    2  C   UNL     1      -9.126  16.058  71.240  1.00  0.00     4.452 C  
HETATM    3  C   UNL     1      -7.626  15.806  71.371  1.00  0.00     4.159 C  
HETATM    4  C   UNL     1      -9.828  14.903  70.528  1.00  0.00     0.802 C  
HETATM    5  O   UNL     1     -10.700  14.251  71.093  1.00  0.00     0.958 OA 
HETATM    6  N   UNL     1      -9.421  14.703  69.214  1.00  0.00    -0.404 N  
HETATM    7  H   UNL     1      -8.790  15.395  68.809  1.00  0.00     0.000 HD 
ENDROOT
BRANCH   6   8
HETATM    8  C   UNL     1      -9.808  13.619  68.393  1.00  0.00    -0.223 A  
HETATM    9  C   UNL     1      -9.701  12.284  68.805  1.00  0.00     0.017 A  
HETATM   10  C   UNL     1     -10.056  11.208  67.970  1.00  0.00    -0.191 A  
HETATM   11  C   UNL     1      -9.865   9.797  68.460  1.00  0.00    -0.156 C  
HETATM   12  C   UNL     1     -10.526  11.515  66.689  1.00  0.00    -0.238 A  
HETATM   13  F   UNL     1      -9.275   9.730  69.687  1.00  0.00    -0.166 F  
HETATM   14  F   UNL     1     -11.025   9.105  68.583  1.00  0.00    -0.215 F  
HETATM   15  N   UNL     1     -10.873  10.459  65.749  1.00  0.00     0.077 N  
HETATM   16  F   UNL     1      -9.061   9.076  67.633  1.00  0.00    -0.131 F  
HETATM   17  C   UNL     1     -10.642  12.842  66.248  1.00  0.00    -0.275 A  
HETATM   18  C   UNL     1     -10.276  13.890  67.103  1.00  0.00    -0.258 A  
HETATM   19  O   UNL     1     -11.757   9.668  66.090  1.00  0.00     2.183 OA 
HETATM   20  O   UNL     1     -10.275  10.457  64.666  1.00  0.00    -0.346 OA 
ENDBRANCH   6   8
TORSDOF 1
ENDMDL
MODEL      222
REMARK 921   NORMALIZED FREE ENERGY PREDICTED BY IDOCK:   18.65 KCAL/MOL
REMARK 922        TOTAL FREE ENERGY PREDICTED BY IDOCK:   19.44 KCAL/MOL
REMARK 923 INTER-LIGAND FREE ENERGY PREDICTED BY IDOCK:   19.01 KCAL/MOL
REMARK 924 INTRA-LIGAND FREE ENERGY PREDICTED BY IDOCK:    0.42 KCAL/MOL
REMARK 927      BINDING AFFINITY PREDICTED BY RF-SCORE:    0.00 PKD
ROOT
HETATM    1  C   UNL     1     -14.189  12.529  70.989  1.00  0.00     2.996 C  
HETATM    2  C   UNL     1     -13.153  11.508  70.508  1.00  0.00     0.216 C  
HETATM    3  C   UNL     1     -13.859  10.223  70.081  1.00  0.00     1.364 C  
HETATM    4  C   UNL     1     -12.345  12.110  69.360  1.00  0.00     0.070 C  
HETATM    5  O   UNL     1     -12.604  13.230  68.928  1.00  0.00     0.142 OA 
HETATM    6  N   UNL     1     -11.305  11.310  68.904  1.00  0.00    -0.247 N  
HETATM    7  H   UNL     1     -11.100  10.462  69.433  1.00  0.00     0.000 HD 
ENDROOT
BRANCH   6   8
HETATM    8  C   UNL     1     -10.508  11.573  67.767  1.00  0.00    -0.188 A  
HETATM    9  C   UNL     1      -9.501  10.700  67.332  1.00  0.00    -0.172 A  
HETATM   10  C   UNL     1      -8.688  10.985  66.220  1.00  0.00    -0.178 A  
HETATM   11  C   UNL     1      -7.590  10.026  65.841  1.00  0.00    -0.114 C  
HETATM   12  C   UNL     1      -8.914  12.190  65.547  1.00  0.00     0.330 A  
HETATM   13  F   UNL     1      -7.465   8.982  66.710  1.00  0.00    -0.083 F  
HETATM   14  F   UNL     1      -7.763   9.457  64.622  1.00  0.00    -0.105 F  
HETATM   15  N   UNL     1      -8.089  12.578  64.413  1.00  0.00     3.806 N  
HETATM   16  F   UNL     1      -6.371  10.628  65.825  1.00  0.00    -0.103 F  
HETATM   17  C   UNL     1      -9.914  13.083  65.960  1.00  0.00    -0.277 A  
HETATM   18  C   UNL     1     -10.703  12.772  67.074  1.00  0.00    -0.272 A  
HETATM   19  O   UNL     1      -8.072  11.819  63.441  1.00  0.00     1.018 OA 
HETATM   20  O   UNL     1      -7.491  13.658  64.502  1.00  0.00    10.810 OA 
ENDBRANCH   6   8
TORSDOF 1
ENDMDL
MODEL      223
REMARK 921   NORMALIZED FREE ENERGY PREDICTED BY IDOCK:   22.44 KCAL/MOL
REMARK 922        TOTAL FREE ENERGY PREDICTED BY IDOCK:   23.45 KCAL/MOL
REMARK 923 INTER-LIGAND FREE ENERGY PREDICTED BY IDOCK:   23.50 KCAL/MOL
REMARK 924 INTRA-LIGAND FREE ENERGY PREDICTED BY IDOCK:   -0.05 KCAL/MOL
REMARK 927      BINDING AFFINITY PREDICTED BY RF-SCORE:    0.00 PKD
ROOT
HETATM    1  C   UNL     1     -10.529  20.213  73.689  1.00  0.00     6.212 C  
HETATM    2  C   UNL     1      -9.822  19.174  72.813  1.00  0.00     4.674 C  
HETATM    3  C   UNL     1     -10.701  17.932  72.677  1.00  0.00     3.560 C  
HETATM    4  C   UNL     1      -9.511  19.791  71.451  1.00  0.00     2.682 C  
HETATM    5  O   UNL     1      -9.866  20.934  71.181  1.00  0.00     1.641 OA 
HETATM    6  N   UNL     1      -8.779  18.971  70.600  1.00  0.00     2.725 N  
HETATM    7  H   UNL     1      -8.421  18.097  70.985  1.00  0.00     0.000 HD 
ENDROOT
BRANCH   6   8
HETATM    8  C   UNL     1      -8.489  19.249  69.244  1.00  0.00    -0.005 A  
HETATM    9  C   UNL     1      -8.826  18.371  68.205  1.00  0.00    -0.323 A  
HETATM   10  C   UNL     1      -8.504  18.638  66.861  1.00  0.00    -0.277 A  
HETATM   11  C   UNL     1      -8.850  17.624  65.803  1.00  0.00     0.319 C  
HETATM   12  C   UNL     1      -7.821  19.827  66.586  1.00  0.00    -0.297 A  
HETATM   13  F   UNL     1      -9.397  16.483  66.310  1.00  0.00    -0.252 F  
HETATM   14  F   UNL     1      -9.749  18.077  64.893  1.00  0.00     1.205 F  
HETATM   15  N   UNL     1      -7.414  20.156  65.228  1.00  0.00    -0.133 N  
HETATM   16  F   UNL     1      -7.754  17.220  65.106  1.00  0.00     0.636 F  
HETATM   17  C   UNL     1      -7.469  20.723  67.606  1.00  0.00    -0.276 A  
HETATM   18  C   UNL     1      -7.801  20.426  68.934  1.00  0.00     0.403 A  
HETATM   19  O   UNL     1      -8.304  20.248  64.378  1.00  0.00     1.245 OA 
HETATM   20  O   UNL     1      -6.206  20.348  65.038  1.00  0.00    -0.235 OA 
ENDBRANCH   6   8
TORSDOF 1
ENDMDL
MODEL      224
REMARK 921   NORMALIZED FREE ENERGY PREDICTED BY IDOCK:   26.80 KCAL/MOL
REMARK 922        TOTAL FREE ENERGY PREDICTED BY IDOCK:   28.06 KCAL/MOL
REMARK 923 INTER-LIGAND FREE ENERGY PREDICTED BY IDOCK:   27.97 KCAL/MOL
REMARK 924 INTRA-LIGAND FREE ENERGY PREDICTED BY IDOCK:    0.10 KCAL/MOL
REMARK 927      BINDING AFFINITY PREDICTED BY RF-SCORE:    0.00 PKD
ROOT
HETATM    1  C   UNL     1     -10.982  15.168  64.509  1.00  0.00    -0.208 C  
HETATM    2  C   UNL     1     -10.055  15.792  65.557  1.00  0.00    -0.383 C  
HETATM    3  C   UNL     1     -10.231  17.309  65.561  1.00  0.00    -0.041 C  
HETATM    4  C   UNL     1     -10.362  15.189  66.926  1.00  0.00    -0.272 C  
HETATM    5  O   UNL     1     -11.271  14.376  67.066  1.00  0.00    -0.307 OA 
HETATM    6  N   UNL     1      -9.514  15.607  67.945  1.00  0.00    -0.204 N  
HETATM    7  H   UNL     1      -8.709  16.176  67.680  1.00  0.00     0.000 HD 
ENDROOT
BRANCH   6   8
HETATM    8  C   UNL     1      -9.675  15.311  69.318  1.00  0.00    -0.254 A  
HETATM    9  C   UNL     1     -10.931  15.090  69.900  1.00  0.00    -0.282 A  
HETATM   10  C   UNL     1     -11.087  14.829  71.274  1.00  0.00     0.065 A  
HETATM   11  C   UNL     1     -12.471  14.654  71.841  1.00  0.00    -0.341 C  
HETATM   12  C   UNL     1      -9.930  14.799  72.060  1.00  0.00     3.766 A  
HETATM   13  F   UNL     1     -13.457  14.851  70.920  1.00  0.00    -0.396 F  
HETATM   14  F   UNL     1     -12.697  13.416  72.347  1.00  0.00    -0.333 F  
HETATM   15  N   UNL     1     -10.010  14.578  73.496  1.00  0.00     5.756 N  
HETATM   16  F   UNL     1     -12.728  15.541  72.839  1.00  0.00    -0.378 F  
HETATM   17  C   UNL     1      -8.661  15.018  71.505  1.00  0.00     4.282 A  
HETATM   18  C   UNL     1      -8.540  15.279  70.134  1.00  0.00     0.581 A  
HETATM   19  O   UNL     1     -10.526  13.524  73.878  1.00  0.00     6.880 OA 
HETATM   20  O   UNL     1      -9.525  15.454  74.223  1.00  0.00    10.038 OA 
ENDBRANCH   6   8
TORSDOF 1
ENDMDL
MODEL      225
REMARK 921   NORMALIZED FREE ENERGY PREDICTED BY IDOCK:   58.82 KCAL/MOL
REMARK 922        TOTAL FREE ENERGY PREDICTED BY IDOCK:   61.95 KCAL/MOL
REMARK 923 INTER-LIGAND FREE ENERGY PREDICTED BY IDOCK:   61.70 KCAL/MOL
REMARK 924 INTRA-LIGAND FREE ENERGY PREDICTED BY IDOCK:    0.25 KCAL/MOL
REMARK 927      BINDING AFFINITY PREDICTED BY RF-SCORE:    0.00 PKD
ROOT
HETATM    1  C   UNL     1     -10.273  19.690  70.319  1.00  0.00     0.827 C  
HETATM    2  C   UNL     1     -11.616  18.954  70.258  1.00  0.00     6.551 C  
HETATM    3  C   UNL     1     -12.204  19.073  68.854  1.00  0.00     6.977 C  
HETATM    4  C   UNL     1     -11.410  17.494  70.657  1.00  0.00     2.156 C  
HETATM    5  O   UNL     1     -10.291  17.063  70.914  1.00  0.00     1.231 OA 
HETATM    6  N   UNL     1     -12.580  16.747  70.734  1.00  0.00     1.360 N  
HETATM    7  H   UNL     1     -13.463  17.248  70.634  1.00  0.00     0.000 HD 
ENDROOT
BRANCH   6   8
HETATM    8  C   UNL     1     -12.646  15.350  70.939  1.00  0.00    -0.438 A  
HETATM    9  C   UNL     1     -11.568  14.608  71.440  1.00  0.00    -0.226 A  
HETATM   10  C   UNL     1     -11.629  13.212  71.609  1.00  0.00     2.174 A  
HETATM   11  C   UNL     1     -10.413  12.473  72.102  1.00  0.00    12.405 C  
HETATM   12  C   UNL     1     -12.821  12.572  71.254  1.00  0.00    -0.241 A  
HETATM   13  F   UNL     1      -9.324  13.277  72.263  1.00  0.00    11.008 F  
HETATM   14  F   UNL     1     -10.595  11.872  73.304  1.00  0.00    12.540 F  
HETATM   15  N   UNL     1     -12.950  11.126  71.359  1.00  0.00    -0.424 N  
HETATM   16  F   UNL     1     -10.019  11.504  71.232  1.00  0.00     4.147 F  
HETATM   17  C   UNL     1     -13.916  13.288  70.750  1.00  0.00     1.539 A  
HETATM   18  C   UNL     1     -13.821  14.676  70.589  1.00  0.00     0.232 A  
HETATM   19  O   UNL     1     -12.791  10.624  72.474  1.00  0.00     0.057 OA 
HETATM   20  O   UNL     1     -13.241  10.515  70.323  1.00  0.00    -0.175 OA 
ENDBRANCH   6   8
TORSDOF 1
ENDMDL
