MODEL        1
REMARK 921   NORMALIZED FREE ENERGY PREDICTED BY IDOCK:   -7.00 KCAL/MOL
REMARK 922        TOTAL FREE ENERGY PREDICTED BY IDOCK:   -7.98 KCAL/MOL
REMARK 923 INTER-LIGAND FREE ENERGY PREDICTED BY IDOCK:   -9.05 KCAL/MOL
REMARK 924 INTRA-LIGAND FREE ENERGY PREDICTED BY IDOCK:    1.07 KCAL/MOL
REMARK 927      BINDING AFFINITY PREDICTED BY RF-SCORE:    0.00 PKD
ROOT
HETATM    1  C   UNL     1      -9.099  18.343  65.997  1.00  0.00     0.018 C  
HETATM    2  C   UNL     1     -10.356  19.015  65.967  1.00  0.00    -0.512 C  
HETATM    3  C   UNL     1      -9.541  18.986  67.197  1.00  0.00    -0.360 C  
HETATM    4  C   UNL     1      -7.548  18.513  66.844  1.00  0.00    -0.221 C  
HETATM    5  C   UNL     1     -10.459  20.045  68.197  1.00  0.00    -0.428 C  
HETATM    6  C   UNL     1     -11.260  14.444  66.818  1.00  0.00    -0.340 C  
HETATM    7  F   UNL     1     -11.269  14.120  64.468  1.00  0.00    -0.354 F  
HETATM    8  C   UNL     1      -8.309  19.424  67.488  1.00  0.00    -0.326 C  
HETATM    9  C   UNL     1     -11.366  14.984  69.327  1.00  0.00    -0.311 C  
HETATM   10  C   UNL     1     -10.511  14.571  65.507  1.00  0.00    -0.356 C  
HETATM   11  C   UNL     1      -8.008  20.959  67.233  1.00  0.00    -0.196 C  
HETATM   12  C   UNL     1     -10.421  14.797  68.072  1.00  0.00    -0.246 C  
HETATM   13  C   UNL     1      -8.363  18.466  69.077  1.00  0.00    -0.080 C  
HETATM   14  C   UNL     1      -9.659  13.515  68.386  1.00  0.00    -0.196 C  
HETATM   15  C   UNL     1      -8.726  16.815  68.926  1.00  0.00    -0.224 C  
HETATM   16  C   UNL     1     -10.165  12.313  68.012  1.00  0.00    -0.206 C  
HETATM   17  O   UNL     1     -11.880  11.113  66.844  1.00  0.00    -0.339 OA 
HETATM   18  C   UNL     1     -11.444  12.195  67.210  1.00  0.00    -0.345 C  
HETATM   19  C   UNL     1     -12.192  13.475  66.933  1.00  0.00    -0.377 C  
HETATM   20  O   UNL     1      -7.498  16.082  68.863  1.00  0.00    -0.161 OA 
HETATM   21  C   UNL     1      -9.796  16.237  67.810  1.00  0.00    -0.237 C  
HETATM   22  C   UNL     1      -9.275  16.622  66.325  1.00  0.00    -0.328 C  
HETATM   23  F   UNL     1     -11.015  16.933  67.939  1.00  0.00    -0.349 F  
HETATM   24  H   UNL     1      -7.701  15.158  68.778  1.00  0.00     0.000 HD 
HETATM   25  C   UNL     1     -10.176  16.023  65.232  1.00  0.00    -0.245 C  
ENDROOT
BRANCH   4  26
HETATM   26  C   UNL     1      -6.179  18.601  67.751  1.00  0.00    -0.194 C  
HETATM   27  O   UNL     1      -5.552  17.670  68.254  1.00  0.00    -0.148 OA 
BRANCH  26  28
HETATM   28  S   UNL     1      -5.681  20.265  68.140  1.00  0.00    -0.246 SA 
HETATM   29  F   UNL     1      -5.278  21.196  70.536  1.00  0.00    -0.327 F  
HETATM   30  C   UNL     1      -5.321  19.990  69.904  1.00  0.00    -0.226 C  
ENDBRANCH  26  28
ENDBRANCH   4  26
BRANCH   4  31
HETATM   31  O   UNL     1      -6.973  18.959  65.502  1.00  0.00    -0.409 OA 
BRANCH  31  32
HETATM   32  C   UNL     1      -5.784  18.647  64.923  1.00  0.00    -0.228 C  
HETATM   33  O   UNL     1      -5.232  17.564  64.990  1.00  0.00     0.030 OA 
BRANCH  32  34
HETATM   34  C   UNL     1      -5.247  19.810  64.128  1.00  0.00    -0.220 C  
HETATM   35  C   UNL     1      -6.241  20.963  64.140  1.00  0.00    -0.358 C  
ENDBRANCH  32  34
ENDBRANCH  31  32
ENDBRANCH   4  31
TORSDOF 5
ENDMDL
MODEL        2
REMARK 921   NORMALIZED FREE ENERGY PREDICTED BY IDOCK:   -6.88 KCAL/MOL
REMARK 922        TOTAL FREE ENERGY PREDICTED BY IDOCK:   -7.82 KCAL/MOL
REMARK 923 INTER-LIGAND FREE ENERGY PREDICTED BY IDOCK:   -8.42 KCAL/MOL
REMARK 924 INTRA-LIGAND FREE ENERGY PREDICTED BY IDOCK:    0.60 KCAL/MOL
REMARK 927      BINDING AFFINITY PREDICTED BY RF-SCORE:    0.00 PKD
ROOT
HETATM    1  C   UNL     1      -8.367   8.931  66.698  1.00  0.00    -0.111 C  
HETATM    2  C   UNL     1      -7.183   9.247  65.970  1.00  0.00    -0.091 C  
HETATM    3  C   UNL     1      -7.322   9.622  67.391  1.00  0.00    -0.087 C  
HETATM    4  C   UNL     1      -8.805   8.549  68.376  1.00  0.00    -0.139 C  
HETATM    5  C   UNL     1      -5.740  10.223  67.705  1.00  0.00    -0.044 C  
HETATM    6  C   UNL     1     -10.309  12.688  65.067  1.00  0.00    -0.320 C  
HETATM    7  F   UNL     1     -11.139  11.325  63.313  1.00  0.00    -0.443 F  
HETATM    8  C   UNL     1      -7.511   8.910  68.509  1.00  0.00    -0.085 C  
HETATM    9  C   UNL     1      -9.204  14.105  66.903  1.00  0.00    -0.270 C  
HETATM   10  C   UNL     1     -10.897  11.355  64.653  1.00  0.00    -0.292 C  
HETATM   11  C   UNL     1      -6.453   7.775  68.834  1.00  0.00    -0.040 C  
HETATM   12  C   UNL     1     -10.138  12.865  66.597  1.00  0.00    -0.247 C  
HETATM   13  C   UNL     1      -7.895  10.479  69.423  1.00  0.00    -0.151 C  
HETATM   14  C   UNL     1     -11.510  13.326  67.077  1.00  0.00    -0.378 C  
HETATM   15  C   UNL     1      -9.117  11.442  68.743  1.00  0.00    -0.089 C  
HETATM   16  C   UNL     1     -12.340  13.986  66.231  1.00  0.00    -0.482 C  
HETATM   17  O   UNL     1     -12.750  14.786  64.009  1.00  0.00    -0.786 OA 
HETATM   18  C   UNL     1     -11.986  14.222  64.778  1.00  0.00    -0.440 C  
HETATM   19  C   UNL     1     -10.614  13.779  64.335  1.00  0.00    -0.316 C  
HETATM   20  O   UNL     1     -10.360  11.114  69.373  1.00  0.00    -0.390 OA 
HETATM   21  C   UNL     1      -9.323  11.599  67.113  1.00  0.00    -0.174 C  
HETATM   22  C   UNL     1      -9.626  10.142  66.474  1.00  0.00    -0.236 C  
HETATM   23  F   UNL     1      -8.100  11.986  66.530  1.00  0.00    -0.158 F  
HETATM   24  H   UNL     1     -11.043  11.653  68.993  1.00  0.00     0.000 HD 
HETATM   25  C   UNL     1      -9.930  10.233  64.969  1.00  0.00    -0.393 C  
ENDROOT
BRANCH   4  26
HETATM   26  C   UNL     1      -9.206   8.349  69.957  1.00  0.00    -0.158 C  
HETATM   27  O   UNL     1      -8.458   8.059  70.891  1.00  0.00    -0.117 OA 
BRANCH  26  28
HETATM   28  S   UNL     1     -10.957   8.425  70.269  1.00  0.00    -0.203 SA 
HETATM   29  F   UNL     1     -12.068   8.489  72.622  1.00  0.00    -0.440 F  
HETATM   30  C   UNL     1     -10.858   8.758  72.057  1.00  0.00    -0.358 C  
ENDBRANCH  26  28
ENDBRANCH   4  26
BRANCH   4  31
HETATM   31  O   UNL     1      -9.050   7.124  67.887  1.00  0.00    -0.129 OA 
BRANCH  31  32
HETATM   32  C   UNL     1     -10.222   6.470  67.673  1.00  0.00    -0.170 C  
HETATM   33  O   UNL     1     -11.127   6.864  66.962  1.00  0.00    -0.389 OA 
BRANCH  32  34
HETATM   34  C   UNL     1     -10.245   5.148  68.398  1.00  0.00    -0.175 C  
HETATM   35  C   UNL     1      -8.874   4.844  68.986  1.00  0.00    -0.117 C  
ENDBRANCH  32  34
ENDBRANCH  31  32
ENDBRANCH   4  31
TORSDOF 5
ENDMDL
MODEL        3
REMARK 921   NORMALIZED FREE ENERGY PREDICTED BY IDOCK:   -6.76 KCAL/MOL
REMARK 922        TOTAL FREE ENERGY PREDICTED BY IDOCK:   -7.67 KCAL/MOL
REMARK 923 INTER-LIGAND FREE ENERGY PREDICTED BY IDOCK:   -8.55 KCAL/MOL
REMARK 924 INTRA-LIGAND FREE ENERGY PREDICTED BY IDOCK:    0.88 KCAL/MOL
REMARK 927      BINDING AFFINITY PREDICTED BY RF-SCORE:    0.00 PKD
ROOT
HETATM    1  C   UNL     1      -9.435  14.559  68.781  1.00  0.00    -0.183 C  
HETATM    2  C   UNL     1     -10.056  14.842  70.032  1.00  0.00     0.091 C  
HETATM    3  C   UNL     1     -10.808  14.962  68.768  1.00  0.00    -0.254 C  
HETATM    4  C   UNL     1      -9.925  13.935  67.192  1.00  0.00    -0.239 C  
HETATM    5  C   UNL     1     -12.386  15.278  69.380  1.00  0.00    -0.168 C  
HETATM    6  C   UNL     1      -7.782  18.778  68.703  1.00  0.00    -0.358 C  
HETATM    7  F   UNL     1      -5.851  17.888  69.754  1.00  0.00    -0.202 F  
HETATM    8  C   UNL     1     -11.119  14.087  67.803  1.00  0.00    -0.284 C  
HETATM    9  C   UNL     1      -9.990  19.669  67.741  1.00  0.00    -0.514 C  
HETATM   10  C   UNL     1      -6.792  17.636  68.801  1.00  0.00    -0.235 C  
HETATM   11  C   UNL     1     -11.906  12.781  68.235  1.00  0.00    -0.357 C  
HETATM   12  C   UNL     1      -8.801  18.644  67.544  1.00  0.00    -0.284 C  
HETATM   13  C   UNL     1     -11.652  15.497  66.720  1.00  0.00     0.132 C  
HETATM   14  C   UNL     1      -8.060  19.187  66.328  1.00  0.00    -0.308 C  
HETATM   15  C   UNL     1     -10.501  16.724  66.495  1.00  0.00    -0.258 C  
HETATM   16  C   UNL     1      -7.067  20.098  66.486  1.00  0.00    -0.284 C  
HETATM   17  O   UNL     1      -5.684  21.344  67.997  1.00  0.00    -0.321 OA 
HETATM   18  C   UNL     1      -6.602  20.549  67.855  1.00  0.00    -0.308 C  
HETATM   19  C   UNL     1      -7.367  20.017  69.040  1.00  0.00    -0.161 C  
HETATM   20  O   UNL     1      -9.776  16.454  65.290  1.00  0.00    -0.433 OA 
HETATM   21  C   UNL     1      -9.469  17.207  67.690  1.00  0.00    -0.241 C  
HETATM   22  C   UNL     1      -8.559  15.948  68.146  1.00  0.00    -0.169 C  
HETATM   23  F   UNL     1     -10.217  17.528  68.840  1.00  0.00    -0.303 F  
HETATM   24  H   UNL     1      -9.132  17.141  65.165  1.00  0.00     0.000 HD 
HETATM   25  C   UNL     1      -7.503  16.356  69.187  1.00  0.00    -0.228 C  
ENDROOT
BRANCH   4  26
HETATM   26  C   UNL     1     -10.431  13.500  65.690  1.00  0.00    -0.293 C  
HETATM   27  O   UNL     1      -9.979  13.874  64.608  1.00  0.00    -0.267 OA 
BRANCH  26  28
HETATM   28  S   UNL     1     -11.896  12.489  65.691  1.00  0.00    -0.424 SA 
HETATM   29  F   UNL     1     -13.326  11.905  63.596  1.00  0.00    -0.527 F  
HETATM   30  C   UNL     1     -12.062  12.323  63.885  1.00  0.00    -0.506 C  
ENDBRANCH  26  28
ENDBRANCH   4  26
BRANCH   4  31
HETATM   31  O   UNL     1      -9.150  12.670  67.557  1.00  0.00    -0.176 OA 
BRANCH  31  32
HETATM   32  C   UNL     1      -8.145  12.047  66.888  1.00  0.00    -0.127 C  
HETATM   33  O   UNL     1      -8.293  11.178  66.048  1.00  0.00    -0.167 OA 
BRANCH  32  34
HETATM   34  C   UNL     1      -6.802  12.608  67.281  1.00  0.00    -0.102 C  
HETATM   35  C   UNL     1      -6.558  12.401  68.770  1.00  0.00    -0.088 C  
ENDBRANCH  32  34
ENDBRANCH  31  32
ENDBRANCH   4  31
TORSDOF 5
ENDMDL
MODEL        4
REMARK 921   NORMALIZED FREE ENERGY PREDICTED BY IDOCK:   -6.60 KCAL/MOL
REMARK 922        TOTAL FREE ENERGY PREDICTED BY IDOCK:   -7.46 KCAL/MOL
REMARK 923 INTER-LIGAND FREE ENERGY PREDICTED BY IDOCK:   -8.30 KCAL/MOL
REMARK 924 INTRA-LIGAND FREE ENERGY PREDICTED BY IDOCK:    0.84 KCAL/MOL
REMARK 927      BINDING AFFINITY PREDICTED BY RF-SCORE:    0.00 PKD
ROOT
HETATM    1  C   UNL     1     -11.306  14.618  67.525  1.00  0.00    -0.361 C  
HETATM    2  C   UNL     1     -11.775  15.181  66.302  1.00  0.00    -0.002 C  
HETATM    3  C   UNL     1     -10.725  14.143  66.306  1.00  0.00    -0.293 C  
HETATM    4  C   UNL     1     -10.652  13.063  68.079  1.00  0.00    -0.235 C  
HETATM    5  C   UNL     1     -10.570  13.861  64.614  1.00  0.00    -0.432 C  
HETATM    6  C   UNL     1      -8.459  18.114  67.985  1.00  0.00    -0.268 C  
HETATM    7  F   UNL     1     -10.177  19.164  69.239  1.00  0.00    -0.422 F  
HETATM    8  C   UNL     1     -10.693  12.878  66.743  1.00  0.00    -0.276 C  
HETATM    9  C   UNL     1      -6.742  16.970  66.455  1.00  0.00    -0.267 C  
HETATM   10  C   UNL     1      -9.565  17.968  69.009  1.00  0.00    -0.144 C  
HETATM   11  C   UNL     1     -11.782  11.883  66.162  1.00  0.00    -0.217 C  
HETATM   12  C   UNL     1      -7.612  16.835  67.770  1.00  0.00    -0.180 C  
HETATM   13  C   UNL     1      -8.848  12.875  66.544  1.00  0.00    -0.026 C  
HETATM   14  C   UNL     1      -6.577  16.878  68.889  1.00  0.00    -0.193 C  
HETATM   15  C   UNL     1      -8.023  14.130  67.336  1.00  0.00    -0.184 C  
HETATM   16  C   UNL     1      -6.202  18.067  69.423  1.00  0.00    -0.250 C  
HETATM   17  O   UNL     1      -6.523  20.441  69.508  1.00  0.00    -0.279 OA 
HETATM   18  C   UNL     1      -6.838  19.374  69.000  1.00  0.00    -0.342 C  
HETATM   19  C   UNL     1      -7.840  19.308  67.876  1.00  0.00    -0.324 C  
HETATM   20  O   UNL     1      -7.595  13.656  68.618  1.00  0.00    -0.125 OA 
HETATM   21  C   UNL     1      -8.637  15.657  67.465  1.00  0.00    -0.172 C  
HETATM   22  C   UNL     1     -10.044  15.598  68.265  1.00  0.00    -0.218 C  
HETATM   23  F   UNL     1      -8.989  16.120  66.181  1.00  0.00    -0.279 F  
HETATM   24  H   UNL     1      -7.134  14.358  69.061  1.00  0.00     0.000 HD 
HETATM   25  C   UNL     1     -10.620  17.002  68.509  1.00  0.00    -0.370 C  
ENDROOT
BRANCH   4  26
HETATM   26  C   UNL     1      -9.910  11.668  68.533  1.00  0.00    -0.193 C  
HETATM   27  O   UNL     1      -8.861  11.547  69.165  1.00  0.00     0.071 OA 
BRANCH  26  28
HETATM   28  S   UNL     1     -10.679  10.201  67.880  1.00  0.00    -0.282 SA 
HETATM   29  F   UNL     1     -10.650   7.855  69.008  1.00  0.00    -0.217 F  
HETATM   30  C   UNL     1     -10.482   9.160  69.362  1.00  0.00    -0.219 C  
ENDBRANCH  26  28
ENDBRANCH   4  26
BRANCH   4  31
HETATM   31  O   UNL     1     -11.977  12.877  68.816  1.00  0.00    -0.311 OA 
BRANCH  31  32
HETATM   32  C   UNL     1     -12.214  12.695  70.141  1.00  0.00    -0.238 C  
HETATM   33  O   UNL     1     -12.499  11.634  70.665  1.00  0.00    -0.333 OA 
BRANCH  32  34
HETATM   34  C   UNL     1     -12.025  13.980  70.907  1.00  0.00    -0.343 C  
HETATM   35  C   UNL     1     -13.238  14.884  70.728  1.00  0.00    -0.377 C  
ENDBRANCH  32  34
ENDBRANCH  31  32
ENDBRANCH   4  31
TORSDOF 5
ENDMDL
MODEL        5
REMARK 921   NORMALIZED FREE ENERGY PREDICTED BY IDOCK:   -6.58 KCAL/MOL
REMARK 922        TOTAL FREE ENERGY PREDICTED BY IDOCK:   -7.44 KCAL/MOL
REMARK 923 INTER-LIGAND FREE ENERGY PREDICTED BY IDOCK:   -8.49 KCAL/MOL
REMARK 924 INTRA-LIGAND FREE ENERGY PREDICTED BY IDOCK:    1.05 KCAL/MOL
REMARK 927      BINDING AFFINITY PREDICTED BY RF-SCORE:    0.00 PKD
ROOT
HETATM    1  C   UNL     1     -11.165  11.844  67.579  1.00  0.00    -0.359 C  
HETATM    2  C   UNL     1     -11.758  12.000  66.292  1.00  0.00    -0.319 C  
HETATM    3  C   UNL     1     -10.341  11.611  66.432  1.00  0.00    -0.266 C  
HETATM    4  C   UNL     1      -9.883  10.860  68.315  1.00  0.00    -0.170 C  
HETATM    5  C   UNL     1      -9.947  11.297  64.786  1.00  0.00    -0.327 C  
HETATM    6  C   UNL     1     -10.405  16.310  67.714  1.00  0.00    -0.287 C  
HETATM    7  F   UNL     1     -12.502  16.490  68.808  1.00  0.00     0.144 F  
HETATM    8  C   UNL     1      -9.733  10.566  67.006  1.00  0.00    -0.212 C  
HETATM    9  C   UNL     1      -8.244  16.024  66.356  1.00  0.00    -0.309 C  
HETATM   10  C   UNL     1     -11.373  15.731  68.724  1.00  0.00    -0.362 C  
HETATM   11  C   UNL     1     -10.160   9.120  66.515  1.00  0.00    -0.357 C  
HETATM   12  C   UNL     1      -9.032  15.594  67.659  1.00  0.00    -0.183 C  
HETATM   13  C   UNL     1      -8.108  11.447  66.849  1.00  0.00    -0.158 C  
HETATM   14  C   UNL     1      -8.231  16.232  68.788  1.00  0.00    -0.227 C  
HETATM   15  C   UNL     1      -8.052  13.007  67.516  1.00  0.00    -0.179 C  
HETATM   16  C   UNL     1      -8.517  17.494  69.196  1.00  0.00     0.091 C  
HETATM   17  O   UNL     1      -9.951  19.406  69.013  1.00  0.00    -0.437 OA 
HETATM   18  C   UNL     1      -9.673  18.283  68.619  1.00  0.00    -0.361 C  
HETATM   19  C   UNL     1     -10.434  17.640  67.487  1.00  0.00    -0.365 C  
HETATM   20  O   UNL     1      -7.542  12.914  68.851  1.00  0.00    -0.276 OA 
HETATM   21  C   UNL     1      -9.335  14.044  67.463  1.00  0.00    -0.209 C  
HETATM   22  C   UNL     1     -10.592  13.374  68.235  1.00  0.00    -0.264 C  
HETATM   23  F   UNL     1      -9.773  14.165  66.129  1.00  0.00    -0.277 F  
HETATM   24  H   UNL     1      -7.511  13.787  69.224  1.00  0.00     0.000 HD 
HETATM   25  C   UNL     1     -11.791  14.334  68.310  1.00  0.00    -0.370 C  
ENDROOT
BRANCH   4  26
HETATM   26  C   UNL     1      -8.594  10.050  68.935  1.00  0.00    -0.138 C  
HETATM   27  O   UNL     1      -7.823  10.428  69.817  1.00  0.00    -0.157 OA 
BRANCH  26  28
HETATM   28  S   UNL     1      -8.233   8.524  68.093  1.00  0.00    -0.120 SA 
HETATM   29  F   UNL     1      -7.773   6.237  69.247  1.00  0.00    -0.091 F  
HETATM   30  C   UNL     1      -8.374   7.425  69.538  1.00  0.00    -0.132 C  
ENDBRANCH  26  28
ENDBRANCH   4  26
BRANCH   4  31
HETATM   31  O   UNL     1     -11.002  10.115  69.039  1.00  0.00    -0.218 OA 
BRANCH  31  32
HETATM   32  C   UNL     1     -11.270  10.032  70.369  1.00  0.00    -0.323 C  
HETATM   33  O   UNL     1     -10.866   9.159  71.114  1.00  0.00    -0.257 OA 
BRANCH  32  34
HETATM   34  C   UNL     1     -12.100  11.204  70.828  1.00  0.00    -0.458 C  
HETATM   35  C   UNL     1     -13.118  10.755  71.868  1.00  0.00    -0.557 C  
ENDBRANCH  32  34
ENDBRANCH  31  32
ENDBRANCH   4  31
TORSDOF 5
ENDMDL
MODEL        6
REMARK 921   NORMALIZED FREE ENERGY PREDICTED BY IDOCK:   -6.56 KCAL/MOL
REMARK 922        TOTAL FREE ENERGY PREDICTED BY IDOCK:   -7.41 KCAL/MOL
REMARK 923 INTER-LIGAND FREE ENERGY PREDICTED BY IDOCK:   -8.89 KCAL/MOL
REMARK 924 INTRA-LIGAND FREE ENERGY PREDICTED BY IDOCK:    1.47 KCAL/MOL
REMARK 927      BINDING AFFINITY PREDICTED BY RF-SCORE:    0.00 PKD
ROOT
HETATM    1  C   UNL     1      -9.607  17.990  66.766  1.00  0.00    -0.303 C  
HETATM    2  C   UNL     1     -10.749  18.473  67.469  1.00  0.00    -0.419 C  
HETATM    3  C   UNL     1      -9.711  17.684  68.161  1.00  0.00    -0.310 C  
HETATM    4  C   UNL     1      -7.907  17.628  67.130  1.00  0.00    -0.209 C  
HETATM    5  C   UNL     1     -10.265  17.807  69.786  1.00  0.00     0.458 C  
HETATM    6  C   UNL     1     -12.029  14.412  65.396  1.00  0.00    -0.369 C  
HETATM    7  F   UNL     1     -12.557  15.689  63.468  1.00  0.00    -0.021 F  
HETATM    8  C   UNL     1      -8.401  17.875  68.362  1.00  0.00    -0.307 C  
HETATM    9  C   UNL     1     -11.553  13.192  67.605  1.00  0.00    -0.392 C  
HETATM   10  C   UNL     1     -11.553  15.386  64.338  1.00  0.00    -0.264 C  
HETATM   11  C   UNL     1      -7.966  19.219  69.082  1.00  0.00    -0.222 C  
HETATM   12  C   UNL     1     -10.914  13.899  66.342  1.00  0.00    -0.303 C  
HETATM   13  C   UNL     1      -8.250  16.115  68.930  1.00  0.00    -0.229 C  
HETATM   14  C   UNL     1     -10.272  12.749  65.576  1.00  0.00    -0.293 C  
HETATM   15  C   UNL     1      -8.841  14.943  67.853  1.00  0.00    -0.165 C  
HETATM   16  C   UNL     1     -10.991  12.058  64.656  1.00  0.00    -0.367 C  
HETATM   17  O   UNL     1     -13.045  11.839  63.439  1.00  0.00    -0.622 OA 
HETATM   18  C   UNL     1     -12.411  12.440  64.294  1.00  0.00    -0.455 C  
HETATM   19  C   UNL     1     -13.032  13.566  65.083  1.00  0.00    -0.263 C  
HETATM   20  O   UNL     1      -7.753  14.472  67.050  1.00  0.00    -0.328 OA 
HETATM   21  C   UNL     1     -10.180  15.187  66.920  1.00  0.00    -0.259 C  
HETATM   22  C   UNL     1      -9.928  16.462  65.952  1.00  0.00    -0.358 C  
HETATM   23  F   UNL     1     -11.249  15.587  67.746  1.00  0.00    -0.295 F  
HETATM   24  H   UNL     1      -8.084  13.817  66.447  1.00  0.00     0.000 HD 
HETATM   25  C   UNL     1     -11.100  16.681  64.982  1.00  0.00    -0.121 C  
ENDROOT
BRANCH   4  26
HETATM   26  C   UNL     1      -6.383  17.158  67.527  1.00  0.00    -0.144 C  
HETATM   27  O   UNL     1      -5.715  16.261  67.012  1.00  0.00    -0.314 OA 
BRANCH  26  28
HETATM   28  S   UNL     1      -5.734  17.973  68.970  1.00  0.00    -0.213 SA 
HETATM   29  F   UNL     1      -5.274  16.834  71.265  1.00  0.00    -0.217 F  
HETATM   30  C   UNL     1      -5.424  16.475  69.959  1.00  0.00    -0.196 C  
ENDBRANCH  26  28
ENDBRANCH   4  26
BRANCH   4  31
HETATM   31  O   UNL     1      -7.566  18.858  66.293  1.00  0.00    -0.253 OA 
BRANCH  31  32
HETATM   32  C   UNL     1      -6.502  19.084  65.477  1.00  0.00    -0.271 C  
HETATM   33  O   UNL     1      -6.262  18.475  64.451  1.00  0.00    -0.283 OA 
BRANCH  32  34
HETATM   34  C   UNL     1      -5.669  20.235  65.980  1.00  0.00    -0.201 C  
HETATM   35  C   UNL     1      -6.530  21.199  66.785  1.00  0.00    -0.376 C  
ENDBRANCH  32  34
ENDBRANCH  31  32
ENDBRANCH   4  31
TORSDOF 5
ENDMDL
MODEL        7
REMARK 921   NORMALIZED FREE ENERGY PREDICTED BY IDOCK:   -6.41 KCAL/MOL
REMARK 922        TOTAL FREE ENERGY PREDICTED BY IDOCK:   -7.22 KCAL/MOL
REMARK 923 INTER-LIGAND FREE ENERGY PREDICTED BY IDOCK:   -7.93 KCAL/MOL
REMARK 924 INTRA-LIGAND FREE ENERGY PREDICTED BY IDOCK:    0.71 KCAL/MOL
REMARK 927      BINDING AFFINITY PREDICTED BY RF-SCORE:    0.00 PKD
ROOT
HETATM    1  C   UNL     1     -11.556  12.984  67.470  1.00  0.00    -0.405 C  
HETATM    2  C   UNL     1     -12.247  12.517  68.626  1.00  0.00     0.041 C  
HETATM    3  C   UNL     1     -11.174  13.524  68.739  1.00  0.00    -0.311 C  
HETATM    4  C   UNL     1     -10.759  14.480  66.941  1.00  0.00    -0.288 C  
HETATM    5  C   UNL     1     -11.300  13.917  70.411  1.00  0.00     0.058 C  
HETATM    6  C   UNL     1      -8.804   9.391  67.727  1.00  0.00    -0.124 C  
HETATM    7  F   UNL     1     -10.321   8.304  66.263  1.00  0.00    -0.343 F  
HETATM    8  C   UNL     1     -11.020  14.756  68.236  1.00  0.00    -0.264 C  
HETATM    9  C   UNL     1      -7.332  10.591  69.457  1.00  0.00    -0.148 C  
HETATM   10  C   UNL     1      -9.713   9.496  66.520  1.00  0.00    -0.222 C  
HETATM   11  C   UNL     1     -12.154  15.816  68.557  1.00  0.00     0.045 C  
HETATM   12  C   UNL     1      -7.959  10.660  68.005  1.00  0.00    -0.107 C  
HETATM   13  C   UNL     1      -9.237  14.724  68.751  1.00  0.00    -0.196 C  
HETATM   14  C   UNL     1      -6.751  10.514  67.088  1.00  0.00    -0.079 C  
HETATM   15  C   UNL     1      -8.337  13.398  68.192  1.00  0.00    -0.164 C  
HETATM   16  C   UNL     1      -6.334   9.282  66.701  1.00  0.00    -0.066 C  
HETATM   17  O   UNL     1      -6.725   6.917  66.710  1.00  0.00    -0.043 OA 
HETATM   18  C   UNL     1      -7.082   8.023  67.088  1.00  0.00    -0.082 C  
HETATM   19  C   UNL     1      -8.258   8.192  68.016  1.00  0.00    -0.129 C  
HETATM   20  O   UNL     1      -7.679  13.772  66.977  1.00  0.00    -0.366 OA 
HETATM   21  C   UNL     1      -8.977  11.882  68.055  1.00  0.00    -0.185 C  
HETATM   22  C   UNL     1     -10.223  11.924  67.021  1.00  0.00    -0.233 C  
HETATM   23  F   UNL     1      -9.559  11.516  69.285  1.00  0.00    -0.082 F  
HETATM   24  H   UNL     1      -7.176  13.030  66.665  1.00  0.00     0.000 HD 
HETATM   25  C   UNL     1     -10.801  10.521  66.769  1.00  0.00    -0.209 C  
ENDROOT
BRANCH   4  26
HETATM   26  C   UNL     1      -9.898  15.821  66.536  1.00  0.00    -0.269 C  
HETATM   27  O   UNL     1      -8.920  15.889  65.793  1.00  0.00    -0.283 OA 
BRANCH  26  28
HETATM   28  S   UNL     1     -10.391  17.284  67.422  1.00  0.00    -0.332 SA 
HETATM   29  F   UNL     1     -10.613  19.665  66.395  1.00  0.00    -0.486 F  
HETATM   30  C   UNL     1     -10.601  18.369  65.975  1.00  0.00    -0.309 C  
ENDBRANCH  26  28
ENDBRANCH   4  26
BRANCH   4  31
HETATM   31  O   UNL     1     -11.930  14.650  65.977  1.00  0.00    -0.337 OA 
BRANCH  31  32
HETATM   32  C   UNL     1     -11.930  14.745  64.621  1.00  0.00    -0.440 C  
HETATM   33  O   UNL     1     -12.342  15.696  63.983  1.00  0.00    -0.641 OA 
BRANCH  32  34
HETATM   34  C   UNL     1     -11.300  13.528  63.993  1.00  0.00    -0.306 C  
HETATM   35  C   UNL     1     -12.347  12.444  63.774  1.00  0.00    -0.625 C  
ENDBRANCH  32  34
ENDBRANCH  31  32
ENDBRANCH   4  31
TORSDOF 5
ENDMDL
MODEL        8
REMARK 921   NORMALIZED FREE ENERGY PREDICTED BY IDOCK:   -6.38 KCAL/MOL
REMARK 922        TOTAL FREE ENERGY PREDICTED BY IDOCK:   -7.18 KCAL/MOL
REMARK 923 INTER-LIGAND FREE ENERGY PREDICTED BY IDOCK:   -8.16 KCAL/MOL
REMARK 924 INTRA-LIGAND FREE ENERGY PREDICTED BY IDOCK:    0.98 KCAL/MOL
REMARK 927      BINDING AFFINITY PREDICTED BY RF-SCORE:    0.00 PKD
ROOT
HETATM    1  C   UNL     1      -8.612   8.615  66.862  1.00  0.00    -0.124 C  
HETATM    2  C   UNL     1      -7.297   9.025  66.497  1.00  0.00    -0.085 C  
HETATM    3  C   UNL     1      -7.808   9.246  67.864  1.00  0.00    -0.092 C  
HETATM    4  C   UNL     1      -9.445   8.051  68.325  1.00  0.00    -0.141 C  
HETATM    5  C   UNL     1      -6.384   9.837  68.631  1.00  0.00    -0.046 C  
HETATM    6  C   UNL     1     -10.237  12.490  65.162  1.00  0.00    -0.299 C  
HETATM    7  F   UNL     1     -10.535  11.306  63.129  1.00  0.00    -0.364 F  
HETATM    8  C   UNL     1      -8.244   8.417  68.821  1.00  0.00    -0.119 C  
HETATM    9  C   UNL     1      -9.695  13.724  67.349  1.00  0.00    -0.235 C  
HETATM   10  C   UNL     1     -10.643  11.199  64.483  1.00  0.00    -0.328 C  
HETATM   11  C   UNL     1      -7.254   7.272  69.294  1.00  0.00    -0.081 C  
HETATM   12  C   UNL     1     -10.467  12.508  66.694  1.00  0.00    -0.252 C  
HETATM   13  C   UNL     1      -8.914   9.875  69.754  1.00  0.00    -0.242 C  
HETATM   14  C   UNL     1     -11.934  12.893  66.848  1.00  0.00    -0.402 C  
HETATM   15  C   UNL     1      -9.963  10.884  68.881  1.00  0.00    -0.196 C  
HETATM   16  C   UNL     1     -12.550  13.625  65.887  1.00  0.00    -0.478 C  
HETATM   17  O   UNL     1     -12.417  14.648  63.723  1.00  0.00    -0.799 OA 
HETATM   18  C   UNL     1     -11.849  14.018  64.604  1.00  0.00    -0.417 C  
HETATM   19  C   UNL     1     -10.392  13.647  64.486  1.00  0.00    -0.355 C  
HETATM   20  O   UNL     1     -11.310  10.471  69.136  1.00  0.00    -0.242 OA 
HETATM   21  C   UNL     1      -9.756  11.209  67.276  1.00  0.00    -0.166 C  
HETATM   22  C   UNL     1      -9.824   9.822  66.441  1.00  0.00    -0.298 C  
HETATM   23  F   UNL     1      -8.443  11.675  67.067  1.00  0.00    -0.142 F  
HETATM   24  H   UNL     1     -11.897  11.035  68.647  1.00  0.00     0.000 HD 
HETATM   25  C   UNL     1      -9.740  10.066  64.925  1.00  0.00    -0.377 C  
ENDROOT
BRANCH   4  26
HETATM   26  C   UNL     1     -10.225   7.679  69.724  1.00  0.00    -0.210 C  
HETATM   27  O   UNL     1     -11.271   8.165  70.153  1.00  0.00    -0.232 OA 
BRANCH  26  28
HETATM   28  S   UNL     1      -9.329   6.547  70.765  1.00  0.00    -0.157 SA 
HETATM   29  F   UNL     1     -10.336   4.445  71.924  1.00  0.00    -0.247 F  
HETATM   30  C   UNL     1     -10.617   5.264  70.872  1.00  0.00    -0.177 C  
ENDBRANCH  26  28
ENDBRANCH   4  26
BRANCH   4  31
HETATM   31  O   UNL     1      -9.496   6.682  67.653  1.00  0.00    -0.125 OA 
BRANCH  31  32
HETATM   32  C   UNL     1     -10.543   6.043  67.067  1.00  0.00    -0.316 C  
HETATM   33  O   UNL     1     -11.655   6.512  66.911  1.00  0.00    -0.019 OA 
BRANCH  32  34
HETATM   34  C   UNL     1     -10.137   4.676  66.577  1.00  0.00    -0.279 C  
HETATM   35  C   UNL     1      -8.641   4.638  66.293  1.00  0.00    -0.113 C  
ENDBRANCH  32  34
ENDBRANCH  31  32
ENDBRANCH   4  31
TORSDOF 5
ENDMDL
MODEL        9
REMARK 921   NORMALIZED FREE ENERGY PREDICTED BY IDOCK:   -6.23 KCAL/MOL
REMARK 922        TOTAL FREE ENERGY PREDICTED BY IDOCK:   -6.99 KCAL/MOL
REMARK 923 INTER-LIGAND FREE ENERGY PREDICTED BY IDOCK:   -7.59 KCAL/MOL
REMARK 924 INTRA-LIGAND FREE ENERGY PREDICTED BY IDOCK:    0.60 KCAL/MOL
REMARK 927      BINDING AFFINITY PREDICTED BY RF-SCORE:    0.00 PKD
ROOT
HETATM    1  C   UNL     1      -8.540  12.285  67.474  1.00  0.00    -0.174 C  
HETATM    2  C   UNL     1      -8.273  11.476  66.331  1.00  0.00    -0.092 C  
HETATM    3  C   UNL     1      -9.654  11.859  66.683  1.00  0.00    -0.220 C  
HETATM    4  C   UNL     1      -9.746  13.491  67.966  1.00  0.00    -0.228 C  
HETATM    5  C   UNL     1     -10.500  11.243  65.316  1.00  0.00    -0.341 C  
HETATM    6  C   UNL     1      -8.448   8.567  70.064  1.00  0.00    -0.125 C  
HETATM    7  F   UNL     1      -6.145   9.027  70.394  1.00  0.00    -0.032 F  
HETATM    8  C   UNL     1     -10.271  13.041  66.807  1.00  0.00    -0.246 C  
HETATM    9  C   UNL     1     -10.898   8.055  69.486  1.00  0.00    -0.135 C  
HETATM   10  C   UNL     1      -7.373   9.609  70.291  1.00  0.00    -0.149 C  
HETATM   11  C   UNL     1     -10.242  14.009  65.551  1.00  0.00    -0.362 C  
HETATM   12  C   UNL     1      -9.894   9.124  70.080  1.00  0.00    -0.229 C  
HETATM   13  C   UNL     1     -11.704  12.188  67.622  1.00  0.00    -0.386 C  
HETATM   14  C   UNL     1     -10.260   9.174  71.559  1.00  0.00    -0.403 C  
HETATM   15  C   UNL     1     -11.315  11.223  68.963  1.00  0.00    -0.278 C  
HETATM   16  C   UNL     1      -9.664   8.328  72.437  1.00  0.00    -0.373 C  
HETATM   17  O   UNL     1      -8.011   6.633  72.811  1.00  0.00    -0.101 OA 
HETATM   18  C   UNL     1      -8.571   7.369  72.013  1.00  0.00    -0.106 C  
HETATM   19  C   UNL     1      -8.245   7.321  70.541  1.00  0.00    -0.124 C  
HETATM   20  O   UNL     1     -11.480  12.005  70.151  1.00  0.00    -0.511 OA 
HETATM   21  C   UNL     1      -9.926  10.335  69.049  1.00  0.00    -0.213 C  
HETATM   22  C   UNL     1      -8.653  11.331  68.950  1.00  0.00    -0.056 C  
HETATM   23  F   UNL     1      -9.825   9.528  67.898  1.00  0.00    -0.157 F  
HETATM   24  H   UNL     1     -11.262  11.465  70.901  1.00  0.00     0.000 HD 
HETATM   25  C   UNL     1      -7.325  10.576  69.126  1.00  0.00    -0.109 C  
ENDROOT
BRANCH   4  26
HETATM   26  C   UNL     1     -10.958  14.489  68.455  1.00  0.00    -0.249 C  
HETATM   27  O   UNL     1     -11.793  15.056  67.752  1.00  0.00    -0.336 OA 
BRANCH  26  28
HETATM   28  S   UNL     1     -10.913  14.874  70.192  1.00  0.00    -0.131 SA 
HETATM   29  F   UNL     1     -12.796  16.091  71.515  1.00  0.00    -0.490 F  
HETATM   30  C   UNL     1     -12.654  15.384  70.359  1.00  0.00    -0.389 C  
ENDBRANCH  26  28
ENDBRANCH   4  26
BRANCH   4  31
HETATM   31  O   UNL     1      -8.629  14.523  67.833  1.00  0.00    -0.148 OA 
BRANCH  31  32
HETATM   32  C   UNL     1      -7.909  15.151  68.799  1.00  0.00    -0.147 C  
HETATM   33  O   UNL     1      -7.350  14.600  69.729  1.00  0.00    -0.122 OA 
BRANCH  32  34
HETATM   34  C   UNL     1      -7.841  16.636  68.545  1.00  0.00    -0.218 C  
HETATM   35  C   UNL     1      -8.635  16.996  67.297  1.00  0.00    -0.209 C  
ENDBRANCH  32  34
ENDBRANCH  31  32
ENDBRANCH   4  31
TORSDOF 5
ENDMDL
MODEL       10
REMARK 921   NORMALIZED FREE ENERGY PREDICTED BY IDOCK:   -6.18 KCAL/MOL
REMARK 922        TOTAL FREE ENERGY PREDICTED BY IDOCK:   -6.92 KCAL/MOL
REMARK 923 INTER-LIGAND FREE ENERGY PREDICTED BY IDOCK:   -7.76 KCAL/MOL
REMARK 924 INTRA-LIGAND FREE ENERGY PREDICTED BY IDOCK:    0.84 KCAL/MOL
REMARK 927      BINDING AFFINITY PREDICTED BY RF-SCORE:    0.00 PKD
ROOT
HETATM    1  C   UNL     1     -10.955  11.024  68.366  1.00  0.00    -0.281 C  
HETATM    2  C   UNL     1     -12.092  10.972  67.507  1.00  0.00     0.802 C  
HETATM    3  C   UNL     1     -10.913  11.788  67.156  1.00  0.00    -0.326 C  
HETATM    4  C   UNL     1      -9.201  11.237  68.197  1.00  0.00    -0.170 C  
HETATM    5  C   UNL     1     -11.353  12.294  65.570  1.00  0.00    -0.394 C  
HETATM    6  C   UNL     1     -13.006  14.251  70.799  1.00  0.00    -0.368 C  
HETATM    7  F   UNL     1     -13.835  12.496  72.162  1.00  0.00    -0.492 F  
HETATM    8  C   UNL     1      -9.626  11.488  66.941  1.00  0.00    -0.203 C  
HETATM    9  C   UNL     1     -12.213  16.055  69.151  1.00  0.00     0.083 C  
HETATM   10  C   UNL     1     -12.738  12.923  71.476  1.00  0.00    -0.239 C  
HETATM   11  C   UNL     1      -9.310  10.412  65.819  1.00  0.00    -0.230 C  
HETATM   12  C   UNL     1     -11.766  14.884  70.117  1.00  0.00    -0.340 C  
HETATM   13  C   UNL     1      -9.212  13.296  67.009  1.00  0.00    -0.237 C  
HETATM   14  C   UNL     1     -11.045  15.608  71.247  1.00  0.00    -0.315 C  
HETATM   15  C   UNL     1      -9.731  14.114  68.402  1.00  0.00    -0.226 C  
HETATM   16  C   UNL     1     -11.740  16.049  72.326  1.00  0.00    -0.581 C  
HETATM   17  O   UNL     1     -13.837  16.145  73.483  1.00  0.00    -0.509 OA 
HETATM   18  C   UNL     1     -13.220  15.777  72.494  1.00  0.00    -0.487 C  
HETATM   19  C   UNL     1     -13.915  15.080  71.352  1.00  0.00    -0.565 C  
HETATM   20  O   UNL     1      -8.658  14.129  69.350  1.00  0.00    -0.340 OA 
HETATM   21  C   UNL     1     -11.158  13.769  69.158  1.00  0.00    -0.240 C  
HETATM   22  C   UNL     1     -11.142  12.223  69.641  1.00  0.00    -0.021 C  
HETATM   23  F   UNL     1     -12.203  13.826  68.214  1.00  0.00    -0.386 F  
HETATM   24  H   UNL     1      -8.949  14.587  70.129  1.00  0.00     0.000 HD 
HETATM   25  C   UNL     1     -12.404  11.865  70.444  1.00  0.00    -0.334 C  
ENDROOT
BRANCH   4  26
HETATM   26  C   UNL     1      -7.603  11.587  68.028  1.00  0.00    -0.112 C  
HETATM   27  O   UNL     1      -6.970  11.721  66.982  1.00  0.00    -0.139 OA 
BRANCH  26  28
HETATM   28  S   UNL     1      -6.709  11.616  69.568  1.00  0.00    -0.046 SA 
HETATM   29  F   UNL     1      -5.316   9.643  70.539  1.00  0.00    -0.032 F  
HETATM   30  C   UNL     1      -5.799  10.056  69.333  1.00  0.00    -0.037 C  
ENDBRANCH  26  28
ENDBRANCH   4  26
BRANCH   4  31
HETATM   31  O   UNL     1      -9.081   9.763  68.575  1.00  0.00    -0.126 OA 
BRANCH  31  32
HETATM   32  C   UNL     1      -9.378   9.142  69.747  1.00  0.00    -0.182 C  
HETATM   33  O   UNL     1      -9.014   9.510  70.849  1.00  0.00    -0.218 OA 
BRANCH  32  34
HETATM   34  C   UNL     1     -10.272   7.950  69.518  1.00  0.00    -0.208 C  
HETATM   35  C   UNL     1     -11.312   7.848  70.625  1.00  0.00    -0.267 C  
ENDBRANCH  32  34
ENDBRANCH  31  32
ENDBRANCH   4  31
TORSDOF 5
ENDMDL
MODEL       11
REMARK 921   NORMALIZED FREE ENERGY PREDICTED BY IDOCK:   -6.16 KCAL/MOL
REMARK 922        TOTAL FREE ENERGY PREDICTED BY IDOCK:   -6.90 KCAL/MOL
REMARK 923 INTER-LIGAND FREE ENERGY PREDICTED BY IDOCK:   -7.86 KCAL/MOL
REMARK 924 INTRA-LIGAND FREE ENERGY PREDICTED BY IDOCK:    0.97 KCAL/MOL
REMARK 927      BINDING AFFINITY PREDICTED BY RF-SCORE:    0.00 PKD
ROOT
HETATM    1  C   UNL     1      -9.539  13.885  65.910  1.00  0.00    -0.171 C  
HETATM    2  C   UNL     1     -10.318  13.423  64.809  1.00  0.00    -0.397 C  
HETATM    3  C   UNL     1     -10.941  14.174  65.917  1.00  0.00    -0.297 C  
HETATM    4  C   UNL     1      -9.568  15.248  67.048  1.00  0.00    -0.224 C  
HETATM    5  C   UNL     1     -12.535  14.369  65.295  1.00  0.00    -0.359 C  
HETATM    6  C   UNL     1      -9.964   9.814  67.856  1.00  0.00    -0.196 C  
HETATM    7  F   UNL     1      -7.929   9.246  66.778  1.00  0.00    -0.103 F  
HETATM    8  C   UNL     1     -10.747  15.404  66.409  1.00  0.00    -0.311 C  
HETATM    9  C   UNL     1     -12.253  10.468  68.819  1.00  0.00     0.362 C  
HETATM   10  C   UNL     1      -8.576  10.250  67.432  1.00  0.00    -0.125 C  
HETATM   11  C   UNL     1     -10.893  16.619  65.402  1.00  0.00    -0.182 C  
HETATM   12  C   UNL     1     -10.718  10.843  68.734  1.00  0.00    -0.243 C  
HETATM   13  C   UNL     1     -11.771  14.953  67.890  1.00  0.00    -0.344 C  
HETATM   14  C   UNL     1     -10.207  10.578  70.146  1.00  0.00     0.081 C  
HETATM   15  C   UNL     1     -11.282  13.556  68.721  1.00  0.00    -0.274 C  
HETATM   16  C   UNL     1      -9.748   9.347  70.483  1.00  0.00    -0.331 C  
HETATM   17  O   UNL     1      -9.198   7.125  69.769  1.00  0.00    -0.145 OA 
HETATM   18  C   UNL     1      -9.646   8.223  69.473  1.00  0.00    -0.171 C  
HETATM   19  C   UNL     1     -10.180   8.503  68.090  1.00  0.00    -0.254 C  
HETATM   20  O   UNL     1     -10.420  13.942  69.797  1.00  0.00    -0.375 OA 
HETATM   21  C   UNL     1     -10.677  12.228  67.950  1.00  0.00    -0.215 C  
HETATM   22  C   UNL     1      -9.335  12.647  67.145  1.00  0.00    -0.210 C  
HETATM   23  F   UNL     1     -11.577  11.832  66.941  1.00  0.00    -0.368 F  
HETATM   24  H   UNL     1     -10.147  13.161  70.261  1.00  0.00     0.000 HD 
HETATM   25  C   UNL     1      -8.663  11.431  66.486  1.00  0.00    -0.181 C  
ENDROOT
BRANCH   4  26
HETATM   26  C   UNL     1      -9.703  16.431  68.181  1.00  0.00    -0.229 C  
HETATM   27  O   UNL     1      -9.408  16.366  69.374  1.00  0.00    -0.210 OA 
BRANCH  26  28
HETATM   28  S   UNL     1     -10.515  17.901  67.590  1.00  0.00    -0.387 SA 
HETATM   29  F   UNL     1     -10.231  20.286  68.593  1.00  0.00    -0.512 F  
HETATM   30  C   UNL     1      -9.559  19.101  68.571  1.00  0.00    -0.395 C  
ENDBRANCH  26  28
ENDBRANCH   4  26
BRANCH   4  31
HETATM   31  O   UNL     1      -8.338  15.768  66.308  1.00  0.00    -0.281 OA 
BRANCH  31  32
HETATM   32  C   UNL     1      -7.113  16.104  66.791  1.00  0.00    -0.117 C  
HETATM   33  O   UNL     1      -6.357  15.350  67.374  1.00  0.00    -0.256 OA 
BRANCH  32  34
HETATM   34  C   UNL     1      -6.777  17.537  66.465  1.00  0.00    -0.276 C  
HETATM   35  C   UNL     1      -6.058  18.191  67.637  1.00  0.00    -0.169 C  
ENDBRANCH  32  34
ENDBRANCH  31  32
ENDBRANCH   4  31
TORSDOF 5
ENDMDL
MODEL       12
REMARK 921   NORMALIZED FREE ENERGY PREDICTED BY IDOCK:   -6.13 KCAL/MOL
REMARK 922        TOTAL FREE ENERGY PREDICTED BY IDOCK:   -6.85 KCAL/MOL
REMARK 923 INTER-LIGAND FREE ENERGY PREDICTED BY IDOCK:   -7.61 KCAL/MOL
REMARK 924 INTRA-LIGAND FREE ENERGY PREDICTED BY IDOCK:    0.75 KCAL/MOL
REMARK 927      BINDING AFFINITY PREDICTED BY RF-SCORE:    0.00 PKD
ROOT
HETATM    1  C   UNL     1      -9.559  14.703  69.411  1.00  0.00     0.054 C  
HETATM    2  C   UNL     1      -9.974  15.174  70.691  1.00  0.00     0.568 C  
HETATM    3  C   UNL     1     -10.937  15.054  69.578  1.00  0.00    -0.281 C  
HETATM    4  C   UNL     1     -10.272  13.803  68.057  1.00  0.00    -0.248 C  
HETATM    5  C   UNL     1     -12.404  15.416  70.402  1.00  0.00    -0.443 C  
HETATM    6  C   UNL     1      -8.207  18.900  68.363  1.00  0.00    -0.377 C  
HETATM    7  F   UNL     1      -6.074  18.264  69.183  1.00  0.00    -0.198 F  
HETATM    8  C   UNL     1     -11.352  14.018  68.837  1.00  0.00    -0.314 C  
HETATM    9  C   UNL     1     -10.597  19.543  67.679  1.00  0.00    -0.566 C  
HETATM   10  C   UNL     1      -7.146  17.824  68.466  1.00  0.00    -0.245 C  
HETATM   11  C   UNL     1     -11.972  12.779  69.608  1.00  0.00    -0.354 C  
HETATM   12  C   UNL     1      -9.398  18.539  67.441  1.00  0.00    -0.287 C  
HETATM   13  C   UNL     1     -12.147  15.207  67.654  1.00  0.00     0.137 C  
HETATM   14  C   UNL     1      -8.909  18.892  66.041  1.00  0.00    -0.019 C  
HETATM   15  C   UNL     1     -11.130  16.415  67.034  1.00  0.00     0.067 C  
HETATM   16  C   UNL     1      -7.962  19.849  65.872  1.00  0.00    -0.288 C  
HETATM   17  O   UNL     1      -6.422  21.376  66.892  1.00  0.00    -0.457 OA 
HETATM   18  C   UNL     1      -7.300  20.540  67.045  1.00  0.00    -0.322 C  
HETATM   19  C   UNL     1      -7.818  20.191  68.418  1.00  0.00    -0.117 C  
HETATM   20  O   UNL     1     -10.604  15.969  65.779  1.00  0.00    -0.343 OA 
HETATM   21  C   UNL     1      -9.942  17.126  67.932  1.00  0.00    -0.292 C  
HETATM   22  C   UNL     1      -8.891  15.992  68.416  1.00  0.00    -0.188 C  
HETATM   23  F   UNL     1     -10.501  17.613  69.131  1.00  0.00    -0.351 F  
HETATM   24  H   UNL     1     -10.035  16.645  65.432  1.00  0.00     0.000 HD 
HETATM   25  C   UNL     1      -7.701  16.605  69.173  1.00  0.00    -0.186 C  
ENDROOT
BRANCH   4  26
HETATM   26  C   UNL     1     -10.998  13.105  66.758  1.00  0.00    -0.279 C  
HETATM   27  O   UNL     1     -12.042  12.452  66.742  1.00  0.00    -0.578 OA 
BRANCH  26  28
HETATM   28  S   UNL     1     -10.043  13.209  65.260  1.00  0.00    -0.190 SA 
HETATM   29  F   UNL     1     -10.804  12.349  62.924  1.00  0.00    -0.383 F  
HETATM   30  C   UNL     1     -11.366  12.717  64.109  1.00  0.00    -0.390 C  
ENDBRANCH  26  28
ENDBRANCH   4  26
BRANCH   4  31
HETATM   31  O   UNL     1      -9.370  12.645  68.476  1.00  0.00    -0.178 OA 
BRANCH  31  32
HETATM   32  C   UNL     1      -8.273  12.133  67.858  1.00  0.00    -0.155 C  
HETATM   33  O   UNL     1      -7.326  12.783  67.456  1.00  0.00    -0.133 OA 
BRANCH  32  34
HETATM   34  C   UNL     1      -8.350  10.630  67.776  1.00  0.00    -0.115 C  
HETATM   35  C   UNL     1      -8.584  10.036  69.158  1.00  0.00    -0.158 C  
ENDBRANCH  32  34
ENDBRANCH  31  32
ENDBRANCH   4  31
TORSDOF 5
ENDMDL
MODEL       13
REMARK 921   NORMALIZED FREE ENERGY PREDICTED BY IDOCK:   -6.07 KCAL/MOL
REMARK 922        TOTAL FREE ENERGY PREDICTED BY IDOCK:   -6.77 KCAL/MOL
REMARK 923 INTER-LIGAND FREE ENERGY PREDICTED BY IDOCK:   -7.52 KCAL/MOL
REMARK 924 INTRA-LIGAND FREE ENERGY PREDICTED BY IDOCK:    0.74 KCAL/MOL
REMARK 927      BINDING AFFINITY PREDICTED BY RF-SCORE:    0.00 PKD
ROOT
HETATM    1  C   UNL     1     -11.107  11.457  67.411  1.00  0.00    -0.349 C  
HETATM    2  C   UNL     1     -11.847  11.645  66.207  1.00  0.00     0.182 C  
HETATM    3  C   UNL     1     -10.405  11.335  66.170  1.00  0.00    -0.300 C  
HETATM    4  C   UNL     1      -9.701  10.515  67.946  1.00  0.00    -0.153 C  
HETATM    5  C   UNL     1     -10.180  11.131  64.476  1.00  0.00    -0.383 C  
HETATM    6  C   UNL     1     -10.577  15.948  67.724  1.00  0.00    -0.302 C  
HETATM    7  F   UNL     1     -12.545  15.945  69.046  1.00  0.00    -0.184 F  
HETATM    8  C   UNL     1      -9.681  10.298  66.613  1.00  0.00    -0.233 C  
HETATM    9  C   UNL     1      -8.567  15.862  66.126  1.00  0.00    -0.276 C  
HETATM   10  C   UNL     1     -11.394  15.260  68.797  1.00  0.00    -0.308 C  
HETATM   11  C   UNL     1     -10.082   8.858  66.087  1.00  0.00    -0.209 C  
HETATM   12  C   UNL     1      -9.182  15.319  67.479  1.00  0.00    -0.202 C  
HETATM   13  C   UNL     1      -8.133  11.282  66.333  1.00  0.00    -0.138 C  
HETATM   14  C   UNL     1      -8.295  15.944  68.550  1.00  0.00    -0.182 C  
HETATM   15  C   UNL     1      -8.087  12.805  67.080  1.00  0.00    -0.129 C  
HETATM   16  C   UNL     1      -8.601  17.163  69.060  1.00  0.00    -0.101 C  
HETATM   17  O   UNL     1     -10.147  18.993  69.145  1.00  0.00    -0.374 OA 
HETATM   18  C   UNL     1      -9.855  17.911  68.658  1.00  0.00    -0.374 C  
HETATM   19  C   UNL     1     -10.702  17.283  67.580  1.00  0.00    -0.278 C  
HETATM   20  O   UNL     1      -7.428  12.674  68.344  1.00  0.00    -0.115 OA 
HETATM   21  C   UNL     1      -9.421  13.766  67.227  1.00  0.00    -0.236 C  
HETATM   22  C   UNL     1     -10.547  12.983  68.089  1.00  0.00    -0.257 C  
HETATM   23  F   UNL     1     -10.011  13.930  65.957  1.00  0.00    -0.277 F  
HETATM   24  H   UNL     1      -7.402  13.526  68.763  1.00  0.00     0.000 HD 
HETATM   25  C   UNL     1     -11.780  13.864  68.350  1.00  0.00    -0.391 C  
ENDROOT
BRANCH   4  26
HETATM   26  C   UNL     1      -8.309   9.752  68.375  1.00  0.00    -0.110 C  
HETATM   27  O   UNL     1      -7.757   8.817  67.796  1.00  0.00    -0.099 OA 
BRANCH  26  28
HETATM   28  S   UNL     1      -7.655  10.281  69.943  1.00  0.00    -0.091 SA 
HETATM   29  F   UNL     1      -7.112   8.720  71.954  1.00  0.00    -0.097 F  
HETATM   30  C   UNL     1      -7.278   8.626  70.605  1.00  0.00    -0.058 C  
ENDBRANCH  26  28
ENDBRANCH   4  26
BRANCH   4  31
HETATM   31  O   UNL     1     -10.691   9.667  68.741  1.00  0.00    -0.221 OA 
BRANCH  31  32
HETATM   32  C   UNL     1     -11.055   9.758  70.047  1.00  0.00    -0.267 C  
HETATM   33  O   UNL     1     -11.391  10.781  70.614  1.00  0.00    -0.298 OA 
BRANCH  32  34
HETATM   34  C   UNL     1     -11.043   8.403  70.708  1.00  0.00    -0.286 C  
HETATM   35  C   UNL     1     -10.648   8.532  72.173  1.00  0.00    -0.419 C  
ENDBRANCH  32  34
ENDBRANCH  31  32
ENDBRANCH   4  31
TORSDOF 5
ENDMDL
MODEL       14
REMARK 921   NORMALIZED FREE ENERGY PREDICTED BY IDOCK:   -6.02 KCAL/MOL
REMARK 922        TOTAL FREE ENERGY PREDICTED BY IDOCK:   -6.71 KCAL/MOL
REMARK 923 INTER-LIGAND FREE ENERGY PREDICTED BY IDOCK:   -7.45 KCAL/MOL
REMARK 924 INTRA-LIGAND FREE ENERGY PREDICTED BY IDOCK:    0.75 KCAL/MOL
REMARK 927      BINDING AFFINITY PREDICTED BY RF-SCORE:    0.00 PKD
ROOT
HETATM    1  C   UNL     1     -11.203  14.549  67.366  1.00  0.00    -0.337 C  
HETATM    2  C   UNL     1     -12.233  13.838  68.048  1.00  0.00    -0.179 C  
HETATM    3  C   UNL     1     -10.962  14.166  68.724  1.00  0.00    -0.275 C  
HETATM    4  C   UNL     1      -9.907  15.689  67.783  1.00  0.00    -0.220 C  
HETATM    5  C   UNL     1     -11.323  13.643  70.324  1.00  0.00     0.085 C  
HETATM    6  C   UNL     1      -9.754  10.640  65.588  1.00  0.00    -0.283 C  
HETATM    7  F   UNL     1     -11.171  11.117  63.747  1.00  0.00    -0.446 F  
HETATM    8  C   UNL     1     -10.348  15.322  69.004  1.00  0.00    -0.242 C  
HETATM    9  C   UNL     1      -8.403  10.128  67.711  1.00  0.00    -0.114 C  
HETATM   10  C   UNL     1     -10.309  11.682  64.639  1.00  0.00    -0.292 C  
HETATM   11  C   UNL     1     -11.161  16.386  69.853  1.00  0.00    -0.313 C  
HETATM   12  C   UNL     1      -8.653  11.166  66.544  1.00  0.00    -0.169 C  
HETATM   13  C   UNL     1      -8.808  14.380  69.434  1.00  0.00     0.304 C  
HETATM   14  C   UNL     1      -7.374  11.091  65.719  1.00  0.00     0.084 C  
HETATM   15  C   UNL     1      -8.240  13.319  68.237  1.00  0.00    -0.156 C  
HETATM   16  C   UNL     1      -7.265  10.190  64.711  1.00  0.00    -0.130 C  
HETATM   17  O   UNL     1      -8.327   8.503  63.380  1.00  0.00    -0.163 OA 
HETATM   18  C   UNL     1      -8.415   9.290  64.311  1.00  0.00    -0.190 C  
HETATM   19  C   UNL     1      -9.661   9.365  65.157  1.00  0.00    -0.195 C  
HETATM   20  O   UNL     1      -7.255  14.001  67.453  1.00  0.00    -0.225 OA 
HETATM   21  C   UNL     1      -9.252  12.454  67.261  1.00  0.00    -0.187 C  
HETATM   22  C   UNL     1     -10.178  13.479  66.414  1.00  0.00    -0.291 C  
HETATM   23  F   UNL     1     -10.167  11.743  68.062  1.00  0.00    -0.175 F  
HETATM   24  H   UNL     1      -6.938  13.408  66.783  1.00  0.00     0.000 HD 
HETATM   25  C   UNL     1     -11.074  12.739  65.408  1.00  0.00    -0.317 C  
ENDROOT
BRANCH   4  26
HETATM   26  C   UNL     1      -8.624  16.621  68.215  1.00  0.00    -0.212 C  
HETATM   27  O   UNL     1      -8.486  17.277  69.247  1.00  0.00    -0.039 OA 
BRANCH  26  28
HETATM   28  S   UNL     1      -7.391  16.781  66.941  1.00  0.00    -0.248 SA 
HETATM   29  F   UNL     1      -5.798  18.816  66.632  1.00  0.00    -0.153 F  
HETATM   30  C   UNL     1      -6.554  18.251  67.615  1.00  0.00    -0.199 C  
ENDBRANCH  26  28
ENDBRANCH   4  26
BRANCH   4  31
HETATM   31  O   UNL     1     -10.740  16.750  67.067  1.00  0.00    -0.270 OA 
BRANCH  31  32
HETATM   32  C   UNL     1     -10.579  17.290  65.830  1.00  0.00    -0.204 C  
HETATM   33  O   UNL     1     -10.539  16.661  64.789  1.00  0.00    -0.685 OA 
BRANCH  32  34
HETATM   34  C   UNL     1     -10.505  18.794  65.901  1.00  0.00    -0.424 C  
HETATM   35  C   UNL     1     -10.741  19.268  67.329  1.00  0.00    -0.594 C  
ENDBRANCH  32  34
ENDBRANCH  31  32
ENDBRANCH   4  31
TORSDOF 5
ENDMDL
MODEL       15
REMARK 921   NORMALIZED FREE ENERGY PREDICTED BY IDOCK:   -5.80 KCAL/MOL
REMARK 922        TOTAL FREE ENERGY PREDICTED BY IDOCK:   -6.43 KCAL/MOL
REMARK 923 INTER-LIGAND FREE ENERGY PREDICTED BY IDOCK:   -7.43 KCAL/MOL
REMARK 924 INTRA-LIGAND FREE ENERGY PREDICTED BY IDOCK:    1.00 KCAL/MOL
REMARK 927      BINDING AFFINITY PREDICTED BY RF-SCORE:    0.00 PKD
ROOT
HETATM    1  C   UNL     1     -10.631   8.260  68.712  1.00  0.00    -0.152 C  
HETATM    2  C   UNL     1     -10.679   7.628  67.435  1.00  0.00    -0.318 C  
HETATM    3  C   UNL     1      -9.440   7.623  68.237  1.00  0.00    -0.148 C  
HETATM    4  C   UNL     1      -9.768   8.035  70.247  1.00  0.00    -0.175 C  
HETATM    5  C   UNL     1      -8.458   6.587  67.275  1.00  0.00    -0.112 C  
HETATM    6  C   UNL     1      -9.806  12.219  66.666  1.00  0.00    -0.230 C  
HETATM    7  F   UNL     1     -12.154  12.559  66.693  1.00  0.00    -0.450 F  
HETATM    8  C   UNL     1      -9.139   7.145  69.451  1.00  0.00    -0.145 C  
HETATM    9  C   UNL     1      -7.303  11.666  66.515  1.00  0.00     0.044 C  
HETATM   10  C   UNL     1     -11.110  12.077  67.424  1.00  0.00    -0.281 C  
HETATM   11  C   UNL     1      -9.401   5.602  69.707  1.00  0.00    -0.176 C  
HETATM   12  C   UNL     1      -8.546  11.832  67.480  1.00  0.00    -0.157 C  
HETATM   13  C   UNL     1      -7.544   8.093  69.410  1.00  0.00    -0.101 C  
HETATM   14  C   UNL     1      -8.214  13.087  68.278  1.00  0.00    -0.150 C  
HETATM   15  C   UNL     1      -7.688   9.756  69.101  1.00  0.00    -0.092 C  
HETATM   16  C   UNL     1      -8.585  14.307  67.813  1.00  0.00    -0.177 C  
HETATM   17  O   UNL     1      -9.764  15.568  66.150  1.00  0.00    -0.270 OA 
HETATM   18  C   UNL     1      -9.401  14.471  66.548  1.00  0.00    -0.284 C  
HETATM   19  C   UNL     1      -9.695  13.216  65.764  1.00  0.00    -0.151 C  
HETATM   20  O   UNL     1      -7.732  10.451  70.352  1.00  0.00    -0.442 OA 
HETATM   21  C   UNL     1      -8.811  10.374  68.061  1.00  0.00    -0.130 C  
HETATM   22  C   UNL     1     -10.293   9.983  68.587  1.00  0.00    -0.211 C  
HETATM   23  F   UNL     1      -8.699   9.717  66.820  1.00  0.00    -0.129 F  
HETATM   24  H   UNL     1      -7.813  11.381  70.179  1.00  0.00     0.000 HD 
HETATM   25  C   UNL     1     -11.391  10.617  67.717  1.00  0.00    -0.320 C  
ENDROOT
BRANCH   4  26
HETATM   26  C   UNL     1      -8.848   7.899  71.603  1.00  0.00    -0.131 C  
HETATM   27  O   UNL     1      -8.479   8.801  72.354  1.00  0.00    -0.393 OA 
BRANCH  26  28
HETATM   28  S   UNL     1      -8.217   6.257  71.880  1.00  0.00    -0.109 SA 
HETATM   29  F   UNL     1      -8.139   5.041  74.179  1.00  0.00    -0.098 F  
HETATM   30  C   UNL     1      -8.813   6.068  73.590  1.00  0.00    -0.124 C  
ENDBRANCH  26  28
ENDBRANCH   4  26
BRANCH   4  31
HETATM   31  O   UNL     1     -11.107   7.581  70.824  1.00  0.00    -0.254 OA 
BRANCH  31  32
HETATM   32  C   UNL     1     -11.816   8.083  71.868  1.00  0.00    -0.307 C  
HETATM   33  O   UNL     1     -11.525   7.954  73.042  1.00  0.00    -0.383 OA 
BRANCH  32  34
HETATM   34  C   UNL     1     -13.002   8.878  71.385  1.00  0.00    -0.323 C  
HETATM   35  C   UNL     1     -12.684  10.367  71.404  1.00  0.00    -0.551 C  
ENDBRANCH  32  34
ENDBRANCH  31  32
ENDBRANCH   4  31
TORSDOF 5
ENDMDL
MODEL       16
REMARK 921   NORMALIZED FREE ENERGY PREDICTED BY IDOCK:   -5.72 KCAL/MOL
REMARK 922        TOTAL FREE ENERGY PREDICTED BY IDOCK:   -6.32 KCAL/MOL
REMARK 923 INTER-LIGAND FREE ENERGY PREDICTED BY IDOCK:   -7.48 KCAL/MOL
REMARK 924 INTRA-LIGAND FREE ENERGY PREDICTED BY IDOCK:    1.16 KCAL/MOL
REMARK 927      BINDING AFFINITY PREDICTED BY RF-SCORE:    0.00 PKD
ROOT
HETATM    1  C   UNL     1      -9.792  16.745  66.708  1.00  0.00    -0.282 C  
HETATM    2  C   UNL     1     -11.137  16.749  67.180  1.00  0.00     0.123 C  
HETATM    3  C   UNL     1     -10.006  16.599  68.116  1.00  0.00    -0.259 C  
HETATM    4  C   UNL     1      -8.195  17.229  67.315  1.00  0.00    -0.196 C  
HETATM    5  C   UNL     1     -10.843  16.660  69.619  1.00  0.00    -0.282 C  
HETATM    6  C   UNL     1     -10.182  12.324  65.788  1.00  0.00    -0.281 C  
HETATM    7  F   UNL     1     -10.843  12.983  63.608  1.00  0.00    -0.403 F  
HETATM    8  C   UNL     1      -8.959  17.379  68.417  1.00  0.00    -0.277 C  
HETATM    9  C   UNL     1      -9.641  11.728  68.227  1.00  0.00    -0.199 C  
HETATM   10  C   UNL     1      -9.981  13.271  64.623  1.00  0.00    -0.114 C  
HETATM   11  C   UNL     1      -9.272  18.852  68.912  1.00  0.00    -0.307 C  
HETATM   12  C   UNL     1      -9.145  12.484  66.929  1.00  0.00    -0.213 C  
HETATM   13  C   UNL     1      -8.183  15.957  69.322  1.00  0.00    -0.227 C  
HETATM   14  C   UNL     1      -7.950  11.658  66.468  1.00  0.00    -0.053 C  
HETATM   15  C   UNL     1      -8.018  14.522  68.429  1.00  0.00    -0.141 C  
HETATM   16  C   UNL     1      -8.131  10.612  65.624  1.00  0.00    -0.146 C  
HETATM   17  O   UNL     1      -9.643   9.350  64.257  1.00  0.00     0.059 OA 
HETATM   18  C   UNL     1      -9.488  10.272  65.045  1.00  0.00    -0.257 C  
HETATM   19  C   UNL     1     -10.658  11.088  65.535  1.00  0.00    -0.267 C  
HETATM   20  O   UNL     1      -6.708  14.492  67.851  1.00  0.00    -0.132 OA 
HETATM   21  C   UNL     1      -9.142  14.025  67.328  1.00  0.00    -0.220 C  
HETATM   22  C   UNL     1      -9.283  15.148  66.169  1.00  0.00    -0.318 C  
HETATM   23  F   UNL     1     -10.410  14.002  67.943  1.00  0.00    -0.226 F  
HETATM   24  H   UNL     1      -6.616  13.690  67.351  1.00  0.00     0.000 HD 
HETATM   25  C   UNL     1     -10.243  14.699  65.054  1.00  0.00    -0.395 C  
ENDROOT
BRANCH   4  26
HETATM   26  C   UNL     1      -6.714  17.543  67.955  1.00  0.00    -0.181 C  
HETATM   27  O   UNL     1      -5.657  16.956  67.726  1.00  0.00    -0.112 OA 
BRANCH  26  28
HETATM   28  S   UNL     1      -6.732  18.785  69.230  1.00  0.00    -0.224 SA 
HETATM   29  F   UNL     1      -5.572  18.580  71.551  1.00  0.00    -0.245 F  
HETATM   30  C   UNL     1      -5.480  18.023  70.311  1.00  0.00    -0.253 C  
ENDBRANCH  26  28
ENDBRANCH   4  26
BRANCH   4  31
HETATM   31  O   UNL     1      -8.261  18.369  66.301  1.00  0.00    -0.349 OA 
BRANCH  31  32
HETATM   32  C   UNL     1      -7.255  19.005  65.644  1.00  0.00    -0.172 C  
HETATM   33  O   UNL     1      -6.493  18.482  64.853  1.00  0.00    -0.469 OA 
BRANCH  32  34
HETATM   34  C   UNL     1      -7.232  20.474  65.981  1.00  0.00    -0.174 C  
HETATM   35  C   UNL     1      -5.802  20.998  65.963  1.00  0.00    -0.289 C  
ENDBRANCH  32  34
ENDBRANCH  31  32
ENDBRANCH   4  31
TORSDOF 5
ENDMDL
MODEL       17
REMARK 921   NORMALIZED FREE ENERGY PREDICTED BY IDOCK:   -5.71 KCAL/MOL
REMARK 922        TOTAL FREE ENERGY PREDICTED BY IDOCK:   -6.32 KCAL/MOL
REMARK 923 INTER-LIGAND FREE ENERGY PREDICTED BY IDOCK:   -7.38 KCAL/MOL
REMARK 924 INTRA-LIGAND FREE ENERGY PREDICTED BY IDOCK:    1.07 KCAL/MOL
REMARK 927      BINDING AFFINITY PREDICTED BY RF-SCORE:    0.00 PKD
ROOT
HETATM    1  C   UNL     1      -9.465  12.997  66.571  1.00  0.00    -0.246 C  
HETATM    2  C   UNL     1      -9.791  12.781  65.200  1.00  0.00    -0.097 C  
HETATM    3  C   UNL     1     -10.821  12.667  66.251  1.00  0.00    -0.300 C  
HETATM    4  C   UNL     1     -10.281  13.604  68.026  1.00  0.00    -0.248 C  
HETATM    5  C   UNL     1     -12.227  12.453  65.280  1.00  0.00    -0.418 C  
HETATM    6  C   UNL     1      -8.070   8.695  66.864  1.00  0.00    -0.098 C  
HETATM    7  F   UNL     1      -5.909   9.509  66.321  1.00  0.00    -0.053 F  
HETATM    8  C   UNL     1     -11.307  13.531  67.151  1.00  0.00    -0.346 C  
HETATM    9  C   UNL     1     -10.480   7.898  67.257  1.00  0.00    -0.390 C  
HETATM   10  C   UNL     1      -7.033   9.785  67.041  1.00  0.00    -0.085 C  
HETATM   11  C   UNL     1     -11.912  14.889  66.600  1.00  0.00    -0.094 C  
HETATM   12  C   UNL     1      -9.323   8.852  67.762  1.00  0.00    -0.157 C  
HETATM   13  C   UNL     1     -12.140  12.123  68.027  1.00  0.00    -0.043 C  
HETATM   14  C   UNL     1      -8.910   8.238  69.094  1.00  0.00    -0.143 C  
HETATM   15  C   UNL     1     -11.131  10.831  68.464  1.00  0.00    -0.262 C  
HETATM   16  C   UNL     1      -7.950   7.280  69.133  1.00  0.00    -0.119 C  
HETATM   17  O   UNL     1      -6.313   6.003  67.935  1.00  0.00    -0.034 OA 
HETATM   18  C   UNL     1      -7.202   6.841  67.893  1.00  0.00    -0.091 C  
HETATM   19  C   UNL     1      -7.646   7.446  66.584  1.00  0.00    -0.100 C  
HETATM   20  O   UNL     1     -10.693  11.029  69.813  1.00  0.00    -0.417 OA 
HETATM   21  C   UNL     1      -9.873  10.326  67.521  1.00  0.00    -0.173 C  
HETATM   22  C   UNL     1      -8.825  11.547  67.336  1.00  0.00    -0.157 C  
HETATM   23  F   UNL     1     -10.347  10.077  66.218  1.00  0.00    -0.287 F  
HETATM   24  H   UNL     1     -10.128  10.306  70.057  1.00  0.00     0.000 HD 
HETATM   25  C   UNL     1      -7.576  11.111  66.551  1.00  0.00    -0.135 C  
ENDROOT
BRANCH   4  26
HETATM   26  C   UNL     1     -11.102  14.024  69.387  1.00  0.00    -0.203 C  
HETATM   27  O   UNL     1     -11.966  13.374  69.974  1.00  0.00    -0.322 OA 
BRANCH  26  28
HETATM   28  S   UNL     1     -10.767  15.682  69.943  1.00  0.00    -0.344 SA 
HETATM   29  F   UNL     1     -11.736  16.773  72.099  1.00  0.00    -0.546 F  
HETATM   30  C   UNL     1     -11.518  15.526  71.595  1.00  0.00    -0.423 C  
ENDBRANCH  26  28
ENDBRANCH   4  26
BRANCH   4  31
HETATM   31  O   UNL     1      -9.386  14.834  67.899  1.00  0.00    -0.188 OA 
BRANCH  31  32
HETATM   32  C   UNL     1      -8.066  14.979  68.188  1.00  0.00    -0.131 C  
HETATM   33  O   UNL     1      -7.466  14.373  69.056  1.00  0.00    -0.126 OA 
BRANCH  32  34
HETATM   34  C   UNL     1      -7.412  15.963  67.252  1.00  0.00    -0.244 C  
HETATM   35  C   UNL     1      -8.445  16.560  66.306  1.00  0.00    -0.363 C  
ENDBRANCH  32  34
ENDBRANCH  31  32
ENDBRANCH   4  31
TORSDOF 5
ENDMDL
MODEL       18
REMARK 921   NORMALIZED FREE ENERGY PREDICTED BY IDOCK:   -5.68 KCAL/MOL
REMARK 922        TOTAL FREE ENERGY PREDICTED BY IDOCK:   -6.27 KCAL/MOL
REMARK 923 INTER-LIGAND FREE ENERGY PREDICTED BY IDOCK:   -7.04 KCAL/MOL
REMARK 924 INTRA-LIGAND FREE ENERGY PREDICTED BY IDOCK:    0.77 KCAL/MOL
REMARK 927      BINDING AFFINITY PREDICTED BY RF-SCORE:    0.00 PKD
ROOT
HETATM    1  C   UNL     1     -10.605   7.448  70.348  1.00  0.00    -0.238 C  
HETATM    2  C   UNL     1     -11.757   6.941  69.680  1.00  0.00    -0.076 C  
HETATM    3  C   UNL     1     -10.413   6.795  69.089  1.00  0.00    -0.240 C  
HETATM    4  C   UNL     1      -8.882   7.035  70.474  1.00  0.00    -0.154 C  
HETATM    5  C   UNL     1     -10.782   5.801  67.732  1.00  0.00    -0.306 C  
HETATM    6  C   UNL     1     -11.423  11.530  68.557  1.00  0.00    -0.354 C  
HETATM    7  F   UNL     1     -12.653  11.992  70.531  1.00  0.00    -0.343 F  
HETATM    8  C   UNL     1      -9.293   6.190  69.505  1.00  0.00    -0.147 C  
HETATM    9  C   UNL     1     -10.232  10.859  66.382  1.00  0.00    -0.289 C  
HETATM   10  C   UNL     1     -11.525  11.389  70.061  1.00  0.00    -0.247 C  
HETATM   11  C   UNL     1      -9.390   4.647  69.855  1.00  0.00    -0.214 C  
HETATM   12  C   UNL     1     -10.098  11.001  67.952  1.00  0.00    -0.199 C  
HETATM   13  C   UNL     1      -8.349   7.050  68.158  1.00  0.00    -0.123 C  
HETATM   14  C   UNL     1      -9.119  12.157  68.124  1.00  0.00    -0.196 C  
HETATM   15  C   UNL     1      -8.505   8.740  68.118  1.00  0.00    -0.130 C  
HETATM   16  C   UNL     1      -9.577  13.433  68.185  1.00  0.00    -0.222 C  
HETATM   17  O   UNL     1     -11.467  14.905  68.258  1.00  0.00    -0.297 OA 
HETATM   18  C   UNL     1     -11.055  13.757  68.167  1.00  0.00    -0.259 C  
HETATM   19  C   UNL     1     -12.002  12.599  67.972  1.00  0.00    -0.300 C  
HETATM   20  O   UNL     1      -7.418   9.317  68.850  1.00  0.00    -0.073 OA 
HETATM   21  C   UNL     1      -9.917   9.512  68.485  1.00  0.00    -0.167 C  
HETATM   22  C   UNL     1     -10.338   9.155  70.008  1.00  0.00    -0.231 C  
HETATM   23  F   UNL     1     -10.955   8.968  67.703  1.00  0.00    -0.306 F  
HETATM   24  H   UNL     1      -7.506  10.262  68.827  1.00  0.00     0.000 HD 
HETATM   25  C   UNL     1     -11.593   9.925  70.448  1.00  0.00    -0.356 C  
ENDROOT
BRANCH   4  26
HETATM   26  C   UNL     1      -7.268   6.724  70.454  1.00  0.00    -0.076 C  
HETATM   27  O   UNL     1      -6.710   5.675  70.134  1.00  0.00    -0.044 OA 
BRANCH  26  28
HETATM   28  S   UNL     1      -6.275   8.041  71.122  1.00  0.00    -0.035 SA 
HETATM   29  F   UNL     1      -5.459   8.210  73.588  1.00  0.00    -0.047 F  
HETATM   30  C   UNL     1      -5.899   7.255  72.722  1.00  0.00    -0.041 C  
ENDBRANCH  26  28
ENDBRANCH   4  26
BRANCH   4  31
HETATM   31  O   UNL     1      -9.189   6.602  71.906  1.00  0.00    -0.148 OA 
BRANCH  31  32
HETATM   32  C   UNL     1      -9.454   7.359  73.002  1.00  0.00    -0.186 C  
HETATM   33  O   UNL     1      -9.098   8.512  73.163  1.00  0.00    -0.257 OA 
BRANCH  32  34
HETATM   34  C   UNL     1     -10.302   6.602  73.992  1.00  0.00    -0.377 C  
HETATM   35  C   UNL     1     -10.979   5.419  73.312  1.00  0.00    -0.358 C  
ENDBRANCH  32  34
ENDBRANCH  31  32
ENDBRANCH   4  31
TORSDOF 5
ENDMDL
MODEL       19
REMARK 921   NORMALIZED FREE ENERGY PREDICTED BY IDOCK:   -5.67 KCAL/MOL
REMARK 922        TOTAL FREE ENERGY PREDICTED BY IDOCK:   -6.25 KCAL/MOL
REMARK 923 INTER-LIGAND FREE ENERGY PREDICTED BY IDOCK:   -7.27 KCAL/MOL
REMARK 924 INTRA-LIGAND FREE ENERGY PREDICTED BY IDOCK:    1.01 KCAL/MOL
REMARK 927      BINDING AFFINITY PREDICTED BY RF-SCORE:    0.00 PKD
ROOT
HETATM    1  C   UNL     1      -7.946  10.292  67.595  1.00  0.00    -0.102 C  
HETATM    2  C   UNL     1      -7.154   9.201  67.131  1.00  0.00    -0.082 C  
HETATM    3  C   UNL     1      -8.501   9.448  66.581  1.00  0.00    -0.130 C  
HETATM    4  C   UNL     1      -9.187  11.377  66.936  1.00  0.00    -0.176 C  
HETATM    5  C   UNL     1      -8.535   8.277  65.319  1.00  0.00    -0.179 C  
HETATM    6  C   UNL     1      -9.353   7.728  71.058  1.00  0.00    -0.160 C  
HETATM    7  F   UNL     1      -7.543   8.645  72.286  1.00  0.00    -0.144 F  
HETATM    8  C   UNL     1      -9.048  10.484  65.933  1.00  0.00    -0.192 C  
HETATM    9  C   UNL     1     -11.162   6.657  69.583  1.00  0.00    -0.397 C  
HETATM   10  C   UNL     1      -8.515   8.948  71.381  1.00  0.00    -0.153 C  
HETATM   11  C   UNL     1      -8.334  10.964  64.602  1.00  0.00     0.119 C  
HETATM   12  C   UNL     1     -10.575   8.013  70.148  1.00  0.00    -0.237 C  
HETATM   13  C   UNL     1     -10.726   9.731  66.182  1.00  0.00     0.115 C  
HETATM   14  C   UNL     1     -11.654   8.496  71.110  1.00  0.00    -0.325 C  
HETATM   15  C   UNL     1     -11.128   9.351  67.786  1.00  0.00     0.094 C  
HETATM   16  C   UNL     1     -11.634   8.104  72.409  1.00  0.00    -0.463 C  
HETATM   17  O   UNL     1     -10.481   6.929  74.152  1.00  0.00    -0.357 OA 
HETATM   18  C   UNL     1     -10.517   7.252  72.973  1.00  0.00    -0.310 C  
HETATM   19  C   UNL     1      -9.474   6.767  71.997  1.00  0.00    -0.144 C  
HETATM   20  O   UNL     1     -11.858  10.448  68.347  1.00  0.00    -0.723 OA 
HETATM   21  C   UNL     1     -10.021   8.784  68.872  1.00  0.00    -0.192 C  
HETATM   22  C   UNL     1      -8.845   9.884  69.053  1.00  0.00    -0.156 C  
HETATM   23  F   UNL     1      -9.366   7.666  68.318  1.00  0.00    -0.144 F  
HETATM   24  H   UNL     1     -12.082  10.235  69.244  1.00  0.00     0.000 HD 
HETATM   25  C   UNL     1      -7.832   9.462  70.130  1.00  0.00    -0.148 C  
ENDROOT
BRANCH   4  26
HETATM   26  C   UNL     1     -10.438  12.267  66.349  1.00  0.00    -0.236 C  
HETATM   27  O   UNL     1     -11.372  12.759  66.981  1.00  0.00    -0.281 OA 
BRANCH  26  28
HETATM   28  S   UNL     1     -10.473  12.371  64.572  1.00  0.00    -0.343 SA 
HETATM   29  F   UNL     1     -12.610  12.208  63.094  1.00  0.00    -0.621 F  
HETATM   30  C   UNL     1     -12.280  12.495  64.385  1.00  0.00    -0.449 C  
ENDBRANCH  26  28
ENDBRANCH   4  26
BRANCH   4  31
HETATM   31  O   UNL     1      -8.126  12.473  67.000  1.00  0.00    -0.169 OA 
BRANCH  31  32
HETATM   32  C   UNL     1      -8.250  13.781  67.345  1.00  0.00    -0.184 C  
HETATM   33  O   UNL     1      -8.607  14.674  66.599  1.00  0.00    -0.208 OA 
BRANCH  32  34
HETATM   34  C   UNL     1      -7.937  13.989  68.805  1.00  0.00    -0.081 C  
HETATM   35  C   UNL     1      -6.528  13.504  69.117  1.00  0.00    -0.108 C  
ENDBRANCH  32  34
ENDBRANCH  31  32
ENDBRANCH   4  31
TORSDOF 5
ENDMDL
MODEL       20
REMARK 921   NORMALIZED FREE ENERGY PREDICTED BY IDOCK:   -5.66 KCAL/MOL
REMARK 922        TOTAL FREE ENERGY PREDICTED BY IDOCK:   -6.25 KCAL/MOL
REMARK 923 INTER-LIGAND FREE ENERGY PREDICTED BY IDOCK:   -7.11 KCAL/MOL
REMARK 924 INTRA-LIGAND FREE ENERGY PREDICTED BY IDOCK:    0.86 KCAL/MOL
REMARK 927      BINDING AFFINITY PREDICTED BY RF-SCORE:    0.00 PKD
ROOT
HETATM    1  C   UNL     1      -9.541  13.011  65.755  1.00  0.00    -0.073 C  
HETATM    2  C   UNL     1      -9.902  12.270  64.592  1.00  0.00    -0.126 C  
HETATM    3  C   UNL     1     -10.926  12.703  65.564  1.00  0.00    -0.313 C  
HETATM    4  C   UNL     1     -10.278  14.244  66.798  1.00  0.00    -0.272 C  
HETATM    5  C   UNL     1     -12.357  12.231  64.730  1.00  0.00    -0.416 C  
HETATM    6  C   UNL     1      -8.560   9.121  67.865  1.00  0.00    -0.121 C  
HETATM    7  F   UNL     1      -6.338   9.430  67.095  1.00  0.00    -0.061 F  
HETATM    8  C   UNL     1     -11.316  13.906  66.004  1.00  0.00    -0.324 C  
HETATM    9  C   UNL     1     -11.031   8.787  68.484  1.00  0.00     0.096 C  
HETATM   10  C   UNL     1      -7.422  10.084  67.600  1.00  0.00    -0.090 C  
HETATM   11  C   UNL     1     -11.795  14.956  64.917  1.00  0.00    -0.337 C  
HETATM   12  C   UNL     1      -9.782   9.754  68.577  1.00  0.00    -0.164 C  
HETATM   13  C   UNL     1     -12.271  13.078  67.364  1.00  0.00    -0.155 C  
HETATM   14  C   UNL     1      -9.414   9.721  70.055  1.00  0.00    -0.278 C  
HETATM   15  C   UNL     1     -11.384  12.002  68.332  1.00  0.00    -0.279 C  
HETATM   16  C   UNL     1      -8.550   8.784  70.521  1.00  0.00    -0.187 C  
HETATM   17  O   UNL     1      -7.056   6.979  70.016  1.00  0.00    -0.067 OA 
HETATM   18  C   UNL     1      -7.861   7.799  69.600  1.00  0.00    -0.107 C  
HETATM   19  C   UNL     1      -8.261   7.836  68.146  1.00  0.00    -0.124 C  
HETATM   20  O   UNL     1     -10.914  12.707  69.486  1.00  0.00    -0.447 OA 
HETATM   21  C   UNL     1     -10.191  11.035  67.725  1.00  0.00    -0.183 C  
HETATM   22  C   UNL     1      -9.033  11.964  67.077  1.00  0.00    -0.190 C  
HETATM   23  F   UNL     1     -10.702  10.306  66.632  1.00  0.00    -0.296 F  
HETATM   24  H   UNL     1     -10.417  12.104  70.027  1.00  0.00     0.000 HD 
HETATM   25  C   UNL     1      -7.841  11.127  66.584  1.00  0.00    -0.155 C  
ENDROOT
BRANCH   4  26
HETATM   26  C   UNL     1     -11.039  15.270  67.833  1.00  0.00    -0.321 C  
HETATM   27  O   UNL     1     -12.013  15.985  67.601  1.00  0.00     0.216 OA 
BRANCH  26  28
HETATM   28  S   UNL     1     -10.224  15.436  69.407  1.00  0.00    -0.277 SA 
HETATM   29  F   UNL     1     -11.286  16.455  71.554  1.00  0.00    -0.409 F  
HETATM   30  C   UNL     1     -11.694  15.900  70.378  1.00  0.00    -0.354 C  
ENDBRANCH  26  28
ENDBRANCH   4  26
BRANCH   4  31
HETATM   31  O   UNL     1      -9.271  15.220  66.195  1.00  0.00    -0.298 OA 
BRANCH  31  32
HETATM   32  C   UNL     1      -8.179  15.799  66.760  1.00  0.00    -0.267 C  
HETATM   33  O   UNL     1      -7.350  15.222  67.438  1.00  0.00    -0.183 OA 
BRANCH  32  34
HETATM   34  C   UNL     1      -8.090  17.258  66.394  1.00  0.00    -0.328 C  
HETATM   35  C   UNL     1      -7.526  18.062  67.558  1.00  0.00    -0.217 C  
ENDBRANCH  32  34
ENDBRANCH  31  32
ENDBRANCH   4  31
TORSDOF 5
ENDMDL
MODEL       21
REMARK 921   NORMALIZED FREE ENERGY PREDICTED BY IDOCK:   -5.54 KCAL/MOL
REMARK 922        TOTAL FREE ENERGY PREDICTED BY IDOCK:   -6.09 KCAL/MOL
REMARK 923 INTER-LIGAND FREE ENERGY PREDICTED BY IDOCK:   -7.23 KCAL/MOL
REMARK 924 INTRA-LIGAND FREE ENERGY PREDICTED BY IDOCK:    1.14 KCAL/MOL
REMARK 927      BINDING AFFINITY PREDICTED BY RF-SCORE:    0.00 PKD
ROOT
HETATM    1  C   UNL     1      -8.416  11.244  67.354  1.00  0.00    -0.137 C  
HETATM    2  C   UNL     1      -9.049  10.939  68.594  1.00  0.00    -0.175 C  
HETATM    3  C   UNL     1      -9.829  11.019  67.343  1.00  0.00    -0.197 C  
HETATM    4  C   UNL     1      -8.653  10.859  65.637  1.00  0.00    -0.160 C  
HETATM    5  C   UNL     1     -11.366  10.485  67.907  1.00  0.00    -0.297 C  
HETATM    6  C   UNL     1      -8.726  15.658  68.339  1.00  0.00    -0.178 C  
HETATM    7  F   UNL     1      -6.561  15.452  69.285  1.00  0.00    -0.113 F  
HETATM    8  C   UNL     1      -9.774  10.345  66.187  1.00  0.00    -0.262 C  
HETATM    9  C   UNL     1     -11.139  15.725  67.462  1.00  0.00    -0.258 C  
HETATM   10  C   UNL     1      -7.340  15.054  68.241  1.00  0.00    -0.111 C  
HETATM   11  C   UNL     1      -9.911   8.767  66.261  1.00  0.00    -0.342 C  
HETATM   12  C   UNL     1      -9.635  15.377  67.116  1.00  0.00    -0.218 C  
HETATM   13  C   UNL     1     -10.899  11.605  65.419  1.00  0.00    -0.336 C  
HETATM   14  C   UNL     1      -9.244  16.449  66.105  1.00  0.00    -0.365 C  
HETATM   15  C   UNL     1     -10.392  13.219  65.552  1.00  0.00    -0.291 C  
HETATM   16  C   UNL     1      -8.730  17.630  66.529  1.00  0.00    -0.289 C  
HETATM   17  O   UNL     1      -7.953  18.956  68.369  1.00  0.00    -0.313 OA 
HETATM   18  C   UNL     1      -8.449  17.905  67.992  1.00  0.00    -0.256 C  
HETATM   19  C   UNL     1      -8.867  16.839  68.974  1.00  0.00    -0.181 C  
HETATM   20  O   UNL     1      -9.668  13.569  64.368  1.00  0.00    -0.634 OA 
HETATM   21  C   UNL     1      -9.619  13.802  66.890  1.00  0.00    -0.262 C  
HETATM   22  C   UNL     1      -8.241  12.979  67.107  1.00  0.00    -0.132 C  
HETATM   23  F   UNL     1     -10.387  13.500  68.032  1.00  0.00    -0.218 F  
HETATM   24  H   UNL     1      -9.384  14.472  64.443  1.00  0.00     0.000 HD 
HETATM   25  C   UNL     1      -7.421  13.542  68.280  1.00  0.00    -0.122 C  
ENDROOT
BRANCH   4  26
HETATM   26  C   UNL     1      -8.984  10.612  64.046  1.00  0.00    -0.196 C  
HETATM   27  O   UNL     1     -10.079  10.667  63.489  1.00  0.00    -0.323 OA 
BRANCH  26  28
HETATM   28  S   UNL     1      -7.581  10.058  63.099  1.00  0.00    -0.144 SA 
HETATM   29  F   UNL     1      -7.120   7.597  62.389  1.00  0.00    -0.072 F  
HETATM   30  C   UNL     1      -8.174   8.366  62.779  1.00  0.00    -0.166 C  
ENDBRANCH  26  28
ENDBRANCH   4  26
BRANCH   4  31
HETATM   31  O   UNL     1      -7.400   9.995  65.756  1.00  0.00    -0.105 OA 
BRANCH  31  32
HETATM   32  C   UNL     1      -6.109  10.366  65.962  1.00  0.00    -0.105 C  
HETATM   33  O   UNL     1      -5.612  11.415  65.598  1.00  0.00    -0.177 OA 
BRANCH  32  34
HETATM   34  C   UNL     1      -5.367   9.322  66.758  1.00  0.00    -0.039 C  
HETATM   35  C   UNL     1      -6.321   8.226  67.211  1.00  0.00    -0.057 C  
ENDBRANCH  32  34
ENDBRANCH  31  32
ENDBRANCH   4  31
TORSDOF 5
ENDMDL
MODEL       22
REMARK 921   NORMALIZED FREE ENERGY PREDICTED BY IDOCK:   -5.49 KCAL/MOL
REMARK 922        TOTAL FREE ENERGY PREDICTED BY IDOCK:   -6.03 KCAL/MOL
REMARK 923 INTER-LIGAND FREE ENERGY PREDICTED BY IDOCK:   -6.79 KCAL/MOL
REMARK 924 INTRA-LIGAND FREE ENERGY PREDICTED BY IDOCK:    0.76 KCAL/MOL
REMARK 927      BINDING AFFINITY PREDICTED BY RF-SCORE:    0.00 PKD
ROOT
HETATM    1  C   UNL     1      -7.804  10.783  68.038  1.00  0.00    -0.106 C  
HETATM    2  C   UNL     1      -8.031  10.958  69.434  1.00  0.00    -0.027 C  
HETATM    3  C   UNL     1      -8.991  10.212  68.598  1.00  0.00    -0.136 C  
HETATM    4  C   UNL     1      -8.177   9.569  66.797  1.00  0.00    -0.113 C  
HETATM    5  C   UNL     1     -10.064   9.627  69.811  1.00  0.00    -0.258 C  
HETATM    6  C   UNL     1      -9.644  14.856  67.281  1.00  0.00    -0.216 C  
HETATM    7  F   UNL     1      -7.441  15.721  67.433  1.00  0.00    -0.146 F  
HETATM    8  C   UNL     1      -8.885   9.107  67.849  1.00  0.00    -0.128 C  
HETATM    9  C   UNL     1     -12.004  13.843  67.326  1.00  0.00    -0.446 C  
HETATM   10  C   UNL     1      -8.175  14.676  66.957  1.00  0.00    -0.157 C  
HETATM   11  C   UNL     1      -8.373   7.790  68.570  1.00  0.00    -0.129 C  
HETATM   12  C   UNL     1     -10.574  13.788  66.651  1.00  0.00    -0.274 C  
HETATM   13  C   UNL     1     -10.534   9.485  67.087  1.00  0.00    -0.322 C  
HETATM   14  C   UNL     1     -10.827  14.298  65.237  1.00  0.00    -0.363 C  
HETATM   15  C   UNL     1     -10.689  11.031  66.404  1.00  0.00    -0.227 C  
HETATM   16  C   UNL     1     -10.752  15.626  64.969  1.00  0.00    -0.458 C  
HETATM   17  O   UNL     1     -10.242  17.828  65.768  1.00  0.00    -0.566 OA 
HETATM   18  C   UNL     1     -10.343  16.636  66.020  1.00  0.00    -0.340 C  
HETATM   19  C   UNL     1     -10.122  16.110  67.416  1.00  0.00    -0.257 C  
HETATM   20  O   UNL     1     -10.389  10.945  65.007  1.00  0.00    -0.285 OA 
HETATM   21  C   UNL     1      -9.980  12.370  67.061  1.00  0.00    -0.212 C  
HETATM   22  C   UNL     1      -8.375  12.157  67.096  1.00  0.00    -0.183 C  
HETATM   23  F   UNL     1     -10.347  12.463  68.419  1.00  0.00    -0.205 F  
HETATM   24  H   UNL     1     -10.475  11.810  64.625  1.00  0.00     0.000 HD 
HETATM   25  C   UNL     1      -7.646  13.413  67.604  1.00  0.00    -0.177 C  
ENDROOT
BRANCH   4  26
HETATM   26  C   UNL     1      -8.665   8.507  65.641  1.00  0.00    -0.181 C  
HETATM   27  O   UNL     1      -8.974   8.754  64.476  1.00  0.00    -0.066 OA 
BRANCH  26  28
HETATM   28  S   UNL     1      -8.898   6.848  66.244  1.00  0.00    -0.143 SA 
HETATM   29  F   UNL     1      -8.390   4.673  64.907  1.00  0.00    -0.111 F  
HETATM   30  C   UNL     1      -8.035   5.989  64.890  1.00  0.00    -0.126 C  
ENDBRANCH  26  28
ENDBRANCH   4  26
BRANCH   4  31
HETATM   31  O   UNL     1      -6.686   9.242  66.805  1.00  0.00    -0.074 OA 
BRANCH  31  32
HETATM   32  C   UNL     1      -5.808   9.173  65.770  1.00  0.00    -0.050 C  
HETATM   33  O   UNL     1      -5.212   8.171  65.420  1.00  0.00    -0.031 OA 
BRANCH  32  34
HETATM   34  C   UNL     1      -5.698  10.500  65.063  1.00  0.00    -0.131 C  
HETATM   35  C   UNL     1      -5.829  10.310  63.558  1.00  0.00    -0.144 C  
ENDBRANCH  32  34
ENDBRANCH  31  32
ENDBRANCH   4  31
TORSDOF 5
ENDMDL
MODEL       23
REMARK 921   NORMALIZED FREE ENERGY PREDICTED BY IDOCK:   -5.47 KCAL/MOL
REMARK 922        TOTAL FREE ENERGY PREDICTED BY IDOCK:   -6.01 KCAL/MOL
REMARK 923 INTER-LIGAND FREE ENERGY PREDICTED BY IDOCK:   -6.98 KCAL/MOL
REMARK 924 INTRA-LIGAND FREE ENERGY PREDICTED BY IDOCK:    0.98 KCAL/MOL
REMARK 927      BINDING AFFINITY PREDICTED BY RF-SCORE:    0.00 PKD
ROOT
HETATM    1  C   UNL     1     -10.602   7.535  70.384  1.00  0.00    -0.236 C  
HETATM    2  C   UNL     1     -11.755   7.030  69.715  1.00  0.00    -0.049 C  
HETATM    3  C   UNL     1     -10.411   6.888  69.122  1.00  0.00    -0.207 C  
HETATM    4  C   UNL     1      -8.879   7.124  70.506  1.00  0.00    -0.154 C  
HETATM    5  C   UNL     1     -10.780   5.899  67.761  1.00  0.00    -0.346 C  
HETATM    6  C   UNL     1     -11.429  11.624  68.611  1.00  0.00    -0.349 C  
HETATM    7  F   UNL     1     -12.656  12.075  70.590  1.00  0.00    -0.372 F  
HETATM    8  C   UNL     1      -9.289   6.283  69.533  1.00  0.00    -0.147 C  
HETATM    9  C   UNL     1     -10.240  10.964  66.432  1.00  0.00    -0.289 C  
HETATM   10  C   UNL     1     -11.528  11.476  70.116  1.00  0.00    -0.170 C  
HETATM   11  C   UNL     1      -9.384   4.738  69.877  1.00  0.00    -0.207 C  
HETATM   12  C   UNL     1     -10.104  11.099  68.003  1.00  0.00    -0.191 C  
HETATM   13  C   UNL     1      -8.349   7.150  68.189  1.00  0.00    -0.124 C  
HETATM   14  C   UNL     1      -9.127  12.256  68.178  1.00  0.00    -0.196 C  
HETATM   15  C   UNL     1      -8.508   8.840  68.156  1.00  0.00    -0.130 C  
HETATM   16  C   UNL     1      -9.586  13.531  68.245  1.00  0.00    -0.218 C  
HETATM   17  O   UNL     1     -11.478  15.000  68.327  1.00  0.00    -0.305 OA 
HETATM   18  C   UNL     1     -11.065  13.853  68.231  1.00  0.00    -0.258 C  
HETATM   19  C   UNL     1     -12.010  12.695  68.033  1.00  0.00    -0.300 C  
HETATM   20  O   UNL     1      -7.420   9.415  68.889  1.00  0.00    -0.073 OA 
HETATM   21  C   UNL     1      -9.920   9.609  68.529  1.00  0.00    -0.165 C  
HETATM   22  C   UNL     1     -10.338   9.244  70.051  1.00  0.00    -0.245 C  
HETATM   23  F   UNL     1     -10.959   9.066  67.746  1.00  0.00    -0.285 F  
HETATM   24  H   UNL     1      -7.510  10.360  68.871  1.00  0.00     0.000 HD 
HETATM   25  C   UNL     1     -11.594  10.011  70.496  1.00  0.00    -0.403 C  
ENDROOT
BRANCH   4  26
HETATM   26  C   UNL     1      -7.264   6.815  70.481  1.00  0.00    -0.073 C  
HETATM   27  O   UNL     1      -6.364   7.557  70.090  1.00  0.00    -0.033 OA 
BRANCH  26  28
HETATM   28  S   UNL     1      -6.846   5.148  70.943  1.00  0.00    -0.048 SA 
HETATM   29  F   UNL     1      -5.428   3.498  69.513  1.00  0.00    -0.013 F  
HETATM   30  C   UNL     1      -5.631   4.841  69.621  1.00  0.00    -0.012 C  
ENDBRANCH  26  28
ENDBRANCH   4  26
BRANCH   4  31
HETATM   31  O   UNL     1      -9.182   6.685  71.936  1.00  0.00    -0.148 OA 
BRANCH  31  32
HETATM   32  C   UNL     1      -9.222   7.419  73.079  1.00  0.00    -0.165 C  
HETATM   33  O   UNL     1      -8.658   8.484  73.249  1.00  0.00    -0.359 OA 
BRANCH  32  34
HETATM   34  C   UNL     1     -10.108   6.768  74.110  1.00  0.00    -0.381 C  
HETATM   35  C   UNL     1     -10.662   5.453  73.578  1.00  0.00    -0.331 C  
ENDBRANCH  32  34
ENDBRANCH  31  32
ENDBRANCH   4  31
TORSDOF 5
ENDMDL
MODEL       24
REMARK 921   NORMALIZED FREE ENERGY PREDICTED BY IDOCK:   -5.46 KCAL/MOL
REMARK 922        TOTAL FREE ENERGY PREDICTED BY IDOCK:   -5.98 KCAL/MOL
REMARK 923 INTER-LIGAND FREE ENERGY PREDICTED BY IDOCK:   -7.39 KCAL/MOL
REMARK 924 INTRA-LIGAND FREE ENERGY PREDICTED BY IDOCK:    1.41 KCAL/MOL
REMARK 927      BINDING AFFINITY PREDICTED BY RF-SCORE:    0.00 PKD
ROOT
HETATM    1  C   UNL     1      -7.626   8.795  66.849  1.00  0.00    -0.090 C  
HETATM    2  C   UNL     1      -6.427   9.415  66.390  1.00  0.00    -0.066 C  
HETATM    3  C   UNL     1      -6.956   9.694  67.740  1.00  0.00    -0.079 C  
HETATM    4  C   UNL     1      -8.308   8.259  68.398  1.00  0.00    -0.132 C  
HETATM    5  C   UNL     1      -5.675  10.651  68.378  1.00  0.00    -0.043 C  
HETATM    6  C   UNL     1     -10.031  12.022  64.764  1.00  0.00    -0.241 C  
HETATM    7  F   UNL     1     -10.104  10.562  62.897  1.00  0.00    -0.336 F  
HETATM    8  C   UNL     1      -7.201   8.918  68.803  1.00  0.00    -0.075 C  
HETATM    9  C   UNL     1      -9.728  13.600  66.769  1.00  0.00    -0.275 C  
HETATM   10  C   UNL     1     -10.171  10.602  64.258  1.00  0.00    -0.320 C  
HETATM   11  C   UNL     1      -5.992   8.065  69.371  1.00  0.00    -0.033 C  
HETATM   12  C   UNL     1     -10.242  12.182  66.291  1.00  0.00    -0.249 C  
HETATM   13  C   UNL     1      -8.145  10.314  69.581  1.00  0.00    -0.157 C  
HETATM   14  C   UNL     1     -11.755  12.277  66.452  1.00  0.00    -0.431 C  
HETATM   15  C   UNL     1      -9.390  10.975  68.635  1.00  0.00    -0.194 C  
HETATM   16  C   UNL     1     -12.519  12.746  65.434  1.00  0.00    -0.478 C  
HETATM   17  O   UNL     1     -12.624  13.500  63.162  1.00  0.00    -0.762 OA 
HETATM   18  C   UNL     1     -11.929  13.112  64.089  1.00  0.00    -0.436 C  
HETATM   19  C   UNL     1     -10.428  13.032  63.963  1.00  0.00    -0.337 C  
HETATM   20  O   UNL     1     -10.620  10.332  68.985  1.00  0.00    -0.198 OA 
HETATM   21  C   UNL     1      -9.273  11.134  66.996  1.00  0.00    -0.163 C  
HETATM   22  C   UNL     1      -9.064   9.671  66.334  1.00  0.00    -0.191 C  
HETATM   23  F   UNL     1      -8.086  11.827  66.685  1.00  0.00    -0.162 F  
HETATM   24  H   UNL     1     -11.316  10.701  68.455  1.00  0.00     0.000 HD 
HETATM   25  C   UNL     1      -9.050   9.738  64.797  1.00  0.00    -0.290 C  
ENDROOT
BRANCH   4  26
HETATM   26  C   UNL     1      -8.978   7.911  69.859  1.00  0.00    -0.146 C  
HETATM   27  O   UNL     1     -10.146   8.078  70.207  1.00  0.00    -0.189 OA 
BRANCH  26  28
HETATM   28  S   UNL     1      -7.798   7.377  71.080  1.00  0.00    -0.093 SA 
HETATM   29  F   UNL     1      -7.636   8.282  73.516  1.00  0.00    -0.166 F  
HETATM   30  C   UNL     1      -8.554   8.216  72.510  1.00  0.00    -0.194 C  
ENDBRANCH  26  28
ENDBRANCH   4  26
BRANCH   4  31
HETATM   31  O   UNL     1      -8.085   6.835  67.895  1.00  0.00    -0.112 OA 
BRANCH  31  32
HETATM   32  C   UNL     1      -8.822   6.099  67.023  1.00  0.00    -0.110 C  
HETATM   33  O   UNL     1      -8.462   5.757  65.912  1.00  0.00    -0.127 OA 
BRANCH  32  34
HETATM   34  C   UNL     1     -10.145   5.705  67.630  1.00  0.00    -0.208 C  
HETATM   35  C   UNL     1     -11.259   6.594  67.093  1.00  0.00    -0.306 C  
ENDBRANCH  32  34
ENDBRANCH  31  32
ENDBRANCH   4  31
TORSDOF 5
ENDMDL
MODEL       25
REMARK 921   NORMALIZED FREE ENERGY PREDICTED BY IDOCK:   -5.45 KCAL/MOL
REMARK 922        TOTAL FREE ENERGY PREDICTED BY IDOCK:   -5.97 KCAL/MOL
REMARK 923 INTER-LIGAND FREE ENERGY PREDICTED BY IDOCK:   -7.16 KCAL/MOL
REMARK 924 INTRA-LIGAND FREE ENERGY PREDICTED BY IDOCK:    1.18 KCAL/MOL
REMARK 927      BINDING AFFINITY PREDICTED BY RF-SCORE:    0.00 PKD
ROOT
HETATM    1  C   UNL     1     -10.872  11.634  66.698  1.00  0.00    -0.327 C  
HETATM    2  C   UNL     1     -11.367  10.480  67.373  1.00  0.00    -0.120 C  
HETATM    3  C   UNL     1     -10.479  11.439  68.061  1.00  0.00    -0.215 C  
HETATM    4  C   UNL     1     -10.397  13.291  67.123  1.00  0.00    -0.248 C  
HETATM    5  C   UNL     1     -10.523  10.801  69.660  1.00  0.00    -0.183 C  
HETATM    6  C   UNL     1      -7.528   9.118  64.958  1.00  0.00    -0.105 C  
HETATM    7  F   UNL     1      -8.957   8.762  63.099  1.00  0.00    -0.142 F  
HETATM    8  C   UNL     1     -10.586  12.743  68.342  1.00  0.00    -0.262 C  
HETATM    9  C   UNL     1      -6.139   9.410  67.099  1.00  0.00    -0.063 C  
HETATM   10  C   UNL     1      -8.544   9.700  63.997  1.00  0.00    -0.200 C  
HETATM   11  C   UNL     1     -11.854  13.203  69.176  1.00  0.00    -0.364 C  
HETATM   12  C   UNL     1      -6.894  10.152  65.923  1.00  0.00    -0.115 C  
HETATM   13  C   UNL     1      -8.787  12.775  68.794  1.00  0.00     0.178 C  
HETATM   14  C   UNL     1      -5.765  10.778  65.113  1.00  0.00    -0.061 C  
HETATM   15  C   UNL     1      -7.723  12.188  67.609  1.00  0.00    -0.148 C  
HETATM   16  C   UNL     1      -5.177  10.078  64.110  1.00  0.00    -0.093 C  
HETATM   17  O   UNL     1      -5.149   8.086  62.777  1.00  0.00    -0.052 OA 
HETATM   18  C   UNL     1      -5.658   8.701  63.703  1.00  0.00    -0.067 C  
HETATM   19  C   UNL     1      -6.759   8.093  64.535  1.00  0.00    -0.068 C  
HETATM   20  O   UNL     1      -7.250  13.293  66.832  1.00  0.00    -0.331 OA 
HETATM   21  C   UNL     1      -8.100  10.916  66.626  1.00  0.00    -0.147 C  
HETATM   22  C   UNL     1      -9.421  11.284  65.764  1.00  0.00    -0.252 C  
HETATM   23  F   UNL     1      -8.499   9.824  67.422  1.00  0.00    -0.118 F  
HETATM   24  H   UNL     1      -6.655  12.964  66.168  1.00  0.00     0.000 HD 
HETATM   25  C   UNL     1      -9.767  10.179  64.752  1.00  0.00    -0.389 C  
ENDROOT
BRANCH   4  26
HETATM   26  C   UNL     1      -9.821  14.766  67.565  1.00  0.00    -0.218 C  
HETATM   27  O   UNL     1      -9.914  15.310  68.665  1.00  0.00    -0.205 OA 
BRANCH  26  28
HETATM   28  S   UNL     1      -9.125  15.698  66.217  1.00  0.00    -0.347 SA 
HETATM   29  F   UNL     1      -9.363  18.268  65.880  1.00  0.00    -0.230 F  
HETATM   30  C   UNL     1      -9.458  17.358  66.889  1.00  0.00    -0.269 C  
ENDBRANCH  26  28
ENDBRANCH   4  26
BRANCH   4  31
HETATM   31  O   UNL     1     -11.660  13.739  66.393  1.00  0.00    -0.331 OA 
BRANCH  31  32
HETATM   32  C   UNL     1     -11.935  13.749  65.062  1.00  0.00    -0.383 C  
HETATM   33  O   UNL     1     -11.438  14.504  64.248  1.00  0.00    -0.295 OA 
BRANCH  32  34
HETATM   34  C   UNL     1     -12.909  12.656  64.703  1.00  0.00    -0.361 C  
HETATM   35  C   UNL     1     -12.516  12.011  63.380  1.00  0.00    -0.625 C  
ENDBRANCH  32  34
ENDBRANCH  31  32
ENDBRANCH   4  31
TORSDOF 5
ENDMDL
MODEL       26
REMARK 921   NORMALIZED FREE ENERGY PREDICTED BY IDOCK:   -5.42 KCAL/MOL
REMARK 922        TOTAL FREE ENERGY PREDICTED BY IDOCK:   -5.94 KCAL/MOL
REMARK 923 INTER-LIGAND FREE ENERGY PREDICTED BY IDOCK:   -6.93 KCAL/MOL
REMARK 924 INTRA-LIGAND FREE ENERGY PREDICTED BY IDOCK:    0.99 KCAL/MOL
REMARK 927      BINDING AFFINITY PREDICTED BY RF-SCORE:    0.00 PKD
ROOT
HETATM    1  C   UNL     1      -8.826  10.896  68.824  1.00  0.00    -0.162 C  
HETATM    2  C   UNL     1      -7.508  10.937  69.364  1.00  0.00    -0.105 C  
HETATM    3  C   UNL     1      -7.738  11.092  67.914  1.00  0.00    -0.105 C  
HETATM    4  C   UNL     1      -9.697  11.609  67.451  1.00  0.00    -0.176 C  
HETATM    5  C   UNL     1      -6.143  11.475  67.390  1.00  0.00    -0.083 C  
HETATM    6  C   UNL     1      -8.597   6.370  68.745  1.00  0.00    -0.123 C  
HETATM    7  F   UNL     1      -9.585   6.425  70.900  1.00  0.00    -0.170 F  
HETATM    8  C   UNL     1      -8.426  11.983  67.189  1.00  0.00    -0.180 C  
HETATM    9  C   UNL     1      -7.358   6.432  66.495  1.00  0.00    -0.078 C  
HETATM   10  C   UNL     1      -9.615   7.007  69.668  1.00  0.00    -0.150 C  
HETATM   11  C   UNL     1      -8.047  13.511  67.369  1.00  0.00    -0.184 C  
HETATM   12  C   UNL     1      -8.661   6.870  67.279  1.00  0.00    -0.119 C  
HETATM   13  C   UNL     1      -8.257  10.879  65.706  1.00  0.00    -0.113 C  
HETATM   14  C   UNL     1      -9.761   6.028  66.643  1.00  0.00    -0.189 C  
HETATM   15  C   UNL     1      -8.787   9.280  65.919  1.00  0.00    -0.166 C  
HETATM   16  C   UNL     1     -10.045   4.795  67.135  1.00  0.00    -0.210 C  
HETATM   17  O   UNL     1      -9.636   3.146  68.825  1.00  0.00    -0.157 OA 
HETATM   18  C   UNL     1      -9.354   4.242  68.363  1.00  0.00    -0.153 C  
HETATM   19  C   UNL     1      -8.253   5.083  68.959  1.00  0.00    -0.087 C  
HETATM   20  O   UNL     1     -10.144   9.185  65.473  1.00  0.00    -0.391 OA 
HETATM   21  C   UNL     1      -8.590   8.459  67.337  1.00  0.00    -0.124 C  
HETATM   22  C   UNL     1      -9.367   9.248  68.520  1.00  0.00    -0.143 C  
HETATM   23  F   UNL     1      -7.234   8.514  67.717  1.00  0.00    -0.078 F  
HETATM   24  H   UNL     1     -10.440   8.291  65.592  1.00  0.00     0.000 HD 
HETATM   25  C   UNL     1      -9.309   8.480  69.851  1.00  0.00    -0.159 C  
ENDROOT
BRANCH   4  26
HETATM   26  C   UNL     1     -10.438  12.160  66.091  1.00  0.00    -0.248 C  
HETATM   27  O   UNL     1     -11.102  11.512  65.283  1.00  0.00    -0.271 OA 
BRANCH  26  28
HETATM   28  S   UNL     1     -10.077  13.863  65.716  1.00  0.00    -0.307 SA 
HETATM   29  F   UNL     1     -11.714  15.535  64.577  1.00  0.00    -0.401 F  
HETATM   30  C   UNL     1     -11.770  14.363  65.270  1.00  0.00    -0.364 C  
ENDBRANCH  26  28
ENDBRANCH   4  26
BRANCH   4  31
HETATM   31  O   UNL     1     -10.438  12.456  68.483  1.00  0.00    -0.226 OA 
BRANCH  31  32
HETATM   32  C   UNL     1     -11.703  12.327  68.963  1.00  0.00    -0.324 C  
HETATM   33  O   UNL     1     -12.400  11.337  68.848  1.00  0.00    -0.485 OA 
BRANCH  32  34
HETATM   34  C   UNL     1     -12.125  13.563  69.715  1.00  0.00    -0.381 C  
HETATM   35  C   UNL     1     -11.475  14.799  69.108  1.00  0.00    -0.323 C  
ENDBRANCH  32  34
ENDBRANCH  31  32
ENDBRANCH   4  31
TORSDOF 5
ENDMDL
MODEL       27
REMARK 921   NORMALIZED FREE ENERGY PREDICTED BY IDOCK:   -5.42 KCAL/MOL
REMARK 922        TOTAL FREE ENERGY PREDICTED BY IDOCK:   -5.94 KCAL/MOL
REMARK 923 INTER-LIGAND FREE ENERGY PREDICTED BY IDOCK:   -6.82 KCAL/MOL
REMARK 924 INTRA-LIGAND FREE ENERGY PREDICTED BY IDOCK:    0.89 KCAL/MOL
REMARK 927      BINDING AFFINITY PREDICTED BY RF-SCORE:    0.00 PKD
ROOT
HETATM    1  C   UNL     1     -10.293  10.322  67.845  1.00  0.00    -0.234 C  
HETATM    2  C   UNL     1     -10.526  10.293  66.439  1.00  0.00    -0.233 C  
HETATM    3  C   UNL     1      -9.169  10.104  66.987  1.00  0.00    -0.166 C  
HETATM    4  C   UNL     1      -9.166   9.577  68.997  1.00  0.00    -0.155 C  
HETATM    5  C   UNL     1      -8.311   9.709  65.547  1.00  0.00    -0.143 C  
HETATM    6  C   UNL     1     -10.060  14.845  67.662  1.00  0.00    -0.227 C  
HETATM    7  F   UNL     1     -12.382  14.841  68.144  1.00  0.00    -0.264 F  
HETATM    8  C   UNL     1      -8.636   9.197  67.815  1.00  0.00    -0.121 C  
HETATM    9  C   UNL     1      -7.593  14.730  66.956  1.00  0.00     0.019 C  
HETATM   10  C   UNL     1     -11.202  14.230  68.445  1.00  0.00    -0.269 C  
HETATM   11  C   UNL     1      -8.762   7.673  67.398  1.00  0.00    -0.124 C  
HETATM   12  C   UNL     1      -8.658  14.311  68.049  1.00  0.00    -0.169 C  
HETATM   13  C   UNL     1      -7.128  10.265  67.986  1.00  0.00    -0.083 C  
HETATM   14  C   UNL     1      -8.264  15.138  69.267  1.00  0.00    -0.216 C  
HETATM   15  C   UNL     1      -7.416  11.869  68.463  1.00  0.00    -0.117 C  
HETATM   16  C   UNL     1      -8.778  16.382  69.440  1.00  0.00     0.011 C  
HETATM   17  O   UNL     1     -10.296  18.070  68.673  1.00  0.00    -0.369 OA 
HETATM   18  C   UNL     1      -9.808  16.964  68.496  1.00  0.00    -0.267 C  
HETATM   19  C   UNL     1     -10.163  16.136  67.285  1.00  0.00    -0.277 C  
HETATM   20  O   UNL     1      -7.282  11.954  69.886  1.00  0.00    -0.287 OA 
HETATM   21  C   UNL     1      -8.736  12.724  67.959  1.00  0.00    -0.194 C  
HETATM   22  C   UNL     1     -10.079  11.963  68.448  1.00  0.00    -0.206 C  
HETATM   23  F   UNL     1      -8.804  12.677  66.552  1.00  0.00    -0.211 F  
HETATM   24  H   UNL     1      -7.444  12.851  70.152  1.00  0.00     0.000 HD 
HETATM   25  C   UNL     1     -11.346  12.762  68.099  1.00  0.00    -0.329 C  
ENDROOT
BRANCH   4  26
HETATM   26  C   UNL     1      -8.019   8.994  70.020  1.00  0.00    -0.113 C  
HETATM   27  O   UNL     1      -7.526   9.559  70.996  1.00  0.00    -0.300 OA 
BRANCH  26  28
HETATM   28  S   UNL     1      -7.342   7.425  69.520  1.00  0.00    -0.087 SA 
HETATM   29  F   UNL     1      -6.571   5.534  71.134  1.00  0.00    -0.037 F  
HETATM   30  C   UNL     1      -7.387   6.625  71.155  1.00  0.00    -0.079 C  
ENDBRANCH  26  28
ENDBRANCH   4  26
BRANCH   4  31
HETATM   31  O   UNL     1     -10.357   8.755  69.484  1.00  0.00    -0.204 OA 
BRANCH  31  32
HETATM   32  C   UNL     1     -10.869   8.630  70.737  1.00  0.00    -0.230 C  
HETATM   33  O   UNL     1     -10.814   9.479  71.606  1.00  0.00    -0.343 OA 
BRANCH  32  34
HETATM   34  C   UNL     1     -11.572   7.307  70.905  1.00  0.00    -0.331 C  
HETATM   35  C   UNL     1     -11.102   6.320  69.845  1.00  0.00    -0.469 C  
ENDBRANCH  32  34
ENDBRANCH  31  32
ENDBRANCH   4  31
TORSDOF 5
ENDMDL
MODEL       28
REMARK 921   NORMALIZED FREE ENERGY PREDICTED BY IDOCK:   -5.42 KCAL/MOL
REMARK 922        TOTAL FREE ENERGY PREDICTED BY IDOCK:   -5.93 KCAL/MOL
REMARK 923 INTER-LIGAND FREE ENERGY PREDICTED BY IDOCK:   -7.09 KCAL/MOL
REMARK 924 INTRA-LIGAND FREE ENERGY PREDICTED BY IDOCK:    1.16 KCAL/MOL
REMARK 927      BINDING AFFINITY PREDICTED BY RF-SCORE:    0.00 PKD
ROOT
HETATM    1  C   UNL     1     -10.760  10.375  68.399  1.00  0.00    -0.263 C  
HETATM    2  C   UNL     1     -10.902  10.196  66.992  1.00  0.00    -0.221 C  
HETATM    3  C   UNL     1      -9.870   9.461  67.750  1.00  0.00    -0.207 C  
HETATM    4  C   UNL     1     -10.246   9.404  69.793  1.00  0.00    -0.220 C  
HETATM    5  C   UNL     1      -9.270   8.419  66.518  1.00  0.00    -0.238 C  
HETATM    6  C   UNL     1      -8.203  14.036  67.624  1.00  0.00    -0.185 C  
HETATM    7  F   UNL     1     -10.210  15.291  67.763  1.00  0.00    -0.229 F  
HETATM    8  C   UNL     1      -9.930   8.589  68.764  1.00  0.00    -0.197 C  
HETATM    9  C   UNL     1      -6.122  12.564  67.303  1.00  0.00    -0.119 C  
HETATM   10  C   UNL     1      -9.536  14.242  68.312  1.00  0.00    -0.221 C  
HETATM   11  C   UNL     1     -10.808   7.287  68.550  1.00  0.00    -0.106 C  
HETATM   12  C   UNL     1      -7.304  12.957  68.279  1.00  0.00    -0.118 C  
HETATM   13  C   UNL     1      -8.098   8.766  69.001  1.00  0.00    -0.116 C  
HETATM   14  C   UNL     1      -6.601  13.692  69.414  1.00  0.00    -0.090 C  
HETATM   15  C   UNL     1      -7.535  10.355  69.203  1.00  0.00    -0.112 C  
HETATM   16  C   UNL     1      -6.403  15.032  69.337  1.00  0.00    -0.124 C  
HETATM   17  O   UNL     1      -6.781  17.069  68.131  1.00  0.00    -0.145 OA 
HETATM   18  C   UNL     1      -6.930  15.857  68.182  1.00  0.00    -0.116 C  
HETATM   19  C   UNL     1      -7.600  15.103  67.060  1.00  0.00    -0.121 C  
HETATM   20  O   UNL     1      -7.450  10.634  70.605  1.00  0.00    -0.321 OA 
HETATM   21  C   UNL     1      -8.190  11.640  68.401  1.00  0.00    -0.155 C  
HETATM   22  C   UNL     1      -9.757  11.768  68.792  1.00  0.00    -0.079 C  
HETATM   23  F   UNL     1      -8.201  11.363  67.019  1.00  0.00    -0.133 F  
HETATM   24  H   UNL     1      -7.136  11.523  70.717  1.00  0.00     0.000 HD 
HETATM   25  C   UNL     1     -10.404  13.010  68.157  1.00  0.00    -0.244 C  
ENDROOT
BRANCH   4  26
HETATM   26  C   UNL     1      -9.622   8.535  71.042  1.00  0.00    -0.192 C  
HETATM   27  O   UNL     1      -8.893   8.938  71.947  1.00  0.00    -0.342 OA 
BRANCH  26  28
HETATM   28  S   UNL     1      -9.950   6.788  70.935  1.00  0.00    -0.186 SA 
HETATM   29  F   UNL     1     -10.866   5.305  72.868  1.00  0.00    -0.234 F  
HETATM   30  C   UNL     1     -10.830   6.623  72.521  1.00  0.00    -0.238 C  
ENDBRANCH  26  28
ENDBRANCH   4  26
BRANCH   4  31
HETATM   31  O   UNL     1     -11.713   9.403  70.214  1.00  0.00    -0.206 OA 
BRANCH  31  32
HETATM   32  C   UNL     1     -12.310   9.999  71.280  1.00  0.00    -0.398 C  
HETATM   33  O   UNL     1     -12.623   9.438  72.314  1.00  0.00    -0.359 OA 
BRANCH  32  34
HETATM   34  C   UNL     1     -12.492  11.476  71.043  1.00  0.00    -0.458 C  
HETATM   35  C   UNL     1     -13.384  12.078  72.121  1.00  0.00    -0.396 C  
ENDBRANCH  32  34
ENDBRANCH  31  32
ENDBRANCH   4  31
TORSDOF 5
ENDMDL
MODEL       29
REMARK 921   NORMALIZED FREE ENERGY PREDICTED BY IDOCK:   -5.39 KCAL/MOL
REMARK 922        TOTAL FREE ENERGY PREDICTED BY IDOCK:   -5.90 KCAL/MOL
REMARK 923 INTER-LIGAND FREE ENERGY PREDICTED BY IDOCK:   -6.77 KCAL/MOL
REMARK 924 INTRA-LIGAND FREE ENERGY PREDICTED BY IDOCK:    0.87 KCAL/MOL
REMARK 927      BINDING AFFINITY PREDICTED BY RF-SCORE:    0.00 PKD
ROOT
HETATM    1  C   UNL     1      -8.521  11.999  67.078  1.00  0.00    -0.183 C  
HETATM    2  C   UNL     1      -8.474  11.114  65.961  1.00  0.00    -0.138 C  
HETATM    3  C   UNL     1      -9.747  11.723  66.393  1.00  0.00    -0.234 C  
HETATM    4  C   UNL     1      -9.484  13.398  67.594  1.00  0.00    -0.216 C  
HETATM    5  C   UNL     1     -10.784  11.194  65.124  1.00  0.00    -0.279 C  
HETATM    6  C   UNL     1      -8.798   8.416  69.841  1.00  0.00    -0.137 C  
HETATM    7  F   UNL     1      -6.433   8.521  69.980  1.00  0.00    -0.036 F  
HETATM    8  C   UNL     1     -10.163  12.991  66.501  1.00  0.00    -0.270 C  
HETATM    9  C   UNL     1     -11.336   8.275  69.469  1.00  0.00     0.283 C  
HETATM   10  C   UNL     1      -7.561   9.284  69.936  1.00  0.00    -0.093 C  
HETATM   11  C   UNL     1     -10.085  13.892  65.198  1.00  0.00    -0.330 C  
HETATM   12  C   UNL     1     -10.135   9.194  69.934  1.00  0.00    -0.219 C  
HETATM   13  C   UNL     1     -11.640  12.407  67.460  1.00  0.00    -0.431 C  
HETATM   14  C   UNL     1     -10.370   9.359  71.430  1.00  0.00    -0.326 C  
HETATM   15  C   UNL     1     -11.300  11.446  68.817  1.00  0.00    -0.271 C  
HETATM   16  C   UNL     1      -9.844   8.465  72.305  1.00  0.00    -0.383 C  
HETATM   17  O   UNL     1      -8.448   6.546  72.644  1.00  0.00    -0.121 OA 
HETATM   18  C   UNL     1      -8.949   7.330  71.852  1.00  0.00    -0.126 C  
HETATM   19  C   UNL     1      -8.752   7.174  70.365  1.00  0.00    -0.150 C  
HETATM   20  O   UNL     1     -11.247  12.290  69.972  1.00  0.00    -0.489 OA 
HETATM   21  C   UNL     1     -10.062  10.355  68.847  1.00  0.00    -0.201 C  
HETATM   22  C   UNL     1      -8.662  11.133  68.605  1.00  0.00    -0.153 C  
HETATM   23  F   UNL     1     -10.178   9.498  67.734  1.00  0.00    -0.196 F  
HETATM   24  H   UNL     1     -11.056  11.752  70.731  1.00  0.00     0.000 HD 
HETATM   25  C   UNL     1      -7.456  10.186  68.723  1.00  0.00    -0.086 C  
ENDROOT
BRANCH   4  26
HETATM   26  C   UNL     1     -10.485  14.592  68.118  1.00  0.00    -0.237 C  
HETATM   27  O   UNL     1     -11.058  14.670  69.204  1.00  0.00    -0.246 OA 
BRANCH  26  28
HETATM   28  S   UNL     1     -10.864  15.808  66.874  1.00  0.00    -0.211 SA 
HETATM   29  F   UNL     1     -11.201  18.352  67.305  1.00  0.00    -0.341 F  
HETATM   30  C   UNL     1     -10.610  17.284  67.909  1.00  0.00    -0.384 C  
ENDBRANCH  26  28
ENDBRANCH   4  26
BRANCH   4  31
HETATM   31  O   UNL     1      -8.235  14.235  67.328  1.00  0.00    -0.190 OA 
BRANCH  31  32
HETATM   32  C   UNL     1      -7.546  15.054  68.165  1.00  0.00    -0.111 C  
HETATM   33  O   UNL     1      -7.290  16.224  67.950  1.00  0.00    -0.121 OA 
BRANCH  32  34
HETATM   34  C   UNL     1      -7.173  14.337  69.437  1.00  0.00    -0.051 C  
HETATM   35  C   UNL     1      -5.678  14.048  69.463  1.00  0.00    -0.092 C  
ENDBRANCH  32  34
ENDBRANCH  31  32
ENDBRANCH   4  31
TORSDOF 5
ENDMDL
MODEL       30
REMARK 921   NORMALIZED FREE ENERGY PREDICTED BY IDOCK:   -5.38 KCAL/MOL
REMARK 922        TOTAL FREE ENERGY PREDICTED BY IDOCK:   -5.88 KCAL/MOL
REMARK 923 INTER-LIGAND FREE ENERGY PREDICTED BY IDOCK:   -6.68 KCAL/MOL
REMARK 924 INTRA-LIGAND FREE ENERGY PREDICTED BY IDOCK:    0.80 KCAL/MOL
REMARK 927      BINDING AFFINITY PREDICTED BY RF-SCORE:    0.00 PKD
ROOT
HETATM    1  C   UNL     1      -7.337   8.986  67.701  1.00  0.00    -0.084 C  
HETATM    2  C   UNL     1      -6.727   7.746  67.351  1.00  0.00    -0.068 C  
HETATM    3  C   UNL     1      -8.008   8.160  66.744  1.00  0.00    -0.103 C  
HETATM    4  C   UNL     1      -8.374  10.198  66.920  1.00  0.00    -0.122 C  
HETATM    5  C   UNL     1      -8.213   6.907  65.581  1.00  0.00    -0.134 C  
HETATM    6  C   UNL     1      -9.198   6.989  71.320  1.00  0.00    -0.152 C  
HETATM    7  F   UNL     1      -7.281   7.702  72.521  1.00  0.00    -0.067 F  
HETATM    8  C   UNL     1      -8.368   9.212  65.998  1.00  0.00    -0.125 C  
HETATM    9  C   UNL     1     -11.135   6.102  69.885  1.00  0.00    -0.481 C  
HETATM   10  C   UNL     1      -8.177   8.080  71.566  1.00  0.00    -0.115 C  
HETATM   11  C   UNL     1      -7.565   9.455  64.653  1.00  0.00    -0.109 C  
HETATM   12  C   UNL     1     -10.342   7.388  70.355  1.00  0.00    -0.215 C  
HETATM   13  C   UNL     1     -10.150   8.764  66.258  1.00  0.00    -0.254 C  
HETATM   14  C   UNL     1     -11.343   8.119  71.242  1.00  0.00    -0.300 C  
HETATM   15  C   UNL     1     -10.633   8.592  67.876  1.00  0.00    -0.156 C  
HETATM   16  C   UNL     1     -11.407   7.842  72.568  1.00  0.00    -0.429 C  
HETATM   17  O   UNL     1     -10.489   6.649  74.434  1.00  0.00    -0.309 OA 
HETATM   18  C   UNL     1     -10.453   6.872  73.233  1.00  0.00    -0.312 C  
HETATM   19  C   UNL     1      -9.489   6.143  72.330  1.00  0.00    -0.156 C  
HETATM   20  O   UNL     1     -11.182   9.836  68.324  1.00  0.00    -0.494 OA 
HETATM   21  C   UNL     1      -9.650   7.949  69.036  1.00  0.00    -0.155 C  
HETATM   22  C   UNL     1      -8.314   8.855  69.161  1.00  0.00    -0.124 C  
HETATM   23  F   UNL     1      -9.178   6.696  68.595  1.00  0.00    -0.130 F  
HETATM   24  H   UNL     1     -11.452   9.740  69.229  1.00  0.00     0.000 HD 
HETATM   25  C   UNL     1      -7.400   8.368  70.298  1.00  0.00    -0.055 C  
ENDROOT
BRANCH   4  26
HETATM   26  C   UNL     1      -9.453  11.225  66.226  1.00  0.00    -0.204 C  
HETATM   27  O   UNL     1      -9.685  11.373  65.027  1.00  0.00    -0.240 OA 
BRANCH  26  28
HETATM   28  S   UNL     1     -10.237  12.330  67.381  1.00  0.00    -0.204 SA 
HETATM   29  F   UNL     1     -12.350  13.769  66.894  1.00  0.00    -0.432 F  
HETATM   30  C   UNL     1     -11.741  12.652  66.406  1.00  0.00    -0.405 C  
ENDBRANCH  26  28
ENDBRANCH   4  26
BRANCH   4  31
HETATM   31  O   UNL     1      -7.149  11.109  66.925  1.00  0.00    -0.114 OA 
BRANCH  31  32
HETATM   32  C   UNL     1      -6.916  12.245  67.634  1.00  0.00    -0.128 C  
HETATM   33  O   UNL     1      -6.800  13.359  67.158  1.00  0.00    -0.129 OA 
BRANCH  32  34
HETATM   34  C   UNL     1      -6.869  11.959  69.114  1.00  0.00    -0.099 C  
HETATM   35  C   UNL     1      -5.426  11.867  69.589  1.00  0.00    -0.077 C  
ENDBRANCH  32  34
ENDBRANCH  31  32
ENDBRANCH   4  31
TORSDOF 5
ENDMDL
MODEL       31
REMARK 921   NORMALIZED FREE ENERGY PREDICTED BY IDOCK:   -5.36 KCAL/MOL
REMARK 922        TOTAL FREE ENERGY PREDICTED BY IDOCK:   -5.87 KCAL/MOL
REMARK 923 INTER-LIGAND FREE ENERGY PREDICTED BY IDOCK:   -6.78 KCAL/MOL
REMARK 924 INTRA-LIGAND FREE ENERGY PREDICTED BY IDOCK:    0.91 KCAL/MOL
REMARK 927      BINDING AFFINITY PREDICTED BY RF-SCORE:    0.00 PKD
ROOT
HETATM    1  C   UNL     1      -8.877  11.631  69.037  1.00  0.00     0.195 C  
HETATM    2  C   UNL     1      -7.454  11.633  69.118  1.00  0.00     0.003 C  
HETATM    3  C   UNL     1      -8.139  11.516  67.816  1.00  0.00    -0.133 C  
HETATM    4  C   UNL     1     -10.119  12.144  67.877  1.00  0.00    -0.197 C  
HETATM    5  C   UNL     1      -6.789  11.604  66.751  1.00  0.00    -0.086 C  
HETATM    6  C   UNL     1      -8.869   7.186  69.924  1.00  0.00    -0.142 C  
HETATM    7  F   UNL     1      -9.096   7.787  72.208  1.00  0.00    -0.147 F  
HETATM    8  C   UNL     1      -8.990  12.312  67.157  1.00  0.00    -0.192 C  
HETATM    9  C   UNL     1      -8.432   6.652  67.450  1.00  0.00    -0.120 C  
HETATM   10  C   UNL     1      -9.503   8.107  70.947  1.00  0.00    -0.162 C  
HETATM   11  C   UNL     1      -8.512  13.794  66.857  1.00  0.00    -0.081 C  
HETATM   12  C   UNL     1      -9.388   7.383  68.477  1.00  0.00    -0.141 C  
HETATM   13  C   UNL     1      -9.359  10.919  65.987  1.00  0.00    -0.215 C  
HETATM   14  C   UNL     1     -10.668   6.557  68.423  1.00  0.00    -0.339 C  
HETATM   15  C   UNL     1      -9.854   9.466  66.712  1.00  0.00    -0.218 C  
HETATM   16  C   UNL     1     -10.825   5.489  69.245  1.00  0.00    -0.202 C  
HETATM   17  O   UNL     1      -9.953   4.182  71.055  1.00  0.00    -0.189 OA 
HETATM   18  C   UNL     1      -9.794   5.123  70.292  1.00  0.00    -0.225 C  
HETATM   19  C   UNL     1      -8.526   5.939  70.309  1.00  0.00    -0.127 C  
HETATM   20  O   UNL     1     -11.285   9.434  66.742  1.00  0.00     0.072 OA 
HETATM   21  C   UNL     1      -9.238   8.932  68.147  1.00  0.00    -0.139 C  
HETATM   22  C   UNL     1      -9.553  10.026  69.299  1.00  0.00    -0.227 C  
HETATM   23  F   UNL     1      -7.832   8.912  68.065  1.00  0.00    -0.097 F  
HETATM   24  H   UNL     1     -11.561   8.622  67.147  1.00  0.00     0.000 HD 
HETATM   25  C   UNL     1      -9.095   9.542  70.685  1.00  0.00    -0.236 C  
ENDROOT
BRANCH   4  26
HETATM   26  C   UNL     1     -11.241  12.487  66.725  1.00  0.00    -0.296 C  
HETATM   27  O   UNL     1     -12.256  11.847  66.451  1.00  0.00    -0.476 OA 
BRANCH  26  28
HETATM   28  S   UNL     1     -10.807  13.868  65.689  1.00  0.00    -0.302 SA 
HETATM   29  F   UNL     1     -12.405  15.055  64.012  1.00  0.00    -0.508 F  
HETATM   30  C   UNL     1     -12.491  14.265  65.119  1.00  0.00    -0.416 C  
ENDBRANCH  26  28
ENDBRANCH   4  26
BRANCH   4  31
HETATM   31  O   UNL     1     -10.448  13.259  68.866  1.00  0.00    -0.201 OA 
BRANCH  31  32
HETATM   32  C   UNL     1     -11.588  13.486  69.570  1.00  0.00    -0.294 C  
HETATM   33  O   UNL     1     -12.157  12.667  70.268  1.00  0.00    -0.349 OA 
BRANCH  32  34
HETATM   34  C   UNL     1     -12.042  14.916  69.420  1.00  0.00    -0.297 C  
HETATM   35  C   UNL     1     -10.925  15.766  68.828  1.00  0.00    -0.291 C  
ENDBRANCH  32  34
ENDBRANCH  31  32
ENDBRANCH   4  31
TORSDOF 5
ENDMDL
MODEL       32
REMARK 921   NORMALIZED FREE ENERGY PREDICTED BY IDOCK:   -5.34 KCAL/MOL
REMARK 922        TOTAL FREE ENERGY PREDICTED BY IDOCK:   -5.83 KCAL/MOL
REMARK 923 INTER-LIGAND FREE ENERGY PREDICTED BY IDOCK:   -6.63 KCAL/MOL
REMARK 924 INTRA-LIGAND FREE ENERGY PREDICTED BY IDOCK:    0.80 KCAL/MOL
REMARK 927      BINDING AFFINITY PREDICTED BY RF-SCORE:    0.00 PKD
ROOT
HETATM    1  C   UNL     1      -7.281  10.237  67.950  1.00  0.00    -0.085 C  
HETATM    2  C   UNL     1      -6.035   9.756  68.447  1.00  0.00    -0.046 C  
HETATM    3  C   UNL     1      -6.599   9.237  67.186  1.00  0.00    -0.068 C  
HETATM    4  C   UNL     1      -8.048  10.482  66.367  1.00  0.00    -0.135 C  
HETATM    5  C   UNL     1      -5.293   8.249  66.651  1.00  0.00    -0.032 C  
HETATM    6  C   UNL     1      -9.433   7.284  70.632  1.00  0.00    -0.164 C  
HETATM    7  F   UNL     1      -9.513   9.024  72.242  1.00  0.00    -0.354 F  
HETATM    8  C   UNL     1      -6.924   9.817  66.024  1.00  0.00    -0.099 C  
HETATM    9  C   UNL     1      -9.122   5.418  68.895  1.00  0.00    -0.138 C  
HETATM   10  C   UNL     1      -9.630   8.760  70.910  1.00  0.00    -0.221 C  
HETATM   11  C   UNL     1      -5.784  10.622  65.272  1.00  0.00    -0.126 C  
HETATM   12  C   UNL     1      -9.692   6.869  69.162  1.00  0.00    -0.155 C  
HETATM   13  C   UNL     1      -7.821   8.272  65.523  1.00  0.00    -0.107 C  
HETATM   14  C   UNL     1     -11.203   6.679  69.087  1.00  0.00    -0.305 C  
HETATM   15  C   UNL     1      -8.993   7.717  66.619  1.00  0.00    -0.149 C  
HETATM   16  C   UNL     1     -11.903   6.348  70.201  1.00  0.00    -0.254 C  
HETATM   17  O   UNL     1     -11.883   5.969  72.567  1.00  0.00    -0.280 OA 
HETATM   18  C   UNL     1     -11.245   6.233  71.559  1.00  0.00    -0.290 C  
HETATM   19  C   UNL     1      -9.747   6.401  71.603  1.00  0.00    -0.174 C  
HETATM   20  O   UNL     1     -10.268   8.237  66.226  1.00  0.00    -0.460 OA 
HETATM   21  C   UNL     1      -8.807   7.831  68.255  1.00  0.00    -0.129 C  
HETATM   22  C   UNL     1      -8.651   9.391  68.664  1.00  0.00    -0.123 C  
HETATM   23  F   UNL     1      -7.574   7.254  68.619  1.00  0.00    -0.101 F  
HETATM   24  H   UNL     1     -10.923   7.927  66.839  1.00  0.00     0.000 HD 
HETATM   25  C   UNL     1      -8.576   9.575  70.189  1.00  0.00    -0.250 C  
ENDROOT
BRANCH   4  26
HETATM   26  C   UNL     1      -8.789  10.556  64.902  1.00  0.00    -0.192 C  
HETATM   27  O   UNL     1      -8.291  10.346  63.797  1.00  0.00    -0.171 OA 
BRANCH  26  28
HETATM   28  S   UNL     1     -10.462  11.161  64.974  1.00  0.00    -0.275 SA 
HETATM   29  F   UNL     1     -11.527  12.850  63.305  1.00  0.00    -0.517 F  
HETATM   30  C   UNL     1     -10.481  11.979  63.347  1.00  0.00    -0.433 C  
ENDBRANCH  26  28
ENDBRANCH   4  26
BRANCH   4  31
HETATM   31  O   UNL     1      -7.882  11.978  66.625  1.00  0.00    -0.089 OA 
BRANCH  31  32
HETATM   32  C   UNL     1      -8.623  12.811  67.401  1.00  0.00    -0.194 C  
HETATM   33  O   UNL     1      -9.700  12.536  67.898  1.00  0.00    -0.192 OA 
BRANCH  32  34
HETATM   34  C   UNL     1      -7.913  14.123  67.619  1.00  0.00    -0.187 C  
HETATM   35  C   UNL     1      -6.408  13.903  67.698  1.00  0.00    -0.140 C  
ENDBRANCH  32  34
ENDBRANCH  31  32
ENDBRANCH   4  31
TORSDOF 5
ENDMDL
MODEL       33
REMARK 921   NORMALIZED FREE ENERGY PREDICTED BY IDOCK:   -5.29 KCAL/MOL
REMARK 922        TOTAL FREE ENERGY PREDICTED BY IDOCK:   -5.77 KCAL/MOL
REMARK 923 INTER-LIGAND FREE ENERGY PREDICTED BY IDOCK:   -6.76 KCAL/MOL
REMARK 924 INTRA-LIGAND FREE ENERGY PREDICTED BY IDOCK:    0.99 KCAL/MOL
REMARK 927      BINDING AFFINITY PREDICTED BY RF-SCORE:    0.00 PKD
ROOT
HETATM    1  C   UNL     1     -10.498   7.889  67.850  1.00  0.00    -0.261 C  
HETATM    2  C   UNL     1     -10.993   6.818  67.050  1.00  0.00    -0.439 C  
HETATM    3  C   UNL     1      -9.920   6.593  68.038  1.00  0.00    -0.157 C  
HETATM    4  C   UNL     1      -9.803   8.093  69.471  1.00  0.00    -0.181 C  
HETATM    5  C   UNL     1      -9.776   4.879  67.948  1.00  0.00    -0.202 C  
HETATM    6  C   UNL     1      -7.727   9.071  64.464  1.00  0.00    -0.116 C  
HETATM    7  F   UNL     1      -9.455  10.530  63.750  1.00  0.00    -0.221 F  
HETATM    8  C   UNL     1      -9.854   6.749  69.366  1.00  0.00    -0.162 C  
HETATM    9  C   UNL     1      -6.001   7.322  65.211  1.00  0.00    -0.037 C  
HETATM   10  C   UNL     1      -8.818  10.047  64.853  1.00  0.00    -0.192 C  
HETATM   11  C   UNL     1     -10.925   5.974  70.241  1.00  0.00    -0.412 C  
HETATM   12  C   UNL     1      -6.853   8.582  65.646  1.00  0.00    -0.067 C  
HETATM   13  C   UNL     1      -8.011   6.543  69.281  1.00  0.00    -0.111 C  
HETATM   14  C   UNL     1      -5.808   9.678  65.818  1.00  0.00    -0.055 C  
HETATM   15  C   UNL     1      -7.207   7.581  68.205  1.00  0.00    -0.093 C  
HETATM   16  C   UNL     1      -5.454  10.453  64.762  1.00  0.00    -0.139 C  
HETATM   17  O   UNL     1      -5.828  11.046  62.470  1.00  0.00    -0.133 OA 
HETATM   18  C   UNL     1      -6.124  10.324  63.411  1.00  0.00    -0.140 C  
HETATM   19  C   UNL     1      -7.137   9.216  63.259  1.00  0.00    -0.088 C  
HETATM   20  O   UNL     1      -6.754   8.729  68.931  1.00  0.00    -0.052 OA 
HETATM   21  C   UNL     1      -7.854   8.038  66.757  1.00  0.00    -0.103 C  
HETATM   22  C   UNL     1      -9.251   8.815  67.021  1.00  0.00    -0.177 C  
HETATM   23  F   UNL     1      -8.230   6.885  66.038  1.00  0.00    -0.102 F  
HETATM   24  H   UNL     1      -6.305   9.310  68.329  1.00  0.00     0.000 HD 
HETATM   25  C   UNL     1      -9.856   9.357  65.715  1.00  0.00    -0.345 C  
ENDROOT
BRANCH   4  26
HETATM   26  C   UNL     1      -9.024   8.234  70.912  1.00  0.00    -0.151 C  
HETATM   27  O   UNL     1      -8.226   9.107  71.252  1.00  0.00    -0.290 OA 
BRANCH  26  28
HETATM   28  S   UNL     1      -9.288   6.856  72.008  1.00  0.00    -0.138 SA 
HETATM   29  F   UNL     1     -10.447   6.982  74.335  1.00  0.00    -0.378 F  
HETATM   30  C   UNL     1     -10.393   7.705  73.181  1.00  0.00    -0.352 C  
ENDBRANCH  26  28
ENDBRANCH   4  26
BRANCH   4  31
HETATM   31  O   UNL     1     -11.114   8.780  69.843  1.00  0.00    -0.220 OA 
BRANCH  31  32
HETATM   32  C   UNL     1     -11.326   9.999  70.405  1.00  0.00    -0.320 C  
HETATM   33  O   UNL     1     -11.864  10.194  71.479  1.00  0.00    -0.362 OA 
BRANCH  32  34
HETATM   34  C   UNL     1     -10.755  11.098  69.545  1.00  0.00    -0.193 C  
HETATM   35  C   UNL     1     -11.876  11.952  68.965  1.00  0.00    -0.368 C  
ENDBRANCH  32  34
ENDBRANCH  31  32
ENDBRANCH   4  31
TORSDOF 5
ENDMDL
MODEL       34
REMARK 921   NORMALIZED FREE ENERGY PREDICTED BY IDOCK:   -5.24 KCAL/MOL
REMARK 922        TOTAL FREE ENERGY PREDICTED BY IDOCK:   -5.70 KCAL/MOL
REMARK 923 INTER-LIGAND FREE ENERGY PREDICTED BY IDOCK:   -6.37 KCAL/MOL
REMARK 924 INTRA-LIGAND FREE ENERGY PREDICTED BY IDOCK:    0.67 KCAL/MOL
REMARK 927      BINDING AFFINITY PREDICTED BY RF-SCORE:    0.00 PKD
ROOT
HETATM    1  C   UNL     1     -10.734   7.244  69.079  1.00  0.00    -0.183 C  
HETATM    2  C   UNL     1     -11.520   6.337  69.848  1.00  0.00    -0.459 C  
HETATM    3  C   UNL     1     -10.164   6.725  70.286  1.00  0.00    -0.216 C  
HETATM    4  C   UNL     1      -9.483   8.468  69.383  1.00  0.00    -0.161 C  
HETATM    5  C   UNL     1     -10.114   5.966  71.830  1.00  0.00    -0.222 C  
HETATM    6  C   UNL     1      -9.376   3.789  66.480  1.00  0.00    -0.204 C  
HETATM    7  F   UNL     1     -11.203   4.323  65.065  1.00  0.00    -0.350 F  
HETATM    8  C   UNL     1      -9.608   7.901  70.601  1.00  0.00    -0.167 C  
HETATM    9  C   UNL     1      -7.547   3.178  68.177  1.00  0.00    -0.053 C  
HETATM   10  C   UNL     1     -10.218   4.869  65.832  1.00  0.00    -0.223 C  
HETATM   11  C   UNL     1     -10.303   8.746  71.748  1.00  0.00    -0.413 C  
HETATM   12  C   UNL     1      -8.142   4.317  67.253  1.00  0.00    -0.100 C  
HETATM   13  C   UNL     1      -7.934   7.101  70.557  1.00  0.00    -0.105 C  
HETATM   14  C   UNL     1      -7.076   4.499  66.179  1.00  0.00    -0.074 C  
HETATM   15  C   UNL     1      -7.555   6.274  69.124  1.00  0.00    -0.099 C  
HETATM   16  C   UNL     1      -7.115   3.751  65.048  1.00  0.00    -0.066 C  
HETATM   17  O   UNL     1      -8.292   2.131  63.731  1.00  0.00    -0.080 OA 
HETATM   18  C   UNL     1      -8.240   2.778  64.767  1.00  0.00    -0.087 C  
HETATM   19  C   UNL     1      -9.269   2.598  65.855  1.00  0.00    -0.065 C  
HETATM   20  O   UNL     1      -6.833   7.161  68.263  1.00  0.00    -0.068 OA 
HETATM   21  C   UNL     1      -8.677   5.425  68.262  1.00  0.00    -0.101 C  
HETATM   22  C   UNL     1      -9.855   6.432  67.788  1.00  0.00    -0.136 C  
HETATM   23  F   UNL     1      -9.325   4.516  69.122  1.00  0.00    -0.145 F  
HETATM   24  H   UNL     1      -6.621   6.698  67.461  1.00  0.00     0.000 HD 
HETATM   25  C   UNL     1     -10.883   5.723  66.892  1.00  0.00    -0.337 C  
ENDROOT
BRANCH   4  26
HETATM   26  C   UNL     1      -8.224   9.484  69.673  1.00  0.00    -0.141 C  
HETATM   27  O   UNL     1      -7.837   9.909  70.761  1.00  0.00    -0.275 OA 
BRANCH  26  28
HETATM   28  S   UNL     1      -7.465  10.126  68.196  1.00  0.00    -0.083 SA 
HETATM   29  F   UNL     1      -7.536  12.610  67.423  1.00  0.00    -0.121 F  
HETATM   30  C   UNL     1      -7.693  11.893  68.571  1.00  0.00    -0.135 C  
ENDBRANCH  26  28
ENDBRANCH   4  26
BRANCH   4  31
HETATM   31  O   UNL     1     -10.545   9.504  69.021  1.00  0.00    -0.215 OA 
BRANCH  31  32
HETATM   32  C   UNL     1     -10.797  10.107  67.830  1.00  0.00    -0.292 C  
HETATM   33  O   UNL     1     -10.558   9.629  66.736  1.00  0.00    -0.209 OA 
BRANCH  32  34
HETATM   34  C   UNL     1     -11.470  11.441  68.030  1.00  0.00    -0.377 C  
HETATM   35  C   UNL     1     -11.870  11.619  69.488  1.00  0.00    -0.414 C  
ENDBRANCH  32  34
ENDBRANCH  31  32
ENDBRANCH   4  31
TORSDOF 5
ENDMDL
MODEL       35
REMARK 921   NORMALIZED FREE ENERGY PREDICTED BY IDOCK:   -5.20 KCAL/MOL
REMARK 922        TOTAL FREE ENERGY PREDICTED BY IDOCK:   -5.65 KCAL/MOL
REMARK 923 INTER-LIGAND FREE ENERGY PREDICTED BY IDOCK:   -6.42 KCAL/MOL
REMARK 924 INTRA-LIGAND FREE ENERGY PREDICTED BY IDOCK:    0.77 KCAL/MOL
REMARK 927      BINDING AFFINITY PREDICTED BY RF-SCORE:    0.00 PKD
ROOT
HETATM    1  C   UNL     1     -10.221   6.705  69.827  1.00  0.00    -0.214 C  
HETATM    2  C   UNL     1     -11.398   6.225  69.181  1.00  0.00    -0.358 C  
HETATM    3  C   UNL     1     -10.088   6.178  68.502  1.00  0.00    -0.193 C  
HETATM    4  C   UNL     1      -8.484   6.338  69.814  1.00  0.00    -0.126 C  
HETATM    5  C   UNL     1     -10.512   5.304  67.081  1.00  0.00    -0.261 C  
HETATM    6  C   UNL     1     -11.256  10.907  68.481  1.00  0.00    -0.335 C  
HETATM    7  F   UNL     1     -12.376  11.143  70.559  1.00  0.00    -0.354 F  
HETATM    8  C   UNL     1      -8.929   5.574  68.794  1.00  0.00    -0.120 C  
HETATM    9  C   UNL     1     -10.181  10.481  66.188  1.00  0.00    -0.299 C  
HETATM   10  C   UNL     1     -11.263  10.623  69.969  1.00  0.00    -0.309 C  
HETATM   11  C   UNL     1      -8.963   4.003  69.001  1.00  0.00    -0.169 C  
HETATM   12  C   UNL     1      -9.956  10.480  67.754  1.00  0.00    -0.198 C  
HETATM   13  C   UNL     1      -8.092   6.587  67.483  1.00  0.00    -0.121 C  
HETATM   14  C   UNL     1      -9.001  11.646  67.978  1.00  0.00    -0.176 C  
HETATM   15  C   UNL     1      -8.296   8.267  67.612  1.00  0.00    -0.127 C  
HETATM   16  C   UNL     1      -9.488  12.895  68.186  1.00  0.00    -0.218 C  
HETATM   17  O   UNL     1     -11.410  14.292  68.508  1.00  0.00    -0.254 OA 
HETATM   18  C   UNL     1     -10.973  13.172  68.285  1.00  0.00    -0.253 C  
HETATM   19  C   UNL     1     -11.898  12.007  68.036  1.00  0.00    -0.338 C  
HETATM   20  O   UNL     1      -7.183   8.808  68.332  1.00  0.00    -0.078 OA 
HETATM   21  C   UNL     1      -9.704   8.955  68.132  1.00  0.00    -0.160 C  
HETATM   22  C   UNL     1     -10.022   8.443  69.636  1.00  0.00    -0.193 C  
HETATM   23  F   UNL     1     -10.772   8.452  67.363  1.00  0.00    -0.331 F  
HETATM   24  H   UNL     1      -7.298   9.748  68.404  1.00  0.00     0.000 HD 
HETATM   25  C   UNL     1     -11.269   9.128  70.218  1.00  0.00    -0.249 C  
ENDROOT
BRANCH   4  26
HETATM   26  C   UNL     1      -6.866   6.083  69.671  1.00  0.00    -0.065 C  
HETATM   27  O   UNL     1      -5.981   6.928  69.547  1.00  0.00    -0.024 OA 
BRANCH  26  28
HETATM   28  S   UNL     1      -6.420   4.365  69.535  1.00  0.00    -0.033 SA 
HETATM   29  F   UNL     1      -5.331   3.250  67.450  1.00  0.00    -0.010 F  
HETATM   30  C   UNL     1      -5.472   4.495  67.986  1.00  0.00    -0.016 C  
ENDBRANCH  26  28
ENDBRANCH   4  26
BRANCH   4  31
HETATM   31  O   UNL     1      -8.692   5.764  71.213  1.00  0.00    -0.130 OA 
BRANCH  31  32
HETATM   32  C   UNL     1      -8.040   6.046  72.372  1.00  0.00    -0.109 C  
HETATM   33  O   UNL     1      -7.336   5.269  72.990  1.00  0.00    -0.088 OA 
BRANCH  32  34
HETATM   34  C   UNL     1      -8.256   7.482  72.779  1.00  0.00    -0.145 C  
HETATM   35  C   UNL     1      -9.661   7.667  73.336  1.00  0.00    -0.363 C  
ENDBRANCH  32  34
ENDBRANCH  31  32
ENDBRANCH   4  31
TORSDOF 5
ENDMDL
MODEL       36
REMARK 921   NORMALIZED FREE ENERGY PREDICTED BY IDOCK:   -5.18 KCAL/MOL
REMARK 922        TOTAL FREE ENERGY PREDICTED BY IDOCK:   -5.62 KCAL/MOL
REMARK 923 INTER-LIGAND FREE ENERGY PREDICTED BY IDOCK:   -6.34 KCAL/MOL
REMARK 924 INTRA-LIGAND FREE ENERGY PREDICTED BY IDOCK:    0.72 KCAL/MOL
REMARK 927      BINDING AFFINITY PREDICTED BY RF-SCORE:    0.00 PKD
ROOT
HETATM    1  C   UNL     1     -10.718   7.457  68.641  1.00  0.00    -0.134 C  
HETATM    2  C   UNL     1     -10.993   6.999  67.319  1.00  0.00    -0.372 C  
HETATM    3  C   UNL     1      -9.671   6.779  67.938  1.00  0.00    -0.138 C  
HETATM    4  C   UNL     1      -9.699   6.962  70.008  1.00  0.00    -0.167 C  
HETATM    5  C   UNL     1      -8.934   5.786  66.739  1.00  0.00    -0.118 C  
HETATM    6  C   UNL     1      -9.734  11.551  66.962  1.00  0.00    -0.202 C  
HETATM    7  F   UNL     1     -12.009  12.098  67.349  1.00  0.00    -0.405 F  
HETATM    8  C   UNL     1      -9.274   6.125  69.037  1.00  0.00    -0.126 C  
HETATM    9  C   UNL     1      -7.343  10.793  66.408  1.00  0.00    -0.142 C  
HETATM   10  C   UNL     1     -10.940  11.434  67.872  1.00  0.00    -0.240 C  
HETATM   11  C   UNL     1      -9.667   4.593  69.151  1.00  0.00    -0.255 C  
HETATM   12  C   UNL     1      -8.431  10.949  67.546  1.00  0.00    -0.123 C  
HETATM   13  C   UNL     1      -7.604   6.920  68.885  1.00  0.00    -0.105 C  
HETATM   14  C   UNL     1      -7.869  12.058  68.428  1.00  0.00    -0.147 C  
HETATM   15  C   UNL     1      -7.605   8.615  68.789  1.00  0.00    -0.096 C  
HETATM   16  C   UNL     1      -8.162  13.355  68.160  1.00  0.00    -0.160 C  
HETATM   17  O   UNL     1      -9.396  14.919  66.828  1.00  0.00    -0.223 OA 
HETATM   18  C   UNL     1      -9.106  13.752  67.045  1.00  0.00    -0.246 C  
HETATM   19  C   UNL     1      -9.630  12.639  66.172  1.00  0.00    -0.222 C  
HETATM   20  O   UNL     1      -7.418   9.147  70.105  1.00  0.00    -0.061 OA 
HETATM   21  C   UNL     1      -8.777   9.460  67.990  1.00  0.00    -0.124 C  
HETATM   22  C   UNL     1     -10.214   9.144  68.666  1.00  0.00    -0.225 C  
HETATM   23  F   UNL     1      -8.893   8.957  66.679  1.00  0.00    -0.120 F  
HETATM   24  H   UNL     1      -7.419  10.095  70.051  1.00  0.00     0.000 HD 
HETATM   25  C   UNL     1     -11.338   9.981  68.033  1.00  0.00    -0.069 C  
ENDROOT
BRANCH   4  26
HETATM   26  C   UNL     1      -8.636   6.571  71.200  1.00  0.00    -0.130 C  
HETATM   27  O   UNL     1      -8.010   7.340  71.929  1.00  0.00    -0.091 OA 
BRANCH  26  28
HETATM   28  S   UNL     1      -8.277   4.830  71.299  1.00  0.00    -0.104 SA 
HETATM   29  F   UNL     1      -7.613   3.549  73.465  1.00  0.00    -0.056 F  
HETATM   30  C   UNL     1      -8.242   4.706  73.116  1.00  0.00    -0.100 C  
ENDBRANCH  26  28
ENDBRANCH   4  26
BRANCH   4  31
HETATM   31  O   UNL     1     -10.996   6.563  70.707  1.00  0.00    -0.245 OA 
BRANCH  31  32
HETATM   32  C   UNL     1     -11.371   6.734  72.002  1.00  0.00    -0.272 C  
HETATM   33  O   UNL     1     -11.528   5.840  72.813  1.00  0.00    -0.290 OA 
BRANCH  32  34
HETATM   34  C   UNL     1     -11.522   8.197  72.333  1.00  0.00    -0.462 C  
HETATM   35  C   UNL     1     -12.683   8.799  71.554  1.00  0.00    -0.372 C  
ENDBRANCH  32  34
ENDBRANCH  31  32
ENDBRANCH   4  31
TORSDOF 5
ENDMDL
MODEL       37
REMARK 921   NORMALIZED FREE ENERGY PREDICTED BY IDOCK:   -5.16 KCAL/MOL
REMARK 922        TOTAL FREE ENERGY PREDICTED BY IDOCK:   -5.61 KCAL/MOL
REMARK 923 INTER-LIGAND FREE ENERGY PREDICTED BY IDOCK:   -6.70 KCAL/MOL
REMARK 924 INTRA-LIGAND FREE ENERGY PREDICTED BY IDOCK:    1.10 KCAL/MOL
REMARK 927      BINDING AFFINITY PREDICTED BY RF-SCORE:    0.00 PKD
ROOT
HETATM    1  C   UNL     1     -10.906  12.948  66.627  1.00  0.00    -0.288 C  
HETATM    2  C   UNL     1     -11.782  11.938  67.121  1.00  0.00    -0.311 C  
HETATM    3  C   UNL     1     -10.680  12.460  67.954  1.00  0.00    -0.245 C  
HETATM    4  C   UNL     1      -9.957  14.293  67.293  1.00  0.00    -0.252 C  
HETATM    5  C   UNL     1     -11.022  11.668  69.444  1.00  0.00    -0.211 C  
HETATM    6  C   UNL     1      -8.432   9.738  64.598  1.00  0.00    -0.179 C  
HETATM    7  F   UNL     1      -9.783  10.107  62.684  1.00  0.00    -0.324 F  
HETATM    8  C   UNL     1     -10.385  13.681  68.417  1.00  0.00    -0.248 C  
HETATM    9  C   UNL     1      -7.157   9.284  66.781  1.00  0.00    -0.082 C  
HETATM   10  C   UNL     1      -9.150  10.736  63.714  1.00  0.00    -0.200 C  
HETATM   11  C   UNL     1     -11.490  14.412  69.288  1.00  0.00    -0.323 C  
HETATM   12  C   UNL     1      -7.564  10.376  65.711  1.00  0.00    -0.147 C  
HETATM   13  C   UNL     1      -8.699  13.071  68.898  1.00  0.00     0.307 C  
HETATM   14  C   UNL     1      -6.247  10.705  65.018  1.00  0.00     0.004 C  
HETATM   15  C   UNL     1      -7.806  12.332  67.658  1.00  0.00    -0.156 C  
HETATM   16  C   UNL     1      -5.851   9.989  63.935  1.00  0.00    -0.129 C  
HETATM   17  O   UNL     1      -6.374   8.287  62.331  1.00  0.00    -0.086 OA 
HETATM   18  C   UNL     1      -6.717   8.907  63.327  1.00  0.00    -0.090 C  
HETATM   19  C   UNL     1      -8.003   8.584  64.045  1.00  0.00    -0.159 C  
HETATM   20  O   UNL     1      -6.960  13.317  67.056  1.00  0.00    -0.401 OA 
HETATM   21  C   UNL     1      -8.506  11.390  66.497  1.00  0.00    -0.170 C  
HETATM   22  C   UNL     1      -9.586  12.274  65.676  1.00  0.00    -0.148 C  
HETATM   23  F   UNL     1      -9.279  10.391  67.121  1.00  0.00    -0.143 F  
HETATM   24  H   UNL     1      -6.461  12.904  66.362  1.00  0.00     0.000 HD 
HETATM   25  C   UNL     1     -10.202  11.481  64.510  1.00  0.00    -0.338 C  
ENDROOT
BRANCH   4  26
HETATM   26  C   UNL     1      -8.971  15.432  67.951  1.00  0.00    -0.173 C  
HETATM   27  O   UNL     1      -9.029  15.911  69.083  1.00  0.00    -0.229 OA 
BRANCH  26  28
HETATM   28  S   UNL     1      -7.802  16.121  66.799  1.00  0.00    -0.256 SA 
HETATM   29  F   UNL     1      -7.205  18.646  66.587  1.00  0.00    -0.205 F  
HETATM   30  C   UNL     1      -7.744  17.798  67.507  1.00  0.00    -0.206 C  
ENDBRANCH  26  28
ENDBRANCH   4  26
BRANCH   4  31
HETATM   31  O   UNL     1     -10.966  15.216  66.614  1.00  0.00    -0.317 OA 
BRANCH  31  32
HETATM   32  C   UNL     1     -10.820  16.000  65.514  1.00  0.00    -0.292 C  
HETATM   33  O   UNL     1     -10.566  17.190  65.528  1.00  0.00    -0.563 OA 
BRANCH  32  34
HETATM   34  C   UNL     1     -10.962  15.191  64.250  1.00  0.00     0.173 C  
HETATM   35  C   UNL     1     -12.359  14.591  64.160  1.00  0.00    -0.317 C  
ENDBRANCH  32  34
ENDBRANCH  31  32
ENDBRANCH   4  31
TORSDOF 5
ENDMDL
MODEL       38
REMARK 921   NORMALIZED FREE ENERGY PREDICTED BY IDOCK:   -5.10 KCAL/MOL
REMARK 922        TOTAL FREE ENERGY PREDICTED BY IDOCK:   -5.52 KCAL/MOL
REMARK 923 INTER-LIGAND FREE ENERGY PREDICTED BY IDOCK:   -6.03 KCAL/MOL
REMARK 924 INTRA-LIGAND FREE ENERGY PREDICTED BY IDOCK:    0.51 KCAL/MOL
REMARK 927      BINDING AFFINITY PREDICTED BY RF-SCORE:    0.00 PKD
ROOT
HETATM    1  C   UNL     1      -7.962   7.803  70.550  1.00  0.00    -0.098 C  
HETATM    2  C   UNL     1      -7.819   8.491  71.790  1.00  0.00    -0.161 C  
HETATM    3  C   UNL     1      -9.037   7.712  71.491  1.00  0.00    -0.150 C  
HETATM    4  C   UNL     1      -8.769   6.336  69.957  1.00  0.00    -0.141 C  
HETATM    5  C   UNL     1      -9.843   7.812  73.009  1.00  0.00    -0.344 C  
HETATM    6  C   UNL     1      -9.430  11.644  68.644  1.00  0.00    -0.129 C  
HETATM    7  F   UNL     1      -7.169  12.045  68.051  1.00  0.00    -0.076 F  
HETATM    8  C   UNL     1      -9.249   6.419  71.216  1.00  0.00    -0.158 C  
HETATM    9  C   UNL     1     -11.812  11.207  69.501  1.00  0.00    -0.423 C  
HETATM   10  C   UNL     1      -8.117  11.071  68.152  1.00  0.00    -0.122 C  
HETATM   11  C   UNL     1      -8.739   5.358  72.278  1.00  0.00    -0.129 C  
HETATM   12  C   UNL     1     -10.606  10.635  68.650  1.00  0.00    -0.229 C  
HETATM   13  C   UNL     1     -10.977   6.834  70.681  1.00  0.00    -0.313 C  
HETATM   14  C   UNL     1     -11.133  10.664  67.220  1.00  0.00    -0.313 C  
HETATM   15  C   UNL     1     -11.107   8.046  69.500  1.00  0.00     0.037 C  
HETATM   16  C   UNL     1     -10.967  11.774  66.457  1.00  0.00    -0.342 C  
HETATM   17  O   UNL     1     -10.018  13.965  66.247  1.00  0.00    -0.288 OA 
HETATM   18  C   UNL     1     -10.196  12.980  66.949  1.00  0.00    -0.244 C  
HETATM   19  C   UNL     1      -9.707  12.937  68.375  1.00  0.00    -0.186 C  
HETATM   20  O   UNL     1     -11.169   7.424  68.212  1.00  0.00    -0.443 OA 
HETATM   21  C   UNL     1     -10.105   9.357  69.455  1.00  0.00    -0.205 C  
HETATM   22  C   UNL     1      -8.576   8.851  69.276  1.00  0.00    -0.133 C  
HETATM   23  F   UNL     1     -10.115   9.986  70.716  1.00  0.00    -0.318 F  
HETATM   24  H   UNL     1     -11.241   8.102  67.551  1.00  0.00     0.000 HD 
HETATM   25  C   UNL     1      -7.601  10.030  69.124  1.00  0.00    -0.096 C  
ENDROOT
BRANCH   4  26
HETATM   26  C   UNL     1      -9.647   5.061  69.404  1.00  0.00    -0.166 C  
HETATM   27  O   UNL     1     -10.151   4.154  70.065  1.00  0.00    -0.159 OA 
BRANCH  26  28
HETATM   28  S   UNL     1      -9.716   4.953  67.628  1.00  0.00    -0.156 SA 
HETATM   29  F   UNL     1      -8.985   2.894  66.214  1.00  0.00    -0.125 F  
HETATM   30  C   UNL     1      -9.364   3.172  67.493  1.00  0.00    -0.198 C  
ENDBRANCH  26  28
ENDBRANCH   4  26
BRANCH   4  31
HETATM   31  O   UNL     1      -7.370   5.739  69.818  1.00  0.00    -0.067 OA 
BRANCH  31  32
HETATM   32  C   UNL     1      -6.623   5.533  68.702  1.00  0.00    -0.048 C  
HETATM   33  O   UNL     1      -6.452   6.344  67.811  1.00  0.00    -0.047 OA 
BRANCH  32  34
HETATM   34  C   UNL     1      -5.978   4.170  68.726  1.00  0.00    -0.026 C  
HETATM   35  C   UNL     1      -6.402   3.406  69.972  1.00  0.00    -0.028 C  
ENDBRANCH  32  34
ENDBRANCH  31  32
ENDBRANCH   4  31
TORSDOF 5
ENDMDL
MODEL       39
REMARK 921   NORMALIZED FREE ENERGY PREDICTED BY IDOCK:   -5.06 KCAL/MOL
REMARK 922        TOTAL FREE ENERGY PREDICTED BY IDOCK:   -5.47 KCAL/MOL
REMARK 923 INTER-LIGAND FREE ENERGY PREDICTED BY IDOCK:   -6.37 KCAL/MOL
REMARK 924 INTRA-LIGAND FREE ENERGY PREDICTED BY IDOCK:    0.90 KCAL/MOL
REMARK 927      BINDING AFFINITY PREDICTED BY RF-SCORE:    0.00 PKD
ROOT
HETATM    1  C   UNL     1      -8.470   5.964  70.686  1.00  0.00    -0.129 C  
HETATM    2  C   UNL     1      -7.169   6.541  70.608  1.00  0.00    -0.074 C  
HETATM    3  C   UNL     1      -8.371   7.335  70.287  1.00  0.00    -0.135 C  
HETATM    4  C   UNL     1     -10.120   6.510  71.048  1.00  0.00    -0.184 C  
HETATM    5  C   UNL     1      -7.663   8.890  70.075  1.00  0.00    -0.078 C  
HETATM    6  C   UNL     1      -7.927   4.295  66.507  1.00  0.00    -0.098 C  
HETATM    7  F   UNL     1      -7.098   2.334  67.553  1.00  0.00    -0.045 F  
HETATM    8  C   UNL     1      -9.453   7.682  70.996  1.00  0.00    -0.164 C  
HETATM    9  C   UNL     1      -8.658   6.531  65.476  1.00  0.00    -0.109 C  
HETATM   10  C   UNL     1      -8.047   3.307  67.650  1.00  0.00    -0.080 C  
HETATM   11  C   UNL     1      -9.209   8.460  72.356  1.00  0.00    -0.345 C  
HETATM   12  C   UNL     1      -9.057   5.353  66.455  1.00  0.00    -0.141 C  
HETATM   13  C   UNL     1     -10.276   8.245  69.431  1.00  0.00    -0.204 C  
HETATM   14  C   UNL     1     -10.195   4.651  65.723  1.00  0.00    -0.283 C  
HETATM   15  C   UNL     1     -10.341   7.097  68.183  1.00  0.00    -0.196 C  
HETATM   16  C   UNL     1      -9.926   3.649  64.849  1.00  0.00    -0.137 C  
HETATM   17  O   UNL     1      -8.283   2.211  63.860  1.00  0.00    -0.079 OA 
HETATM   18  C   UNL     1      -8.520   3.136  64.622  1.00  0.00    -0.094 C  
HETATM   19  C   UNL     1      -7.409   3.864  65.339  1.00  0.00    -0.072 C  
HETATM   20  O   UNL     1     -11.597   6.414  68.256  1.00  0.00    -0.524 OA 
HETATM   21  C   UNL     1      -9.120   6.023  67.897  1.00  0.00    -0.117 C  
HETATM   22  C   UNL     1      -8.904   5.103  69.213  1.00  0.00    -0.115 C  
HETATM   23  F   UNL     1      -7.908   6.730  67.766  1.00  0.00    -0.104 F  
HETATM   24  H   UNL     1     -11.633   5.771  67.558  1.00  0.00     0.000 HD 
HETATM   25  C   UNL     1      -7.847   4.011  68.976  1.00  0.00    -0.056 C  
ENDROOT
BRANCH   4  26
HETATM   26  C   UNL     1     -11.655   7.068  71.237  1.00  0.00    -0.303 C  
HETATM   27  O   UNL     1     -12.655   6.747  70.596  1.00  0.00    -0.268 OA 
BRANCH  26  28
HETATM   28  S   UNL     1     -11.795   8.396  72.414  1.00  0.00    -0.352 SA 
HETATM   29  F   UNL     1     -13.416  10.423  72.214  1.00  0.00    -0.510 F  
HETATM   30  C   UNL     1     -13.299   9.157  71.724  1.00  0.00    -0.406 C  
ENDBRANCH  26  28
ENDBRANCH   4  26
BRANCH   4  31
HETATM   31  O   UNL     1      -9.990   5.729  72.354  1.00  0.00    -0.167 OA 
BRANCH  31  32
HETATM   32  C   UNL     1     -10.684   4.644  72.788  1.00  0.00    -0.204 C  
HETATM   33  O   UNL     1     -11.744   4.681  73.386  1.00  0.00    -0.283 OA 
BRANCH  32  34
HETATM   34  C   UNL     1      -9.996   3.365  72.386  1.00  0.00    -0.235 C  
HETATM   35  C   UNL     1      -8.653   3.242  73.093  1.00  0.00    -0.081 C  
ENDBRANCH  32  34
ENDBRANCH  31  32
ENDBRANCH   4  31
TORSDOF 5
ENDMDL
MODEL       40
REMARK 921   NORMALIZED FREE ENERGY PREDICTED BY IDOCK:   -5.05 KCAL/MOL
REMARK 922        TOTAL FREE ENERGY PREDICTED BY IDOCK:   -5.46 KCAL/MOL
REMARK 923 INTER-LIGAND FREE ENERGY PREDICTED BY IDOCK:   -6.34 KCAL/MOL
REMARK 924 INTRA-LIGAND FREE ENERGY PREDICTED BY IDOCK:    0.88 KCAL/MOL
REMARK 927      BINDING AFFINITY PREDICTED BY RF-SCORE:    0.00 PKD
ROOT
HETATM    1  C   UNL     1      -9.132   7.893  67.505  1.00  0.00    -0.141 C  
HETATM    2  C   UNL     1     -10.455   7.869  66.975  1.00  0.00    -0.419 C  
HETATM    3  C   UNL     1      -9.881   9.113  67.525  1.00  0.00    -0.227 C  
HETATM    4  C   UNL     1      -7.808   9.066  67.656  1.00  0.00    -0.101 C  
HETATM    5  C   UNL     1     -11.123  10.232  67.112  1.00  0.00    -0.165 C  
HETATM    6  C   UNL     1     -10.746   6.374  71.459  1.00  0.00    -0.282 C  
HETATM    7  F   UNL     1     -10.279   4.195  70.649  1.00  0.00    -0.261 F  
HETATM    8  C   UNL     1      -8.809   9.847  67.199  1.00  0.00    -0.146 C  
HETATM    9  C   UNL     1     -11.388   8.761  72.160  1.00  0.00    -0.411 C  
HETATM   10  C   UNL     1      -9.804   5.471  70.690  1.00  0.00    -0.192 C  
HETATM   11  C   UNL     1      -8.719  10.376  65.708  1.00  0.00    -0.180 C  
HETATM   12  C   UNL     1     -10.214   7.813  71.682  1.00  0.00    -0.225 C  
HETATM   13  C   UNL     1      -8.992  10.787  68.789  1.00  0.00    -0.171 C  
HETATM   14  C   UNL     1      -9.324   7.697  72.914  1.00  0.00    -0.253 C  
HETATM   15  C   UNL     1      -9.050   9.841  70.197  1.00  0.00    -0.197 C  
HETATM   16  C   UNL     1      -9.554   6.724  73.830  1.00  0.00    -0.258 C  
HETATM   17  O   UNL     1     -10.813   4.780  74.448  1.00  0.00    -0.344 OA 
HETATM   18  C   UNL     1     -10.631   5.677  73.638  1.00  0.00    -0.280 C  
HETATM   19  C   UNL     1     -11.513   5.827  72.424  1.00  0.00    -0.343 C  
HETATM   20  O   UNL     1      -7.728   9.751  70.741  1.00  0.00    -0.308 OA 
HETATM   21  C   UNL     1      -9.794   8.369  70.251  1.00  0.00    -0.181 C  
HETATM   22  C   UNL     1      -9.083   7.376  69.187  1.00  0.00    -0.134 C  
HETATM   23  F   UNL     1     -11.113   8.503  69.772  1.00  0.00    -0.245 F  
HETATM   24  H   UNL     1      -7.761   9.221  71.528  1.00  0.00     0.000 HD 
HETATM   25  C   UNL     1      -9.664   5.954  69.260  1.00  0.00    -0.182 C  
ENDROOT
BRANCH   4  26
HETATM   26  C   UNL     1      -6.657  10.210  67.919  1.00  0.00    -0.066 C  
HETATM   27  O   UNL     1      -5.854  10.267  68.850  1.00  0.00    -0.041 OA 
BRANCH  26  28
HETATM   28  S   UNL     1      -6.729  11.575  66.779  1.00  0.00    -0.082 SA 
HETATM   29  F   UNL     1      -6.316  14.071  67.389  1.00  0.00    -0.174 F  
HETATM   30  C   UNL     1      -6.026  12.837  67.888  1.00  0.00    -0.118 C  
ENDBRANCH  26  28
ENDBRANCH   4  26
BRANCH   4  31
HETATM   31  O   UNL     1      -7.080   8.235  66.602  1.00  0.00    -0.074 OA 
BRANCH  31  32
HETATM   32  C   UNL     1      -5.907   7.554  66.693  1.00  0.00    -0.039 C  
HETATM   33  O   UNL     1      -5.456   7.065  67.712  1.00  0.00    -0.015 OA 
BRANCH  32  34
HETATM   34  C   UNL     1      -5.246   7.431  65.344  1.00  0.00    -0.028 C  
HETATM   35  C   UNL     1      -5.480   8.693  64.524  1.00  0.00    -0.054 C  
ENDBRANCH  32  34
ENDBRANCH  31  32
ENDBRANCH   4  31
TORSDOF 5
ENDMDL
MODEL       41
REMARK 921   NORMALIZED FREE ENERGY PREDICTED BY IDOCK:   -5.03 KCAL/MOL
REMARK 922        TOTAL FREE ENERGY PREDICTED BY IDOCK:   -5.43 KCAL/MOL
REMARK 923 INTER-LIGAND FREE ENERGY PREDICTED BY IDOCK:   -6.10 KCAL/MOL
REMARK 924 INTRA-LIGAND FREE ENERGY PREDICTED BY IDOCK:    0.67 KCAL/MOL
REMARK 927      BINDING AFFINITY PREDICTED BY RF-SCORE:    0.00 PKD
ROOT
HETATM    1  C   UNL     1      -7.735   8.540  69.596  1.00  0.00    -0.093 C  
HETATM    2  C   UNL     1      -7.548   9.163  70.864  1.00  0.00    -0.146 C  
HETATM    3  C   UNL     1      -8.780   8.406  70.565  1.00  0.00    -0.152 C  
HETATM    4  C   UNL     1      -8.569   7.110  68.954  1.00  0.00    -0.129 C  
HETATM    5  C   UNL     1      -9.537   8.431  72.111  1.00  0.00    -0.367 C  
HETATM    6  C   UNL     1      -9.237  12.482  67.937  1.00  0.00    -0.200 C  
HETATM    7  F   UNL     1      -6.993  12.902  67.294  1.00  0.00    -0.144 F  
HETATM    8  C   UNL     1      -9.008   7.130  70.230  1.00  0.00    -0.152 C  
HETATM    9  C   UNL     1     -11.593  12.012  68.845  1.00  0.00    -0.377 C  
HETATM   10  C   UNL     1      -7.943  11.929  67.375  1.00  0.00    -0.162 C  
HETATM   11  C   UNL     1      -8.472   6.014  71.220  1.00  0.00    -0.128 C  
HETATM   12  C   UNL     1     -10.419  11.479  67.929  1.00  0.00    -0.211 C  
HETATM   13  C   UNL     1     -10.750   7.581  69.772  1.00  0.00    -0.249 C  
HETATM   14  C   UNL     1     -10.990  11.585  66.520  1.00  0.00    -0.346 C  
HETATM   15  C   UNL     1     -10.909   8.853  68.660  1.00  0.00     0.009 C  
HETATM   16  C   UNL     1     -10.841  12.731  65.809  1.00  0.00    -0.299 C  
HETATM   17  O   UNL     1      -9.885  14.925  65.682  1.00  0.00    -0.328 OA 
HETATM   18  C   UNL     1     -10.048  13.907  66.338  1.00  0.00    -0.295 C  
HETATM   19  C   UNL     1      -9.514  13.788  67.743  1.00  0.00    -0.216 C  
HETATM   20  O   UNL     1     -11.015   8.297  67.344  1.00  0.00    -0.496 OA 
HETATM   21  C   UNL     1      -9.900  10.159  68.651  1.00  0.00    -0.162 C  
HETATM   22  C   UNL     1      -8.382   9.656  68.397  1.00  0.00    -0.117 C  
HETATM   23  F   UNL     1      -9.867  10.723  69.942  1.00  0.00    -0.147 F  
HETATM   24  H   UNL     1     -11.104   9.009  66.722  1.00  0.00     0.000 HD 
HETATM   25  C   UNL     1      -7.404  10.836  68.276  1.00  0.00    -0.086 C  
ENDROOT
BRANCH   4  26
HETATM   26  C   UNL     1      -9.472   5.869  68.364  1.00  0.00    -0.120 C  
HETATM   27  O   UNL     1     -10.162   5.861  67.346  1.00  0.00    -0.153 OA 
BRANCH  26  28
HETATM   28  S   UNL     1      -9.540   4.455  69.444  1.00  0.00    -0.199 SA 
HETATM   29  F   UNL     1      -9.893   1.992  68.681  1.00  0.00    -0.228 F  
HETATM   30  C   UNL     1      -9.475   3.176  68.150  1.00  0.00    -0.157 C  
ENDBRANCH  26  28
ENDBRANCH   4  26
BRANCH   4  31
HETATM   31  O   UNL     1      -7.179   6.514  68.740  1.00  0.00    -0.080 OA 
BRANCH  31  32
HETATM   32  C   UNL     1      -6.620   6.003  67.612  1.00  0.00    -0.056 C  
HETATM   33  O   UNL     1      -6.179   4.874  67.495  1.00  0.00    -0.036 OA 
BRANCH  32  34
HETATM   34  C   UNL     1      -6.658   7.005  66.486  1.00  0.00    -0.052 C  
HETATM   35  C   UNL     1      -5.520   8.006  66.630  1.00  0.00    -0.029 C  
ENDBRANCH  32  34
ENDBRANCH  31  32
ENDBRANCH   4  31
TORSDOF 5
ENDMDL
MODEL       42
REMARK 921   NORMALIZED FREE ENERGY PREDICTED BY IDOCK:   -5.00 KCAL/MOL
REMARK 922        TOTAL FREE ENERGY PREDICTED BY IDOCK:   -5.40 KCAL/MOL
REMARK 923 INTER-LIGAND FREE ENERGY PREDICTED BY IDOCK:   -6.66 KCAL/MOL
REMARK 924 INTRA-LIGAND FREE ENERGY PREDICTED BY IDOCK:    1.26 KCAL/MOL
REMARK 927      BINDING AFFINITY PREDICTED BY RF-SCORE:    0.00 PKD
ROOT
HETATM    1  C   UNL     1      -8.194  11.177  66.982  1.00  0.00    -0.146 C  
HETATM    2  C   UNL     1      -7.322  10.337  66.230  1.00  0.00    -0.118 C  
HETATM    3  C   UNL     1      -8.787  10.173  66.153  1.00  0.00    -0.162 C  
HETATM    4  C   UNL     1      -9.831  11.844  66.814  1.00  0.00    -0.197 C  
HETATM    5  C   UNL     1      -8.897   8.993  64.903  1.00  0.00    -0.190 C  
HETATM    6  C   UNL     1      -7.644   8.456  70.565  1.00  0.00    -0.074 C  
HETATM    7  F   UNL     1      -5.866   9.892  71.202  1.00  0.00    -0.064 F  
HETATM    8  C   UNL     1      -9.779  10.988  65.771  1.00  0.00    -0.268 C  
HETATM    9  C   UNL     1      -9.456   6.863  69.685  1.00  0.00    -0.147 C  
HETATM   10  C   UNL     1      -7.121   9.874  70.671  1.00  0.00    -0.043 C  
HETATM   11  C   UNL     1      -9.693  11.599  64.310  1.00  0.00    -0.196 C  
HETATM   12  C   UNL     1      -9.121   8.351  70.108  1.00  0.00    -0.150 C  
HETATM   13  C   UNL     1     -11.008   9.804  66.498  1.00  0.00     0.199 C  
HETATM   14  C   UNL     1      -9.924   8.547  71.389  1.00  0.00    -0.301 C  
HETATM   15  C   UNL     1     -10.752   9.387  68.124  1.00  0.00    -0.178 C  
HETATM   16  C   UNL     1      -9.380   8.227  72.590  1.00  0.00    -0.350 C  
HETATM   17  O   UNL     1      -7.450   7.491  73.807  1.00  0.00    -0.096 OA 
HETATM   18  C   UNL     1      -7.950   7.746  72.721  1.00  0.00    -0.118 C  
HETATM   19  C   UNL     1      -7.185   7.536  71.438  1.00  0.00    -0.070 C  
HETATM   20  O   UNL     1     -11.538  10.256  68.947  1.00  0.00    -0.463 OA 
HETATM   21  C   UNL     1      -9.243   9.197  68.767  1.00  0.00    -0.136 C  
HETATM   22  C   UNL     1      -8.427  10.589  68.626  1.00  0.00    -0.138 C  
HETATM   23  F   UNL     1      -8.517   8.288  67.972  1.00  0.00    -0.126 F  
HETATM   24  H   UNL     1     -11.394  10.023  69.856  1.00  0.00     0.000 HD 
HETATM   25  C   UNL     1      -7.047  10.511  69.299  1.00  0.00    -0.097 C  
ENDROOT
BRANCH   4  26
HETATM   26  C   UNL     1     -11.400  12.323  66.705  1.00  0.00    -0.339 C  
HETATM   27  O   UNL     1     -12.220  12.420  67.618  1.00  0.00    -0.425 OA 
BRANCH  26  28
HETATM   28  S   UNL     1     -11.960  12.573  65.034  1.00  0.00    -0.428 SA 
HETATM   29  F   UNL     1     -12.640  14.862  63.998  1.00  0.00    -0.499 F  
HETATM   30  C   UNL     1     -11.898  14.393  65.041  1.00  0.00    -0.400 C  
ENDBRANCH  26  28
ENDBRANCH   4  26
BRANCH   4  31
HETATM   31  O   UNL     1      -9.155  13.196  66.597  1.00  0.00    -0.232 OA 
BRANCH  31  32
HETATM   32  C   UNL     1      -8.957  14.216  67.473  1.00  0.00    -0.198 C  
HETATM   33  O   UNL     1      -9.619  14.422  68.473  1.00  0.00    -0.210 OA 
BRANCH  32  34
HETATM   34  C   UNL     1      -7.764  15.047  67.075  1.00  0.00    -0.120 C  
HETATM   35  C   UNL     1      -7.917  16.472  67.591  1.00  0.00    -0.178 C  
ENDBRANCH  32  34
ENDBRANCH  31  32
ENDBRANCH   4  31
TORSDOF 5
ENDMDL
MODEL       43
REMARK 921   NORMALIZED FREE ENERGY PREDICTED BY IDOCK:   -4.97 KCAL/MOL
REMARK 922        TOTAL FREE ENERGY PREDICTED BY IDOCK:   -5.35 KCAL/MOL
REMARK 923 INTER-LIGAND FREE ENERGY PREDICTED BY IDOCK:   -6.31 KCAL/MOL
REMARK 924 INTRA-LIGAND FREE ENERGY PREDICTED BY IDOCK:    0.95 KCAL/MOL
REMARK 927      BINDING AFFINITY PREDICTED BY RF-SCORE:    0.00 PKD
ROOT
HETATM    1  C   UNL     1      -8.451   9.775  69.882  1.00  0.00    -0.217 C  
HETATM    2  C   UNL     1      -7.144  10.057  70.376  1.00  0.00    -0.131 C  
HETATM    3  C   UNL     1      -7.334   9.303  69.121  1.00  0.00    -0.071 C  
HETATM    4  C   UNL     1      -9.228   9.548  68.302  1.00  0.00    -0.130 C  
HETATM    5  C   UNL     1      -5.702   9.184  68.587  1.00  0.00    -0.041 C  
HETATM    6  C   UNL     1      -8.640   6.149  72.596  1.00  0.00    -0.124 C  
HETATM    7  F   UNL     1      -9.656   7.577  74.194  1.00  0.00    -0.300 F  
HETATM    8  C   UNL     1      -7.924   9.602  67.957  1.00  0.00    -0.097 C  
HETATM    9  C   UNL     1      -7.361   4.741  70.870  1.00  0.00    -0.063 C  
HETATM   10  C   UNL     1      -9.610   7.281  72.864  1.00  0.00    -0.164 C  
HETATM   11  C   UNL     1      -7.409  10.892  67.193  1.00  0.00    -0.105 C  
HETATM   12  C   UNL     1      -8.632   5.648  71.129  1.00  0.00    -0.127 C  
HETATM   13  C   UNL     1      -7.832   7.813  67.472  1.00  0.00    -0.122 C  
HETATM   14  C   UNL     1      -9.793   4.663  71.063  1.00  0.00    -0.268 C  
HETATM   15  C   UNL     1      -8.510   6.718  68.577  1.00  0.00    -0.123 C  
HETATM   16  C   UNL     1     -10.198   4.012  72.183  1.00  0.00    -0.210 C  
HETATM   17  O   UNL     1      -9.973   3.726  74.552  1.00  0.00    -0.129 OA 
HETATM   18  C   UNL     1      -9.583   4.287  73.539  1.00  0.00    -0.112 C  
HETATM   19  C   UNL     1      -8.420   5.247  73.574  1.00  0.00    -0.112 C  
HETATM   20  O   UNL     1      -9.862   6.454  68.187  1.00  0.00    -0.124 OA 
HETATM   21  C   UNL     1      -8.416   6.929  70.211  1.00  0.00    -0.139 C  
HETATM   22  C   UNL     1      -9.136   8.325  70.609  1.00  0.00    -0.164 C  
HETATM   23  F   UNL     1      -7.067   7.122  70.573  1.00  0.00    -0.057 F  
HETATM   24  H   UNL     1     -10.241   5.842  68.806  1.00  0.00     0.000 HD 
HETATM   25  C   UNL     1      -9.173   8.533  72.132  1.00  0.00    -0.336 C  
ENDROOT
BRANCH   4  26
HETATM   26  C   UNL     1      -9.891   9.193  66.840  1.00  0.00    -0.217 C  
HETATM   27  O   UNL     1     -10.809   8.408  66.602  1.00  0.00    -0.089 OA 
BRANCH  26  28
HETATM   28  S   UNL     1      -9.045   9.945  65.466  1.00  0.00    -0.207 SA 
HETATM   29  F   UNL     1     -10.189  11.205  63.497  1.00  0.00    -0.309 F  
HETATM   30  C   UNL     1     -10.473  10.842  64.779  1.00  0.00    -0.265 C  
ENDBRANCH  26  28
ENDBRANCH   4  26
BRANCH   4  31
HETATM   31  O   UNL     1      -9.906  10.894  68.548  1.00  0.00    -0.170 OA 
BRANCH  31  32
HETATM   32  C   UNL     1     -11.218  11.178  68.758  1.00  0.00    -0.253 C  
HETATM   33  O   UNL     1     -12.079  11.196  67.898  1.00  0.00    -0.627 OA 
BRANCH  32  34
HETATM   34  C   UNL     1     -11.493  11.422  70.220  1.00  0.00    -0.244 C  
HETATM   35  C   UNL     1     -12.513  10.419  70.741  1.00  0.00    -0.461 C  
ENDBRANCH  32  34
ENDBRANCH  31  32
ENDBRANCH   4  31
TORSDOF 5
ENDMDL
MODEL       44
REMARK 921   NORMALIZED FREE ENERGY PREDICTED BY IDOCK:   -4.90 KCAL/MOL
REMARK 922        TOTAL FREE ENERGY PREDICTED BY IDOCK:   -5.27 KCAL/MOL
REMARK 923 INTER-LIGAND FREE ENERGY PREDICTED BY IDOCK:   -5.98 KCAL/MOL
REMARK 924 INTRA-LIGAND FREE ENERGY PREDICTED BY IDOCK:    0.71 KCAL/MOL
REMARK 927      BINDING AFFINITY PREDICTED BY RF-SCORE:    0.00 PKD
ROOT
HETATM    1  C   UNL     1     -10.643   7.174  69.521  1.00  0.00    -0.247 C  
HETATM    2  C   UNL     1     -11.778   6.451  69.993  1.00  0.00    -0.345 C  
HETATM    3  C   UNL     1     -10.535   6.515  70.787  1.00  0.00    -0.262 C  
HETATM    4  C   UNL     1      -9.287   8.078  70.224  1.00  0.00    -0.159 C  
HETATM    5  C   UNL     1     -11.054   5.733  72.230  1.00  0.00    -0.330 C  
HETATM    6  C   UNL     1      -9.415   3.555  67.083  1.00  0.00    -0.219 C  
HETATM    7  F   UNL     1     -10.650   4.516  65.300  1.00  0.00    -0.253 F  
HETATM    8  C   UNL     1      -9.845   7.529  71.323  1.00  0.00    -0.188 C  
HETATM    9  C   UNL     1      -8.270   2.513  69.133  1.00  0.00    -0.071 C  
HETATM   10  C   UNL     1      -9.808   4.810  66.331  1.00  0.00    -0.219 C  
HETATM   11  C   UNL     1     -10.621   8.485  72.321  1.00  0.00    -0.408 C  
HETATM   12  C   UNL     1      -8.345   3.776  68.182  1.00  0.00    -0.101 C  
HETATM   13  C   UNL     1      -8.427   6.373  71.639  1.00  0.00    -0.128 C  
HETATM   14  C   UNL     1      -7.021   3.735  67.429  1.00  0.00    -0.055 C  
HETATM   15  C   UNL     1      -7.869   5.511  70.288  1.00  0.00    -0.093 C  
HETATM   16  C   UNL     1      -6.919   3.038  66.269  1.00  0.00    -0.053 C  
HETATM   17  O   UNL     1      -8.024   1.752  64.575  1.00  0.00    -0.067 OA 
HETATM   18  C   UNL     1      -8.110   2.350  65.638  1.00  0.00    -0.084 C  
HETATM   19  C   UNL     1      -9.403   2.384  66.414  1.00  0.00     0.050 C  
HETATM   20  O   UNL     1      -6.775   6.230  69.708  1.00  0.00    -0.052 OA 
HETATM   21  C   UNL     1      -8.879   4.955  69.107  1.00  0.00    -0.092 C  
HETATM   22  C   UNL     1      -9.649   6.211  68.432  1.00  0.00    -0.123 C  
HETATM   23  F   UNL     1      -9.908   4.198  69.702  1.00  0.00    -0.262 F  
HETATM   24  H   UNL     1      -6.463   5.749  68.952  1.00  0.00     0.000 HD 
HETATM   25  C   UNL     1     -10.532   5.770  67.253  1.00  0.00    -0.330 C  
ENDROOT
BRANCH   4  26
HETATM   26  C   UNL     1      -7.962   8.777  70.901  1.00  0.00    -0.135 C  
HETATM   27  O   UNL     1      -7.817   9.138  72.068  1.00  0.00    -0.325 OA 
BRANCH  26  28
HETATM   28  S   UNL     1      -6.680   9.170  69.729  1.00  0.00    -0.053 SA 
HETATM   29  F   UNL     1      -6.310  11.497  68.623  1.00  0.00    -0.049 F  
HETATM   30  C   UNL     1      -6.918  10.976  69.726  1.00  0.00    -0.090 C  
ENDBRANCH  26  28
ENDBRANCH   4  26
BRANCH   4  31
HETATM   31  O   UNL     1      -9.971   9.334  69.689  1.00  0.00    -0.175 OA 
BRANCH  31  32
HETATM   32  C   UNL     1     -10.079   9.785  68.412  1.00  0.00    -0.166 C  
HETATM   33  O   UNL     1      -9.328   9.497  67.499  1.00  0.00    -0.126 OA 
BRANCH  32  34
HETATM   34  C   UNL     1     -11.296  10.659  68.248  1.00  0.00    -0.357 C  
HETATM   35  C   UNL     1     -11.994  10.851  69.588  1.00  0.00    -0.414 C  
ENDBRANCH  32  34
ENDBRANCH  31  32
ENDBRANCH   4  31
TORSDOF 5
ENDMDL
MODEL       45
REMARK 921   NORMALIZED FREE ENERGY PREDICTED BY IDOCK:   -4.89 KCAL/MOL
REMARK 922        TOTAL FREE ENERGY PREDICTED BY IDOCK:   -5.25 KCAL/MOL
REMARK 923 INTER-LIGAND FREE ENERGY PREDICTED BY IDOCK:   -7.93 KCAL/MOL
REMARK 924 INTRA-LIGAND FREE ENERGY PREDICTED BY IDOCK:    2.69 KCAL/MOL
REMARK 927      BINDING AFFINITY PREDICTED BY RF-SCORE:    0.00 PKD
ROOT
HETATM    1  C   UNL     1     -10.453  13.651  66.149  1.00  0.00    -0.297 C  
HETATM    2  C   UNL     1      -9.301  13.506  65.323  1.00  0.00     0.535 C  
HETATM    3  C   UNL     1      -9.263  13.128  66.749  1.00  0.00    -0.232 C  
HETATM    4  C   UNL     1     -11.152  12.842  67.567  1.00  0.00    -0.263 C  
HETATM    5  C   UNL     1      -7.698  12.415  66.835  1.00  0.00     0.016 C  
HETATM    6  C   UNL     1      -9.360  17.997  66.826  1.00  0.00    -0.287 C  
HETATM    7  F   UNL     1     -10.749  18.487  64.967  1.00  0.00    -0.178 F  
HETATM    8  C   UNL     1      -9.949  12.237  67.476  1.00  0.00    -0.201 C  
HETATM    9  C   UNL     1      -7.733  17.338  68.701  1.00  0.00    -0.265 C  
HETATM   10  C   UNL     1     -10.643  17.702  66.077  1.00  0.00    -0.220 C  
HETATM   11  C   UNL     1      -9.910  10.726  66.996  1.00  0.00    -0.221 C  
HETATM   12  C   UNL     1      -9.225  17.255  68.180  1.00  0.00    -0.267 C  
HETATM   13  C   UNL     1      -9.283  13.013  69.024  1.00  0.00     0.467 C  
HETATM   14  C   UNL     1      -9.996  18.126  69.164  1.00  0.00    -0.204 C  
HETATM   15  C   UNL     1      -9.531  14.686  69.170  1.00  0.00    -0.066 C  
HETATM   16  C   UNL     1     -10.133  19.456  68.933  1.00  0.00    -0.459 C  
HETATM   17  O   UNL     1      -9.764  21.303  67.450  1.00  0.00    -0.259 OA 
HETATM   18  C   UNL     1      -9.609  20.111  67.672  1.00  0.00    -0.402 C  
HETATM   19  C   UNL     1      -8.828  19.233  66.727  1.00  0.00    -0.344 C  
HETATM   20  O   UNL     1     -10.729  14.906  69.923  1.00  0.00    -0.355 OA 
HETATM   21  C   UNL     1      -9.469  15.711  67.878  1.00  0.00    -0.204 C  
HETATM   22  C   UNL     1     -10.600  15.279  66.803  1.00  0.00    -0.304 C  
HETATM   23  F   UNL     1      -8.251  15.518  67.196  1.00  0.00    -0.167 F  
HETATM   24  H   UNL     1     -10.868  15.841  70.004  1.00  0.00     0.000 HD 
HETATM   25  C   UNL     1     -10.664  16.258  65.619  1.00  0.00    -0.297 C  
ENDROOT
BRANCH   4  26
HETATM   26  C   UNL     1     -11.698  12.173  68.966  1.00  0.00    -0.322 C  
HETATM   27  O   UNL     1     -12.070  12.759  69.983  1.00  0.00    -0.328 OA 
BRANCH  26  28
HETATM   28  S   UNL     1     -11.573  10.398  69.010  1.00  0.00    -0.089 SA 
HETATM   29  F   UNL     1     -10.798   8.992  71.059  1.00  0.00    -0.256 F  
HETATM   30  C   UNL     1     -11.303  10.232  70.803  1.00  0.00    -0.337 C  
ENDBRANCH  26  28
ENDBRANCH   4  26
BRANCH   4  31
HETATM   31  O   UNL     1     -12.230  12.321  66.619  1.00  0.00    -0.574 OA 
BRANCH  31  32
HETATM   32  C   UNL     1     -12.783  12.912  65.527  1.00  0.00    -0.145 C  
HETATM   33  O   UNL     1     -13.366  13.980  65.526  1.00  0.00    -0.673 OA 
BRANCH  32  34
HETATM   34  C   UNL     1     -12.537  12.093  64.286  1.00  0.00    -0.432 C  
HETATM   35  C   UNL     1     -12.193  13.001  63.113  1.00  0.00    -0.305 C  
ENDBRANCH  32  34
ENDBRANCH  31  32
ENDBRANCH   4  31
TORSDOF 5
ENDMDL
MODEL       46
REMARK 921   NORMALIZED FREE ENERGY PREDICTED BY IDOCK:   -4.84 KCAL/MOL
REMARK 922        TOTAL FREE ENERGY PREDICTED BY IDOCK:   -5.18 KCAL/MOL
REMARK 923 INTER-LIGAND FREE ENERGY PREDICTED BY IDOCK:   -6.14 KCAL/MOL
REMARK 924 INTRA-LIGAND FREE ENERGY PREDICTED BY IDOCK:    0.96 KCAL/MOL
REMARK 927      BINDING AFFINITY PREDICTED BY RF-SCORE:    0.00 PKD
ROOT
HETATM    1  C   UNL     1      -8.144   9.574  68.699  1.00  0.00    -0.097 C  
HETATM    2  C   UNL     1      -8.669   9.843  69.997  1.00  0.00    -0.188 C  
HETATM    3  C   UNL     1      -9.427   9.030  69.026  1.00  0.00    -0.155 C  
HETATM    4  C   UNL     1      -8.242   8.273  67.495  1.00  0.00    -0.122 C  
HETATM    5  C   UNL     1     -10.740   8.519  70.015  1.00  0.00    -0.234 C  
HETATM    6  C   UNL     1      -9.759  13.563  67.275  1.00  0.00    -0.236 C  
HETATM    7  F   UNL     1      -7.638  14.462  67.841  1.00  0.00    -0.103 F  
HETATM    8  C   UNL     1      -9.164   7.877  68.398  1.00  0.00    -0.134 C  
HETATM    9  C   UNL     1     -12.076  12.528  66.877  1.00  0.00    -0.164 C  
HETATM   10  C   UNL     1      -8.256  13.378  67.292  1.00  0.00    -0.154 C  
HETATM   11  C   UNL     1      -8.827   6.619  69.304  1.00  0.00    -0.133 C  
HETATM   12  C   UNL     1     -10.533  12.443  66.535  1.00  0.00    -0.254 C  
HETATM   13  C   UNL     1     -10.607   8.182  67.271  1.00  0.00    -0.344 C  
HETATM   14  C   UNL     1     -10.470  12.850  65.068  1.00  0.00    -0.337 C  
HETATM   15  C   UNL     1     -10.603   9.675  66.464  1.00  0.00    -0.072 C  
HETATM   16  C   UNL     1     -10.333  14.157  64.729  1.00  0.00    -0.387 C  
HETATM   17  O   UNL     1     -10.001  16.415  65.462  1.00  0.00    -0.518 OA 
HETATM   18  C   UNL     1     -10.159  15.243  65.770  1.00  0.00    -0.356 C  
HETATM   19  C   UNL     1     -10.250  14.818  67.214  1.00  0.00    -0.241 C  
HETATM   20  O   UNL     1     -10.006   9.495  65.175  1.00  0.00    -0.429 OA 
HETATM   21  C   UNL     1     -10.049  11.064  67.163  1.00  0.00    -0.193 C  
HETATM   22  C   UNL     1      -8.490  10.873  67.561  1.00  0.00    -0.123 C  
HETATM   23  F   UNL     1     -10.702  11.248  68.399  1.00  0.00    -0.179 F  
HETATM   24  H   UNL     1     -10.003  10.330  64.723  1.00  0.00     0.000 HD 
HETATM   25  C   UNL     1      -7.884  12.169  68.126  1.00  0.00    -0.147 C  
ENDROOT
BRANCH   4  26
HETATM   26  C   UNL     1      -8.471   7.127  66.339  1.00  0.00    -0.130 C  
HETATM   27  O   UNL     1      -8.403   7.268  65.118  1.00  0.00    -0.134 OA 
BRANCH  26  28
HETATM   28  S   UNL     1      -9.024   5.561  66.980  1.00  0.00    -0.113 SA 
HETATM   29  F   UNL     1      -9.825   3.543  65.545  1.00  0.00    -0.170 F  
HETATM   30  C   UNL     1      -9.070   4.667  65.394  1.00  0.00    -0.149 C  
ENDBRANCH  26  28
ENDBRANCH   4  26
BRANCH   4  31
HETATM   31  O   UNL     1      -6.790   7.964  67.850  1.00  0.00    -0.068 OA 
BRANCH  31  32
HETATM   32  C   UNL     1      -5.725   7.748  67.034  1.00  0.00    -0.032 C  
HETATM   33  O   UNL     1      -5.240   8.570  66.279  1.00  0.00    -0.030 OA 
BRANCH  32  34
HETATM   34  C   UNL     1      -5.174   6.357  67.219  1.00  0.00    -0.005 C  
HETATM   35  C   UNL     1      -5.316   5.921  68.671  1.00  0.00    -0.007 C  
ENDBRANCH  32  34
ENDBRANCH  31  32
ENDBRANCH   4  31
TORSDOF 5
ENDMDL
MODEL       47
REMARK 921   NORMALIZED FREE ENERGY PREDICTED BY IDOCK:   -4.82 KCAL/MOL
REMARK 922        TOTAL FREE ENERGY PREDICTED BY IDOCK:   -5.16 KCAL/MOL
REMARK 923 INTER-LIGAND FREE ENERGY PREDICTED BY IDOCK:   -5.81 KCAL/MOL
REMARK 924 INTRA-LIGAND FREE ENERGY PREDICTED BY IDOCK:    0.65 KCAL/MOL
REMARK 927      BINDING AFFINITY PREDICTED BY RF-SCORE:    0.00 PKD
ROOT
HETATM    1  C   UNL     1      -8.545   7.351  69.799  1.00  0.00    -0.140 C  
HETATM    2  C   UNL     1      -9.152   7.676  71.047  1.00  0.00    -0.150 C  
HETATM    3  C   UNL     1      -9.928   7.026  69.974  1.00  0.00    -0.188 C  
HETATM    4  C   UNL     1      -8.732   6.112  68.541  1.00  0.00    -0.111 C  
HETATM    5  C   UNL     1     -11.406   6.724  70.805  1.00  0.00    -0.374 C  
HETATM    6  C   UNL     1      -9.310  11.587  68.380  1.00  0.00    -0.194 C  
HETATM    7  F   UNL     1      -7.141  12.098  69.192  1.00  0.00    -0.099 F  
HETATM    8  C   UNL     1      -9.797   5.859  69.331  1.00  0.00    -0.207 C  
HETATM    9  C   UNL     1     -11.712  10.971  67.710  1.00  0.00    -0.172 C  
HETATM   10  C   UNL     1      -7.869  11.148  68.541  1.00  0.00    -0.136 C  
HETATM   11  C   UNL     1      -9.773   4.543  70.214  1.00  0.00    -0.287 C  
HETATM   12  C   UNL     1     -10.178  10.632  67.522  1.00  0.00    -0.236 C  
HETATM   13  C   UNL     1     -11.041   6.430  68.077  1.00  0.00    -0.365 C  
HETATM   14  C   UNL     1      -9.893  11.055  66.086  1.00  0.00    -0.268 C  
HETATM   15  C   UNL     1     -10.702   7.918  67.334  1.00  0.00    -0.208 C  
HETATM   16  C   UNL     1      -9.504  12.326  65.815  1.00  0.00    -0.128 C  
HETATM   17  O   UNL     1      -8.878  14.478  66.667  1.00  0.00    -0.243 OA 
HETATM   18  C   UNL     1      -9.262  13.343  66.910  1.00  0.00    -0.248 C  
HETATM   19  C   UNL     1      -9.575  12.908  68.320  1.00  0.00    -0.212 C  
HETATM   20  O   UNL     1     -10.010   7.668  66.105  1.00  0.00    -0.456 OA 
HETATM   21  C   UNL     1     -10.001   9.177  68.140  1.00  0.00    -0.176 C  
HETATM   22  C   UNL     1      -8.547   8.714  68.685  1.00  0.00    -0.131 C  
HETATM   23  F   UNL     1     -10.741   9.442  69.310  1.00  0.00    -0.217 F  
HETATM   24  H   UNL     1      -9.820   8.500  65.690  1.00  0.00     0.000 HD 
HETATM   25  C   UNL     1      -7.796   9.875  69.359  1.00  0.00    -0.127 C  
ENDROOT
BRANCH   4  26
HETATM   26  C   UNL     1      -9.025   5.048  67.323  1.00  0.00    -0.113 C  
HETATM   27  O   UNL     1      -9.612   3.968  67.394  1.00  0.00    -0.185 OA 
BRANCH  26  28
HETATM   28  S   UNL     1      -8.252   5.490  65.782  1.00  0.00    -0.129 SA 
HETATM   29  F   UNL     1      -7.163   3.821  64.108  1.00  0.00    -0.053 F  
HETATM   30  C   UNL     1      -8.073   3.802  65.122  1.00  0.00    -0.097 C  
ENDBRANCH  26  28
ENDBRANCH   4  26
BRANCH   4  31
HETATM   31  O   UNL     1      -7.397   5.552  69.028  1.00  0.00    -0.074 OA 
BRANCH  31  32
HETATM   32  C   UNL     1      -6.166   5.627  68.458  1.00  0.00    -0.033 C  
HETATM   33  O   UNL     1      -5.572   6.658  68.202  1.00  0.00    -0.011 OA 
BRANCH  32  34
HETATM   34  C   UNL     1      -5.593   4.253  68.224  1.00  0.00    -0.017 C  
HETATM   35  C   UNL     1      -6.271   3.236  69.133  1.00  0.00    -0.029 C  
ENDBRANCH  32  34
ENDBRANCH  31  32
ENDBRANCH   4  31
TORSDOF 5
ENDMDL
MODEL       48
REMARK 921   NORMALIZED FREE ENERGY PREDICTED BY IDOCK:   -4.75 KCAL/MOL
REMARK 922        TOTAL FREE ENERGY PREDICTED BY IDOCK:   -5.07 KCAL/MOL
REMARK 923 INTER-LIGAND FREE ENERGY PREDICTED BY IDOCK:   -7.21 KCAL/MOL
REMARK 924 INTRA-LIGAND FREE ENERGY PREDICTED BY IDOCK:    2.14 KCAL/MOL
REMARK 927      BINDING AFFINITY PREDICTED BY RF-SCORE:    0.00 PKD
ROOT
HETATM    1  C   UNL     1      -9.972   9.527  66.303  1.00  0.00    -0.344 C  
HETATM    2  C   UNL     1      -9.549   9.700  64.953  1.00  0.00    -0.244 C  
HETATM    3  C   UNL     1      -8.567   9.483  66.033  1.00  0.00    -0.145 C  
HETATM    4  C   UNL     1      -9.407   8.660  67.746  1.00  0.00    -0.141 C  
HETATM    5  C   UNL     1      -7.122   9.341  65.107  1.00  0.00    -0.090 C  
HETATM    6  C   UNL     1     -10.144  14.031  66.775  1.00  0.00    -0.264 C  
HETATM    7  F   UNL     1     -12.424  13.867  66.141  1.00  0.00    -0.433 F  
HETATM    8  C   UNL     1      -8.370   8.483  66.901  1.00  0.00    -0.109 C  
HETATM    9  C   UNL     1      -7.624  14.117  67.263  1.00  0.00    -0.104 C  
HETATM   10  C   UNL     1     -11.446  13.263  66.873  1.00  0.00    -0.338 C  
HETATM   11  C   UNL     1      -8.141   7.034  66.297  1.00  0.00    -0.115 C  
HETATM   12  C   UNL     1      -9.015  13.498  67.693  1.00  0.00    -0.200 C  
HETATM   13  C   UNL     1      -7.215   9.570  67.864  1.00  0.00    -0.082 C  
HETATM   14  C   UNL     1      -9.293  14.148  69.044  1.00  0.00     0.079 C  
HETATM   15  C   UNL     1      -7.847  11.071  68.340  1.00  0.00    -0.127 C  
HETATM   16  C   UNL     1      -9.954  15.331  69.107  1.00  0.00    -0.238 C  
HETATM   17  O   UNL     1     -11.134  17.057  67.935  1.00  0.00    -0.300 OA 
HETATM   18  C   UNL     1     -10.508  16.009  67.872  1.00  0.00    -0.292 C  
HETATM   19  C   UNL     1     -10.199  15.360  66.546  1.00  0.00    -0.287 C  
HETATM   20  O   UNL     1      -8.371  10.946  69.666  1.00  0.00    -0.378 OA 
HETATM   21  C   UNL     1      -8.883  11.941  67.394  1.00  0.00    -0.171 C  
HETATM   22  C   UNL     1     -10.218  11.065  67.124  1.00  0.00    -0.243 C  
HETATM   23  F   UNL     1      -8.311  12.103  66.116  1.00  0.00    -0.055 F  
HETATM   24  H   UNL     1      -8.725  11.786  69.932  1.00  0.00     0.000 HD 
HETATM   25  C   UNL     1     -11.270  11.859  66.331  1.00  0.00    -0.387 C  
ENDROOT
BRANCH   4  26
HETATM   26  C   UNL     1      -8.784   7.974  69.104  1.00  0.00    -0.137 C  
HETATM   27  O   UNL     1      -8.011   7.019  69.176  1.00  0.00    -0.115 OA 
BRANCH  26  28
HETATM   28  S   UNL     1      -9.456   8.634  70.614  1.00  0.00    -0.198 SA 
HETATM   29  F   UNL     1      -9.963   7.259  72.765  1.00  0.00    -0.181 F  
HETATM   30  C   UNL     1      -9.191   7.158  71.647  1.00  0.00    -0.144 C  
ENDBRANCH  26  28
ENDBRANCH   4  26
BRANCH   4  31
HETATM   31  O   UNL     1     -10.600   7.730  67.537  1.00  0.00    -0.260 OA 
BRANCH  31  32
HETATM   32  C   UNL     1     -10.858   6.514  68.087  1.00  0.00    -0.295 C  
HETATM   33  O   UNL     1     -11.462   6.328  69.127  1.00  0.00    -0.394 OA 
BRANCH  32  34
HETATM   34  C   UNL     1     -10.341   5.403  67.210  1.00  0.00    -0.273 C  
HETATM   35  C   UNL     1      -9.557   4.395  68.041  1.00  0.00    -0.204 C  
ENDBRANCH  32  34
ENDBRANCH  31  32
ENDBRANCH   4  31
TORSDOF 5
ENDMDL
MODEL       49
REMARK 921   NORMALIZED FREE ENERGY PREDICTED BY IDOCK:   -4.68 KCAL/MOL
REMARK 922        TOTAL FREE ENERGY PREDICTED BY IDOCK:   -4.98 KCAL/MOL
REMARK 923 INTER-LIGAND FREE ENERGY PREDICTED BY IDOCK:   -6.49 KCAL/MOL
REMARK 924 INTRA-LIGAND FREE ENERGY PREDICTED BY IDOCK:    1.51 KCAL/MOL
REMARK 927      BINDING AFFINITY PREDICTED BY RF-SCORE:    0.00 PKD
ROOT
HETATM    1  C   UNL     1      -9.006  15.081  67.177  1.00  0.00    -0.235 C  
HETATM    2  C   UNL     1      -8.683  15.550  65.870  1.00  0.00     0.173 C  
HETATM    3  C   UNL     1     -10.088  15.386  66.291  1.00  0.00    -0.309 C  
HETATM    4  C   UNL     1     -10.317  15.299  68.355  1.00  0.00    -0.227 C  
HETATM    5  C   UNL     1     -10.896  16.065  64.930  1.00  0.00    -0.391 C  
HETATM    6  C   UNL     1      -8.490  10.820  65.720  1.00  0.00    -0.174 C  
HETATM    7  F   UNL     1      -6.239  10.997  66.444  1.00  0.00    -0.091 F  
HETATM    8  C   UNL     1     -10.817  15.932  67.272  1.00  0.00    -0.279 C  
HETATM    9  C   UNL     1     -10.888  10.802  64.799  1.00  0.00    -0.046 C  
HETATM   10  C   UNL     1      -7.520  11.328  66.767  1.00  0.00    -0.146 C  
HETATM   11  C   UNL     1     -10.911  17.514  67.312  1.00  0.00    -0.132 C  
HETATM   12  C   UNL     1      -9.984  11.024  66.079  1.00  0.00    -0.285 C  
HETATM   13  C   UNL     1     -12.141  14.666  66.969  1.00  0.00    -0.214 C  
HETATM   14  C   UNL     1     -10.323   9.832  66.967  1.00  0.00    -0.305 C  
HETATM   15  C   UNL     1     -11.630  13.048  67.011  1.00  0.00    -0.360 C  
HETATM   16  C   UNL     1      -9.627   8.674  66.845  1.00  0.00    -0.254 C  
HETATM   17  O   UNL     1      -7.806   7.503  65.816  1.00  0.00    -0.095 OA 
HETATM   18  C   UNL     1      -8.453   8.537  65.899  1.00  0.00    -0.152 C  
HETATM   19  C   UNL     1      -8.154   9.721  65.014  1.00  0.00    -0.134 C  
HETATM   20  O   UNL     1     -11.848  12.535  68.329  1.00  0.00    -0.324 OA 
HETATM   21  C   UNL     1     -10.158  12.564  66.443  1.00  0.00    -0.243 C  
HETATM   22  C   UNL     1      -8.993  13.323  67.273  1.00  0.00    -0.217 C  
HETATM   23  F   UNL     1     -10.000  13.028  65.121  1.00  0.00    -0.283 F  
HETATM   24  H   UNL     1     -11.562  11.630  68.353  1.00  0.00     0.000 HD 
HETATM   25  C   UNL     1      -7.593  12.839  66.861  1.00  0.00     0.158 C  
ENDROOT
BRANCH   4  26
HETATM   26  C   UNL     1     -11.612  15.398  69.362  1.00  0.00    -0.340 C  
HETATM   27  O   UNL     1     -12.798  15.503  69.052  1.00  0.00     0.358 OA 
BRANCH  26  28
HETATM   28  S   UNL     1     -11.174  15.512  71.084  1.00  0.00    -0.329 SA 
HETATM   29  F   UNL     1     -12.553  14.522  73.058  1.00  0.00    -0.432 F  
HETATM   30  C   UNL     1     -12.417  14.339  71.715  1.00  0.00    -0.316 C  
ENDBRANCH  26  28
ENDBRANCH   4  26
BRANCH   4  31
HETATM   31  O   UNL     1      -9.311  16.096  69.183  1.00  0.00    -0.230 OA 
BRANCH  31  32
HETATM   32  C   UNL     1      -8.040  15.778  69.543  1.00  0.00    -0.137 C  
HETATM   33  O   UNL     1      -7.693  14.721  70.037  1.00  0.00     0.029 OA 
BRANCH  32  34
HETATM   34  C   UNL     1      -7.086  16.894  69.204  1.00  0.00    -0.224 C  
HETATM   35  C   UNL     1      -7.852  18.111  68.703  1.00  0.00    -0.307 C  
ENDBRANCH  32  34
ENDBRANCH  31  32
ENDBRANCH   4  31
TORSDOF 5
ENDMDL
MODEL       50
REMARK 921   NORMALIZED FREE ENERGY PREDICTED BY IDOCK:   -4.59 KCAL/MOL
REMARK 922        TOTAL FREE ENERGY PREDICTED BY IDOCK:   -4.86 KCAL/MOL
REMARK 923 INTER-LIGAND FREE ENERGY PREDICTED BY IDOCK:   -6.77 KCAL/MOL
REMARK 924 INTRA-LIGAND FREE ENERGY PREDICTED BY IDOCK:    1.91 KCAL/MOL
REMARK 927      BINDING AFFINITY PREDICTED BY RF-SCORE:    0.00 PKD
ROOT
HETATM    1  C   UNL     1     -10.053   9.447  67.876  1.00  0.00    -0.239 C  
HETATM    2  C   UNL     1      -9.376   9.121  69.088  1.00  0.00    -0.152 C  
HETATM    3  C   UNL     1      -8.713   9.923  68.040  1.00  0.00    -0.125 C  
HETATM    4  C   UNL     1     -10.050  10.773  66.695  1.00  0.00    -0.218 C  
HETATM    5  C   UNL     1      -7.258  10.348  68.857  1.00  0.00    -0.082 C  
HETATM    6  C   UNL     1      -8.837   5.425  66.176  1.00  0.00    -0.139 C  
HETATM    7  F   UNL     1     -10.907   4.611  67.001  1.00  0.00    -0.134 F  
HETATM    8  C   UNL     1      -8.999  11.103  67.475  1.00  0.00    -0.139 C  
HETATM    9  C   UNL     1      -6.544   6.361  65.494  1.00  0.00    -0.043 C  
HETATM   10  C   UNL     1     -10.314   5.679  66.395  1.00  0.00    -0.187 C  
HETATM   11  C   UNL     1      -9.152  12.351  68.441  1.00  0.00    -0.141 C  
HETATM   12  C   UNL     1      -8.112   6.526  65.361  1.00  0.00    -0.129 C  
HETATM   13  C   UNL     1      -7.734  10.760  66.162  1.00  0.00    -0.149 C  
HETATM   14  C   UNL     1      -8.388   6.159  63.907  1.00  0.00     0.070 C  
HETATM   15  C   UNL     1      -7.917   9.289  65.334  1.00  0.00    -0.108 C  
HETATM   16  C   UNL     1      -8.632   4.869  63.565  1.00  0.00    -0.128 C  
HETATM   17  O   UNL     1      -8.976   2.612  64.293  1.00  0.00    -0.103 OA 
HETATM   18  C   UNL     1      -8.721   3.767  64.600  1.00  0.00    -0.114 C  
HETATM   19  C   UNL     1      -8.420   4.151  66.027  1.00  0.00    -0.109 C  
HETATM   20  O   UNL     1      -8.669   9.529  64.139  1.00  0.00    -0.195 OA 
HETATM   21  C   UNL     1      -8.442   7.910  66.074  1.00  0.00    -0.138 C  
HETATM   22  C   UNL     1      -9.923   8.163  66.678  1.00  0.00    -0.339 C  
HETATM   23  F   UNL     1      -7.642   7.665  67.208  1.00  0.00    -0.097 F  
HETATM   24  H   UNL     1      -8.771   8.706  63.676  1.00  0.00     0.000 HD 
HETATM   25  C   UNL     1     -10.513   6.883  67.293  1.00  0.00    -0.357 C  
ENDROOT
BRANCH   4  26
HETATM   26  C   UNL     1      -9.919  11.936  65.540  1.00  0.00    -0.238 C  
HETATM   27  O   UNL     1      -9.333  13.014  65.624  1.00  0.00     0.012 OA 
BRANCH  26  28
HETATM   28  S   UNL     1     -10.880  11.607  64.078  1.00  0.00    -0.420 SA 
HETATM   29  F   UNL     1     -12.409  13.326  62.861  1.00  0.00    -0.577 F  
HETATM   30  C   UNL     1     -11.353  13.329  63.722  1.00  0.00    -0.251 C  
ENDBRANCH  26  28
ENDBRANCH   4  26
BRANCH   4  31
HETATM   31  O   UNL     1     -11.426  11.139  67.245  1.00  0.00    -0.473 OA 
BRANCH  31  32
HETATM   32  C   UNL     1     -11.854  12.299  67.809  1.00  0.00    -0.273 C  
HETATM   33  O   UNL     1     -12.109  13.323  67.202  1.00  0.00    -0.361 OA 
BRANCH  32  34
HETATM   34  C   UNL     1     -12.025  12.146  69.298  1.00  0.00    -0.318 C  
HETATM   35  C   UNL     1     -12.178  13.511  69.956  1.00  0.00    -0.381 C  
ENDBRANCH  32  34
ENDBRANCH  31  32
ENDBRANCH   4  31
TORSDOF 5
ENDMDL
MODEL       51
REMARK 921   NORMALIZED FREE ENERGY PREDICTED BY IDOCK:   -4.44 KCAL/MOL
REMARK 922        TOTAL FREE ENERGY PREDICTED BY IDOCK:   -4.67 KCAL/MOL
REMARK 923 INTER-LIGAND FREE ENERGY PREDICTED BY IDOCK:   -5.70 KCAL/MOL
REMARK 924 INTRA-LIGAND FREE ENERGY PREDICTED BY IDOCK:    1.02 KCAL/MOL
REMARK 927      BINDING AFFINITY PREDICTED BY RF-SCORE:    0.00 PKD
ROOT
HETATM    1  C   UNL     1      -8.324   9.097  69.207  1.00  0.00    -0.123 C  
HETATM    2  C   UNL     1      -8.935   9.412  70.456  1.00  0.00    -0.303 C  
HETATM    3  C   UNL     1      -9.642   8.595  69.450  1.00  0.00    -0.166 C  
HETATM    4  C   UNL     1      -8.370   7.769  68.030  1.00  0.00    -0.124 C  
HETATM    5  C   UNL     1     -11.039   8.144  70.350  1.00  0.00    -0.239 C  
HETATM    6  C   UNL     1      -9.714  13.091  67.577  1.00  0.00    -0.206 C  
HETATM    7  F   UNL     1      -7.617  13.946  68.279  1.00  0.00    -0.097 F  
HETATM    8  C   UNL     1      -9.367   7.420  68.870  1.00  0.00    -0.145 C  
HETATM    9  C   UNL     1     -12.024  12.109  67.031  1.00  0.00    -0.156 C  
HETATM   10  C   UNL     1      -8.222  12.866  67.710  1.00  0.00    -0.174 C  
HETATM   11  C   UNL     1      -9.133   6.177  69.827  1.00  0.00    -0.144 C  
HETATM   12  C   UNL     1     -10.464  11.974  66.807  1.00  0.00    -0.243 C  
HETATM   13  C   UNL     1     -10.713   7.736  67.632  1.00  0.00    -0.227 C  
HETATM   14  C   UNL     1     -10.280  12.343  65.339  1.00  0.00    -0.302 C  
HETATM   15  C   UNL     1     -10.606   9.208  66.794  1.00  0.00    -0.136 C  
HETATM   16  C   UNL     1     -10.082  13.637  64.982  1.00  0.00    -0.293 C  
HETATM   17  O   UNL     1      -9.740  15.902  65.687  1.00  0.00    -0.328 OA 
HETATM   18  C   UNL     1      -9.954  14.743  66.008  1.00  0.00    -0.313 C  
HETATM   19  C   UNL     1     -10.164  14.356  67.451  1.00  0.00    -0.247 C  
HETATM   20  O   UNL     1      -9.921   8.980  65.557  1.00  0.00    -0.437 OA 
HETATM   21  C   UNL     1     -10.067  10.598  67.501  1.00  0.00    -0.184 C  
HETATM   22  C   UNL     1      -8.548  10.376  68.018  1.00  0.00    -0.123 C  
HETATM   23  F   UNL     1     -10.803  10.830  68.679  1.00  0.00    -0.184 F  
HETATM   24  H   UNL     1      -9.862   9.803  65.088  1.00  0.00     0.000 HD 
HETATM   25  C   UNL     1      -7.949  11.668  68.597  1.00  0.00    -0.127 C  
ENDROOT
BRANCH   4  26
HETATM   26  C   UNL     1      -8.545   6.601  66.886  1.00  0.00    -0.115 C  
HETATM   27  O   UNL     1      -9.433   5.753  66.809  1.00  0.00    -0.133 OA 
BRANCH  26  28
HETATM   28  S   UNL     1      -7.184   6.508  65.742  1.00  0.00    -0.072 SA 
HETATM   29  F   UNL     1      -7.280   5.440  63.370  1.00  0.00    -0.043 F  
HETATM   30  C   UNL     1      -8.140   5.954  64.294  1.00  0.00    -0.119 C  
ENDBRANCH  26  28
ENDBRANCH   4  26
BRANCH   4  31
HETATM   31  O   UNL     1      -6.957   7.430  68.499  1.00  0.00    -0.074 OA 
BRANCH  31  32
HETATM   32  C   UNL     1      -5.833   8.194  68.486  1.00  0.00    -0.040 C  
HETATM   33  O   UNL     1      -5.449   8.863  67.544  1.00  0.00    -0.034 OA 
BRANCH  32  34
HETATM   34  C   UNL     1      -5.134   8.152  69.821  1.00  0.00    -0.023 C  
HETATM   35  C   UNL     1      -5.489   6.872  70.564  1.00  0.00    -0.023 C  
ENDBRANCH  32  34
ENDBRANCH  31  32
ENDBRANCH   4  31
TORSDOF 5
ENDMDL
MODEL       52
REMARK 921   NORMALIZED FREE ENERGY PREDICTED BY IDOCK:   -4.27 KCAL/MOL
REMARK 922        TOTAL FREE ENERGY PREDICTED BY IDOCK:   -4.46 KCAL/MOL
REMARK 923 INTER-LIGAND FREE ENERGY PREDICTED BY IDOCK:   -6.27 KCAL/MOL
REMARK 924 INTRA-LIGAND FREE ENERGY PREDICTED BY IDOCK:    1.81 KCAL/MOL
REMARK 927      BINDING AFFINITY PREDICTED BY RF-SCORE:    0.00 PKD
ROOT
HETATM    1  C   UNL     1      -9.865   9.431  68.205  1.00  0.00    -0.183 C  
HETATM    2  C   UNL     1      -9.822  10.550  69.087  1.00  0.00    -0.233 C  
HETATM    3  C   UNL     1      -8.579   9.899  68.626  1.00  0.00    -0.119 C  
HETATM    4  C   UNL     1      -8.850   8.740  66.922  1.00  0.00    -0.127 C  
HETATM    5  C   UNL     1      -7.408  10.979  69.280  1.00  0.00    -0.113 C  
HETATM    6  C   UNL     1     -10.480   6.706  71.774  1.00  0.00    -0.233 C  
HETATM    7  F   UNL     1     -12.806   6.973  71.396  1.00  0.00    -0.374 F  
HETATM    8  C   UNL     1      -8.046   9.706  67.413  1.00  0.00    -0.110 C  
HETATM    9  C   UNL     1      -7.950   6.639  72.211  1.00  0.00    -0.100 C  
HETATM   10  C   UNL     1     -11.607   6.813  70.768  1.00  0.00    -0.366 C  
HETATM   11  C   UNL     1      -7.795  10.991  66.519  1.00  0.00    -0.155 C  
HETATM   12  C   UNL     1      -9.099   6.376  71.155  1.00  0.00    -0.150 C  
HETATM   13  C   UNL     1      -6.832   8.516  68.157  1.00  0.00    -0.069 C  
HETATM   14  C   UNL     1      -9.106   4.859  71.007  1.00  0.00    -0.181 C  
HETATM   15  C   UNL     1      -7.508   7.249  69.061  1.00  0.00    -0.097 C  
HETATM   16  C   UNL     1      -9.874   4.099  71.828  1.00  0.00    -0.252 C  
HETATM   17  O   UNL     1     -11.519   4.027  73.570  1.00  0.00    -0.244 OA 
HETATM   18  C   UNL     1     -10.802   4.712  72.855  1.00  0.00    -0.221 C  
HETATM   19  C   UNL     1     -10.758   6.213  72.999  1.00  0.00    -0.276 C  
HETATM   20  O   UNL     1      -7.661   6.109  68.208  1.00  0.00    -0.094 OA 
HETATM   21  C   UNL     1      -8.850   7.445  70.002  1.00  0.00    -0.141 C  
HETATM   22  C   UNL     1     -10.089   7.913  69.070  1.00  0.00    -0.204 C  
HETATM   23  F   UNL     1      -8.644   8.531  70.876  1.00  0.00    -0.115 F  
HETATM   24  H   UNL     1      -8.040   5.401  68.715  1.00  0.00     0.000 HD 
HETATM   25  C   UNL     1     -11.398   8.015  69.870  1.00  0.00     0.052 C  
ENDROOT
BRANCH   4  26
HETATM   26  C   UNL     1      -7.823   8.038  65.848  1.00  0.00    -0.099 C  
HETATM   27  O   UNL     1      -6.789   8.511  65.378  1.00  0.00    -0.069 OA 
BRANCH  26  28
HETATM   28  S   UNL     1      -8.405   6.480  65.213  1.00  0.00    -0.083 SA 
HETATM   29  F   UNL     1      -8.478   5.810  62.698  1.00  0.00    -0.110 F  
HETATM   30  C   UNL     1      -7.829   6.701  63.499  1.00  0.00    -0.109 C  
ENDBRANCH  26  28
ENDBRANCH   4  26
BRANCH   4  31
HETATM   31  O   UNL     1      -9.930   9.206  65.949  1.00  0.00    -0.295 OA 
BRANCH  31  32
HETATM   32  C   UNL     1      -9.828  10.026  64.869  1.00  0.00    -0.281 C  
HETATM   33  O   UNL     1      -9.241   9.759  63.838  1.00  0.00    -0.256 OA 
BRANCH  32  34
HETATM   34  C   UNL     1     -10.590  11.308  65.090  1.00  0.00    -0.343 C  
HETATM   35  C   UNL     1     -11.185  11.802  63.778  1.00  0.00    -0.518 C  
ENDBRANCH  32  34
ENDBRANCH  31  32
ENDBRANCH   4  31
TORSDOF 5
ENDMDL
MODEL       53
REMARK 921   NORMALIZED FREE ENERGY PREDICTED BY IDOCK:   -4.27 KCAL/MOL
REMARK 922        TOTAL FREE ENERGY PREDICTED BY IDOCK:   -4.45 KCAL/MOL
REMARK 923 INTER-LIGAND FREE ENERGY PREDICTED BY IDOCK:   -5.16 KCAL/MOL
REMARK 924 INTRA-LIGAND FREE ENERGY PREDICTED BY IDOCK:    0.72 KCAL/MOL
REMARK 927      BINDING AFFINITY PREDICTED BY RF-SCORE:    0.00 PKD
ROOT
HETATM    1  C   UNL     1      -8.954   8.386  69.916  1.00  0.00    -0.142 C  
HETATM    2  C   UNL     1      -8.703   9.193  71.065  1.00  0.00    -0.251 C  
HETATM    3  C   UNL     1      -7.608   8.462  70.397  1.00  0.00    -0.072 C  
HETATM    4  C   UNL     1      -8.077   7.886  68.456  1.00  0.00    -0.123 C  
HETATM    5  C   UNL     1      -6.256   9.073  71.271  1.00  0.00    -0.065 C  
HETATM    6  C   UNL     1     -10.154   4.969  72.641  1.00  0.00    -0.227 C  
HETATM    7  F   UNL     1     -12.374   5.778  72.441  1.00  0.00    -0.352 F  
HETATM    8  C   UNL     1      -7.104   8.506  69.157  1.00  0.00    -0.064 C  
HETATM    9  C   UNL     1      -7.694   4.293  72.944  1.00  0.00    -0.081 C  
HETATM   10  C   UNL     1     -11.222   5.563  71.747  1.00  0.00    -0.094 C  
HETATM   11  C   UNL     1      -6.589   9.911  68.633  1.00  0.00    -0.050 C  
HETATM   12  C   UNL     1      -8.856   4.556  71.902  1.00  0.00    -0.137 C  
HETATM   13  C   UNL     1      -6.163   6.945  69.504  1.00  0.00    -0.034 C  
HETATM   14  C   UNL     1      -9.162   3.169  71.352  1.00  0.00    -0.189 C  
HETATM   15  C   UNL     1      -7.091   5.637  70.060  1.00  0.00    -0.067 C  
HETATM   16  C   UNL     1     -10.078   2.379  71.967  1.00  0.00    -0.204 C  
HETATM   17  O   UNL     1     -11.732   2.160  73.689  1.00  0.00    -0.222 OA 
HETATM   18  C   UNL     1     -10.882   2.859  73.157  1.00  0.00    -0.134 C  
HETATM   19  C   UNL     1     -10.543   4.226  73.698  1.00  0.00    -0.304 C  
HETATM   20  O   UNL     1      -7.454   4.825  68.938  1.00  0.00    -0.060 OA 
HETATM   21  C   UNL     1      -8.382   5.828  71.071  1.00  0.00    -0.123 C  
HETATM   22  C   UNL     1      -9.488   6.765  70.349  1.00  0.00    -0.168 C  
HETATM   23  F   UNL     1      -7.978   6.575  72.196  1.00  0.00    -0.100 F  
HETATM   24  H   UNL     1      -7.974   4.094  69.250  1.00  0.00     0.000 HD 
HETATM   25  C   UNL     1     -10.763   6.899  71.198  1.00  0.00    -0.252 C  
ENDROOT
BRANCH   4  26
HETATM   26  C   UNL     1      -7.194   7.315  67.192  1.00  0.00    -0.092 C  
HETATM   27  O   UNL     1      -6.183   7.813  66.698  1.00  0.00    -0.046 OA 
BRANCH  26  28
HETATM   28  S   UNL     1      -7.915   5.897  66.395  1.00  0.00    -0.103 SA 
HETATM   29  F   UNL     1      -8.555   5.746  63.877  1.00  0.00    -0.113 F  
HETATM   30  C   UNL     1      -7.736   6.482  64.680  1.00  0.00    -0.108 C  
ENDBRANCH  26  28
ENDBRANCH   4  26
BRANCH   4  31
HETATM   31  O   UNL     1      -9.027   8.800  67.687  1.00  0.00    -0.134 OA 
BRANCH  31  32
HETATM   32  C   UNL     1      -9.952   8.491  66.740  1.00  0.00    -0.281 C  
HETATM   33  O   UNL     1     -10.812   7.637  66.850  1.00  0.00    -0.328 OA 
BRANCH  32  34
HETATM   34  C   UNL     1      -9.812   9.386  65.535  1.00  0.00    -0.231 C  
HETATM   35  C   UNL     1      -9.226  10.731  65.940  1.00  0.00    -0.214 C  
ENDBRANCH  32  34
ENDBRANCH  31  32
ENDBRANCH   4  31
TORSDOF 5
ENDMDL
MODEL       54
REMARK 921   NORMALIZED FREE ENERGY PREDICTED BY IDOCK:   -4.23 KCAL/MOL
REMARK 922        TOTAL FREE ENERGY PREDICTED BY IDOCK:   -4.40 KCAL/MOL
REMARK 923 INTER-LIGAND FREE ENERGY PREDICTED BY IDOCK:   -5.66 KCAL/MOL
REMARK 924 INTRA-LIGAND FREE ENERGY PREDICTED BY IDOCK:    1.26 KCAL/MOL
REMARK 927      BINDING AFFINITY PREDICTED BY RF-SCORE:    0.00 PKD
ROOT
HETATM    1  C   UNL     1      -8.803  10.856  68.729  1.00  0.00    -0.162 C  
HETATM    2  C   UNL     1      -7.488  11.189  69.167  1.00  0.00    -0.109 C  
HETATM    3  C   UNL     1      -8.033  11.744  67.912  1.00  0.00    -0.141 C  
HETATM    4  C   UNL     1     -10.105  11.628  67.801  1.00  0.00    -0.187 C  
HETATM    5  C   UNL     1      -6.777  12.845  67.495  1.00  0.00    -0.156 C  
HETATM    6  C   UNL     1      -7.162   7.070  66.853  1.00  0.00    -0.077 C  
HETATM    7  F   UNL     1      -7.678   6.000  68.905  1.00  0.00    -0.085 F  
HETATM    8  C   UNL     1      -9.096  12.510  67.638  1.00  0.00    -0.187 C  
HETATM    9  C   UNL     1      -6.469   8.366  64.746  1.00  0.00    -0.065 C  
HETATM   10  C   UNL     1      -8.130   6.920  68.008  1.00  0.00    -0.115 C  
HETATM   11  C   UNL     1      -9.197  13.904  68.387  1.00  0.00    -0.194 C  
HETATM   12  C   UNL     1      -7.665   7.989  65.711  1.00  0.00    -0.093 C  
HETATM   13  C   UNL     1      -8.875  12.140  65.833  1.00  0.00     0.174 C  
HETATM   14  C   UNL     1      -8.540   7.080  64.856  1.00  0.00     0.157 C  
HETATM   15  C   UNL     1      -8.814  10.493  65.425  1.00  0.00    -0.187 C  
HETATM   16  C   UNL     1      -8.315   5.742  64.835  1.00  0.00    -0.127 C  
HETATM   17  O   UNL     1      -7.081   3.882  65.709  1.00  0.00    -0.064 OA 
HETATM   18  C   UNL     1      -7.259   5.091  65.703  1.00  0.00    -0.068 C  
HETATM   19  C   UNL     1      -6.391   6.014  66.521  1.00  0.00    -0.045 C  
HETATM   20  O   UNL     1     -10.130  10.066  65.054  1.00  0.00    -0.323 OA 
HETATM   21  C   UNL     1      -8.095   9.363  66.389  1.00  0.00    -0.108 C  
HETATM   22  C   UNL     1      -8.838   9.343  67.828  1.00  0.00    -0.124 C  
HETATM   23  F   UNL     1      -6.781   9.779  66.683  1.00  0.00    -0.073 F  
HETATM   24  H   UNL     1     -10.096   9.145  64.826  1.00  0.00     0.000 HD 
HETATM   25  C   UNL     1      -8.281   8.238  68.741  1.00  0.00    -0.117 C  
ENDROOT
BRANCH   4  26
HETATM   26  C   UNL     1     -11.231  12.304  66.814  1.00  0.00    -0.318 C  
HETATM   27  O   UNL     1     -11.981  11.729  66.026  1.00  0.00    -0.435 OA 
BRANCH  26  28
HETATM   28  S   UNL     1     -11.215  14.084  66.819  1.00  0.00    -0.326 SA 
HETATM   29  F   UNL     1     -11.483  15.600  64.720  1.00  0.00    -0.374 F  
HETATM   30  C   UNL     1     -11.771  14.324  65.101  1.00  0.00    -0.368 C  
ENDBRANCH  26  28
ENDBRANCH   4  26
BRANCH   4  31
HETATM   31  O   UNL     1     -10.861  11.723  69.124  1.00  0.00    -0.224 OA 
BRANCH  31  32
HETATM   32  C   UNL     1     -11.859  10.939  69.610  1.00  0.00    -0.344 C  
HETATM   33  O   UNL     1     -12.847  10.594  68.988  1.00  0.00     0.033 OA 
BRANCH  32  34
HETATM   34  C   UNL     1     -11.564  10.498  71.021  1.00  0.00    -0.318 C  
HETATM   35  C   UNL     1     -12.835  10.523  71.859  1.00  0.00    -0.509 C  
ENDBRANCH  32  34
ENDBRANCH  31  32
ENDBRANCH   4  31
TORSDOF 5
ENDMDL
MODEL       55
REMARK 921   NORMALIZED FREE ENERGY PREDICTED BY IDOCK:   -4.16 KCAL/MOL
REMARK 922        TOTAL FREE ENERGY PREDICTED BY IDOCK:   -4.31 KCAL/MOL
REMARK 923 INTER-LIGAND FREE ENERGY PREDICTED BY IDOCK:   -4.99 KCAL/MOL
REMARK 924 INTRA-LIGAND FREE ENERGY PREDICTED BY IDOCK:    0.68 KCAL/MOL
REMARK 927      BINDING AFFINITY PREDICTED BY RF-SCORE:    0.00 PKD
ROOT
HETATM    1  C   UNL     1      -6.399   7.305  67.274  1.00  0.00    -0.054 C  
HETATM    2  C   UNL     1      -5.669   6.154  67.691  1.00  0.00    -0.012 C  
HETATM    3  C   UNL     1      -6.751   6.044  66.694  1.00  0.00    -0.061 C  
HETATM    4  C   UNL     1      -7.231   7.861  65.807  1.00  0.00    -0.071 C  
HETATM    5  C   UNL     1      -6.584   4.391  66.243  1.00  0.00    -0.045 C  
HETATM    6  C   UNL     1      -9.092   6.846  70.890  1.00  0.00    -0.153 C  
HETATM    7  F   UNL     1      -7.603   8.315  72.007  1.00  0.00    -0.090 F  
HETATM    8  C   UNL     1      -6.936   6.584  65.483  1.00  0.00    -0.053 C  
HETATM    9  C   UNL     1     -10.531   5.117  69.650  1.00  0.00    -0.262 C  
HETATM   10  C   UNL     1      -8.220   8.082  70.815  1.00  0.00    -0.113 C  
HETATM   11  C   UNL     1      -5.808   6.332  64.398  1.00  0.00    -0.022 C  
HETATM   12  C   UNL     1      -9.946   6.587  69.623  1.00  0.00    -0.186 C  
HETATM   13  C   UNL     1      -8.703   6.018  65.520  1.00  0.00    -0.120 C  
HETATM   14  C   UNL     1     -11.178   7.464  69.816  1.00  0.00    -0.110 C  
HETATM   15  C   UNL     1      -9.601   6.504  66.876  1.00  0.00    -0.158 C  
HETATM   16  C   UNL     1     -11.589   7.796  71.066  1.00  0.00    -0.301 C  
HETATM   17  O   UNL     1     -11.166   7.718  73.424  1.00  0.00    -0.315 OA 
HETATM   18  C   UNL     1     -10.814   7.388  72.301  1.00  0.00    -0.247 C  
HETATM   19  C   UNL     1      -9.613   6.500  72.085  1.00  0.00    -0.151 C  
HETATM   20  O   UNL     1     -10.298   7.712  66.552  1.00  0.00    -0.476 OA 
HETATM   21  C   UNL     1      -8.945   6.609  68.387  1.00  0.00    -0.123 C  
HETATM   22  C   UNL     1      -7.729   7.679  68.365  1.00  0.00    -0.119 C  
HETATM   23  F   UNL     1      -8.322   5.384  68.703  1.00  0.00    -0.093 F  
HETATM   24  H   UNL     1     -10.800   7.985  67.311  1.00  0.00     0.000 HD 
HETATM   25  C   UNL     1      -7.139   7.899  69.769  1.00  0.00    -0.061 C  
ENDROOT
BRANCH   4  26
HETATM   26  C   UNL     1      -8.121   8.287  64.492  1.00  0.00    -0.146 C  
HETATM   27  O   UNL     1      -8.077   7.795  63.365  1.00  0.00    -0.136 OA 
BRANCH  26  28
HETATM   28  S   UNL     1      -9.136   9.726  64.748  1.00  0.00    -0.249 SA 
HETATM   29  F   UNL     1      -9.493  11.645  63.025  1.00  0.00    -0.339 F  
HETATM   30  C   UNL     1      -9.100  10.340  63.033  1.00  0.00    -0.271 C  
ENDBRANCH  26  28
ENDBRANCH   4  26
BRANCH   4  31
HETATM   31  O   UNL     1      -6.090   8.864  65.655  1.00  0.00    -0.051 OA 
BRANCH  31  32
HETATM   32  C   UNL     1      -6.048  10.185  65.974  1.00  0.00    -0.083 C  
HETATM   33  O   UNL     1      -6.625  10.699  66.914  1.00  0.00    -0.075 OA 
BRANCH  32  34
HETATM   34  C   UNL     1      -5.142  10.940  65.035  1.00  0.00    -0.094 C  
HETATM   35  C   UNL     1      -5.276  10.396  63.619  1.00  0.00    -0.146 C  
ENDBRANCH  32  34
ENDBRANCH  31  32
ENDBRANCH   4  31
TORSDOF 5
ENDMDL
MODEL       56
REMARK 921   NORMALIZED FREE ENERGY PREDICTED BY IDOCK:   -4.15 KCAL/MOL
REMARK 922        TOTAL FREE ENERGY PREDICTED BY IDOCK:   -4.29 KCAL/MOL
REMARK 923 INTER-LIGAND FREE ENERGY PREDICTED BY IDOCK:   -6.91 KCAL/MOL
REMARK 924 INTRA-LIGAND FREE ENERGY PREDICTED BY IDOCK:    2.61 KCAL/MOL
REMARK 927      BINDING AFFINITY PREDICTED BY RF-SCORE:    0.00 PKD
ROOT
HETATM    1  C   UNL     1      -8.230   8.620  64.941  1.00  0.00    -0.159 C  
HETATM    2  C   UNL     1      -7.032   9.173  64.402  1.00  0.00    -0.091 C  
HETATM    3  C   UNL     1      -7.173   8.936  65.853  1.00  0.00    -0.089 C  
HETATM    4  C   UNL     1      -8.693   7.597  66.317  1.00  0.00    -0.152 C  
HETATM    5  C   UNL     1      -5.578   9.312  66.380  1.00  0.00    -0.052 C  
HETATM    6  C   UNL     1     -10.057  12.768  65.000  1.00  0.00    -0.239 C  
HETATM    7  F   UNL     1     -10.909  12.267  62.844  1.00  0.00    -0.376 F  
HETATM    8  C   UNL     1      -7.390   7.834  66.581  1.00  0.00    -0.088 C  
HETATM    9  C   UNL     1      -8.929  13.277  67.251  1.00  0.00    -0.217 C  
HETATM   10  C   UNL     1     -10.678  11.738  64.078  1.00  0.00    -0.378 C  
HETATM   11  C   UNL     1      -6.365   6.637  66.409  1.00  0.00    -0.042 C  
HETATM   12  C   UNL     1      -9.894  12.298  66.468  1.00  0.00    -0.240 C  
HETATM   13  C   UNL     1      -7.739   8.902  68.059  1.00  0.00    -0.101 C  
HETATM   14  C   UNL     1     -11.257  12.559  67.099  1.00  0.00    -0.352 C  
HETATM   15  C   UNL     1      -8.929  10.092  67.839  1.00  0.00    -0.128 C  
HETATM   16  C   UNL     1     -12.062  13.531  66.601  1.00  0.00    -0.447 C  
HETATM   17  O   UNL     1     -12.432  15.182  64.904  1.00  0.00    -0.109 OA 
HETATM   18  C   UNL     1     -11.690  14.331  65.371  1.00  0.00    -0.354 C  
HETATM   19  C   UNL     1     -10.327  14.071  64.780  1.00  0.00    -0.407 C  
HETATM   20  O   UNL     1     -10.186   9.570  68.283  1.00  0.00    -0.177 OA 
HETATM   21  C   UNL     1      -9.118  10.909  66.417  1.00  0.00    -0.172 C  
HETATM   22  C   UNL     1      -9.454   9.851  65.237  1.00  0.00    -0.331 C  
HETATM   23  F   UNL     1      -7.880  11.467  66.039  1.00  0.00    -0.127 F  
HETATM   24  H   UNL     1     -10.851  10.236  68.159  1.00  0.00     0.000 HD 
HETATM   25  C   UNL     1      -9.743  10.559  63.903  1.00  0.00    -0.384 C  
ENDROOT
BRANCH   4  26
HETATM   26  C   UNL     1      -9.111   6.777  67.679  1.00  0.00    -0.117 C  
HETATM   27  O   UNL     1      -8.360   6.268  68.510  1.00  0.00    -0.114 OA 
BRANCH  26  28
HETATM   28  S   UNL     1     -10.862   6.496  67.837  1.00  0.00    -0.302 SA 
HETATM   29  F   UNL     1     -12.132   6.119  70.078  1.00  0.00    -0.357 F  
HETATM   30  C   UNL     1     -10.959   6.663  69.648  1.00  0.00    -0.313 C  
ENDBRANCH  26  28
ENDBRANCH   4  26
BRANCH   4  31
HETATM   31  O   UNL     1      -8.972   6.504  65.287  1.00  0.00     0.040 OA 
BRANCH  31  32
HETATM   32  C   UNL     1      -8.397   5.281  65.144  1.00  0.00    -0.145 C  
HETATM   33  O   UNL     1      -7.292   5.074  64.678  1.00  0.00    -0.061 OA 
BRANCH  32  34
HETATM   34  C   UNL     1      -9.290   4.196  65.689  1.00  0.00    -0.162 C  
HETATM   35  C   UNL     1      -9.887   3.380  64.550  1.00  0.00    -0.164 C  
ENDBRANCH  32  34
ENDBRANCH  31  32
ENDBRANCH   4  31
TORSDOF 5
ENDMDL
MODEL       57
REMARK 921   NORMALIZED FREE ENERGY PREDICTED BY IDOCK:   -4.11 KCAL/MOL
REMARK 922        TOTAL FREE ENERGY PREDICTED BY IDOCK:   -4.25 KCAL/MOL
REMARK 923 INTER-LIGAND FREE ENERGY PREDICTED BY IDOCK:   -5.84 KCAL/MOL
REMARK 924 INTRA-LIGAND FREE ENERGY PREDICTED BY IDOCK:    1.59 KCAL/MOL
REMARK 927      BINDING AFFINITY PREDICTED BY RF-SCORE:    0.00 PKD
ROOT
HETATM    1  C   UNL     1      -8.114  10.929  65.962  1.00  0.00    -0.142 C  
HETATM    2  C   UNL     1      -8.109  10.445  64.622  1.00  0.00    -0.122 C  
HETATM    3  C   UNL     1      -9.361  10.898  65.260  1.00  0.00    -0.246 C  
HETATM    4  C   UNL     1      -9.039  12.101  66.923  1.00  0.00    -0.203 C  
HETATM    5  C   UNL     1     -10.436  10.811  63.918  1.00  0.00    -0.251 C  
HETATM    6  C   UNL     1      -8.393   6.656  67.450  1.00  0.00    -0.121 C  
HETATM    7  F   UNL     1      -6.024   6.687  67.549  1.00  0.00    -0.017 F  
HETATM    8  C   UNL     1      -9.750  12.070  65.776  1.00  0.00    -0.254 C  
HETATM    9  C   UNL     1     -10.941   6.666  67.123  1.00  0.00    -0.478 C  
HETATM   10  C   UNL     1      -7.138   7.436  67.782  1.00  0.00    -0.085 C  
HETATM   11  C   UNL     1      -9.686  13.338  64.827  1.00  0.00     0.132 C  
HETATM   12  C   UNL     1      -9.713   7.378  67.822  1.00  0.00    -0.171 C  
HETATM   13  C   UNL     1     -11.216  11.226  66.541  1.00  0.00    -0.222 C  
HETATM   14  C   UNL     1      -9.910   7.060  69.300  1.00  0.00    -0.159 C  
HETATM   15  C   UNL     1     -10.862   9.880  67.512  1.00  0.00    -0.243 C  
HETATM   16  C   UNL     1      -9.380   5.929  69.829  1.00  0.00    -0.171 C  
HETATM   17  O   UNL     1      -8.012   3.988  69.503  1.00  0.00    -0.056 OA 
HETATM   18  C   UNL     1      -8.518   4.988  69.015  1.00  0.00    -0.082 C  
HETATM   19  C   UNL     1      -8.358   5.311  67.550  1.00  0.00    -0.106 C  
HETATM   20  O   UNL     1     -10.767  10.311  68.874  1.00  0.00    -0.203 OA 
HETATM   21  C   UNL     1      -9.644   8.823  67.159  1.00  0.00    -0.175 C  
HETATM   22  C   UNL     1      -8.236   9.623  67.138  1.00  0.00    -0.120 C  
HETATM   23  F   UNL     1      -9.802   8.366  65.835  1.00  0.00    -0.282 F  
HETATM   24  H   UNL     1     -10.568   9.558  69.417  1.00  0.00     0.000 HD 
HETATM   25  C   UNL     1      -7.045   8.676  66.915  1.00  0.00    -0.075 C  
ENDROOT
BRANCH   4  26
HETATM   26  C   UNL     1     -10.006  13.076  67.827  1.00  0.00    -0.227 C  
HETATM   27  O   UNL     1     -10.576  12.799  68.882  1.00  0.00    -0.212 OA 
BRANCH  26  28
HETATM   28  S   UNL     1     -10.349  14.649  67.067  1.00  0.00    -0.265 SA 
HETATM   29  F   UNL     1     -11.383  16.712  68.272  1.00  0.00    -0.361 F  
HETATM   30  C   UNL     1     -10.718  15.567  68.596  1.00  0.00    -0.252 C  
ENDBRANCH  26  28
ENDBRANCH   4  26
BRANCH   4  31
HETATM   31  O   UNL     1      -7.782  12.966  66.902  1.00  0.00    -0.019 OA 
BRANCH  31  32
HETATM   32  C   UNL     1      -6.756  13.027  67.791  1.00  0.00    -0.143 C  
HETATM   33  O   UNL     1      -5.772  13.735  67.681  1.00  0.00    -0.282 OA 
BRANCH  32  34
HETATM   34  C   UNL     1      -7.014  12.133  68.977  1.00  0.00    -0.086 C  
HETATM   35  C   UNL     1      -5.818  12.148  69.920  1.00  0.00    -0.140 C  
ENDBRANCH  32  34
ENDBRANCH  31  32
ENDBRANCH   4  31
TORSDOF 5
ENDMDL
MODEL       58
REMARK 921   NORMALIZED FREE ENERGY PREDICTED BY IDOCK:   -4.04 KCAL/MOL
REMARK 922        TOTAL FREE ENERGY PREDICTED BY IDOCK:   -4.15 KCAL/MOL
REMARK 923 INTER-LIGAND FREE ENERGY PREDICTED BY IDOCK:   -5.62 KCAL/MOL
REMARK 924 INTRA-LIGAND FREE ENERGY PREDICTED BY IDOCK:    1.47 KCAL/MOL
REMARK 927      BINDING AFFINITY PREDICTED BY RF-SCORE:    0.00 PKD
ROOT
HETATM    1  C   UNL     1     -10.323   6.145  71.261  1.00  0.00    -0.264 C  
HETATM    2  C   UNL     1     -11.398   5.225  71.436  1.00  0.00     0.275 C  
HETATM    3  C   UNL     1     -10.025   4.877  71.854  1.00  0.00    -0.250 C  
HETATM    4  C   UNL     1      -8.794   6.537  72.074  1.00  0.00    -0.133 C  
HETATM    5  C   UNL     1     -10.317   3.373  72.639  1.00  0.00    -0.217 C  
HETATM    6  C   UNL     1      -9.854   4.705  66.989  1.00  0.00    -0.232 C  
HETATM    7  F   UNL     1     -11.330   6.461  66.386  1.00  0.00    -0.282 F  
HETATM    8  C   UNL     1      -9.172   5.420  72.732  1.00  0.00    -0.142 C  
HETATM    9  C   UNL     1      -8.420   2.723  67.772  1.00  0.00    -0.103 C  
HETATM   10  C   UNL     1     -10.288   6.140  67.204  1.00  0.00    -0.230 C  
HETATM   11  C   UNL     1      -9.671   5.570  74.229  1.00  0.00    -0.182 C  
HETATM   12  C   UNL     1      -8.581   4.297  67.773  1.00  0.00    -0.107 C  
HETATM   13  C   UNL     1      -7.810   4.374  72.028  1.00  0.00    -0.090 C  
HETATM   14  C   UNL     1      -7.431   4.774  66.893  1.00  0.00    -0.086 C  
HETATM   15  C   UNL     1      -7.585   4.496  70.350  1.00  0.00    -0.053 C  
HETATM   16  C   UNL     1      -7.603   4.893  65.553  1.00  0.00    -0.085 C  
HETATM   17  O   UNL     1      -9.103   4.785  63.686  1.00  0.00    -0.120 OA 
HETATM   18  C   UNL     1      -8.941   4.643  64.889  1.00  0.00    -0.153 C  
HETATM   19  C   UNL     1     -10.056   4.149  65.777  1.00  0.00    -0.179 C  
HETATM   20  O   UNL     1      -6.571   5.474  70.096  1.00  0.00    -0.039 OA 
HETATM   21  C   UNL     1      -8.840   4.683  69.294  1.00  0.00    -0.089 C  
HETATM   22  C   UNL     1      -9.629   6.054  69.646  1.00  0.00    -0.177 C  
HETATM   23  F   UNL     1      -9.790   3.668  69.526  1.00  0.00    -0.258 F  
HETATM   24  H   UNL     1      -6.445   5.542  69.157  1.00  0.00     0.000 HD 
HETATM   25  C   UNL     1     -10.750   6.341  68.633  1.00  0.00    -0.357 C  
ENDROOT
BRANCH   4  26
HETATM   26  C   UNL     1      -7.317   6.776  72.754  1.00  0.00    -0.080 C  
HETATM   27  O   UNL     1      -6.335   6.036  72.698  1.00  0.00    -0.055 OA 
BRANCH  26  28
HETATM   28  S   UNL     1      -7.234   8.213  73.802  1.00  0.00    -0.139 SA 
HETATM   29  F   UNL     1      -5.238   9.879  73.921  1.00  0.00    -0.132 F  
HETATM   30  C   UNL     1      -5.745   8.954  73.059  1.00  0.00    -0.075 C  
ENDBRANCH  26  28
ENDBRANCH   4  26
BRANCH   4  31
HETATM   31  O   UNL     1      -9.472   7.830  72.519  1.00  0.00    -0.152 OA 
BRANCH  31  32
HETATM   32  C   UNL     1      -9.902   8.884  71.776  1.00  0.00    -0.315 C  
HETATM   33  O   UNL     1      -9.197   9.576  71.066  1.00  0.00    -0.209 OA 
BRANCH  32  34
HETATM   34  C   UNL     1     -11.393   9.063  71.901  1.00  0.00    -0.438 C  
HETATM   35  C   UNL     1     -11.888  10.094  70.895  1.00  0.00    -0.468 C  
ENDBRANCH  32  34
ENDBRANCH  31  32
ENDBRANCH   4  31
TORSDOF 5
ENDMDL
MODEL       59
REMARK 921   NORMALIZED FREE ENERGY PREDICTED BY IDOCK:   -4.01 KCAL/MOL
REMARK 922        TOTAL FREE ENERGY PREDICTED BY IDOCK:   -4.11 KCAL/MOL
REMARK 923 INTER-LIGAND FREE ENERGY PREDICTED BY IDOCK:   -6.70 KCAL/MOL
REMARK 924 INTRA-LIGAND FREE ENERGY PREDICTED BY IDOCK:    2.58 KCAL/MOL
REMARK 927      BINDING AFFINITY PREDICTED BY RF-SCORE:    0.00 PKD
ROOT
HETATM    1  C   UNL     1     -10.297   8.772  70.223  1.00  0.00    -0.227 C  
HETATM    2  C   UNL     1     -11.558   8.173  69.938  1.00  0.00     0.282 C  
HETATM    3  C   UNL     1     -10.339   7.748  69.223  1.00  0.00    -0.220 C  
HETATM    4  C   UNL     1      -8.588   8.289  70.204  1.00  0.00    -0.128 C  
HETATM    5  C   UNL     1     -10.958   6.414  68.329  1.00  0.00    -0.396 C  
HETATM    6  C   UNL     1     -11.316  12.148  67.374  1.00  0.00    -0.393 C  
HETATM    7  F   UNL     1     -12.178  13.291  69.265  1.00  0.00    -0.335 F  
HETATM    8  C   UNL     1      -9.178   7.219  69.631  1.00  0.00    -0.143 C  
HETATM    9  C   UNL     1     -10.532  10.747  65.369  1.00  0.00    -0.272 C  
HETATM   10  C   UNL     1     -11.162  12.488  68.842  1.00  0.00    -0.281 C  
HETATM   11  C   UNL     1      -9.249   5.873  70.464  1.00  0.00    -0.167 C  
HETATM   12  C   UNL     1     -10.127  11.358  66.772  1.00  0.00    -0.250 C  
HETATM   13  C   UNL     1      -8.460   7.545  67.951  1.00  0.00    -0.122 C  
HETATM   14  C   UNL     1      -9.107  12.432  66.412  1.00  0.00    -0.149 C  
HETATM   15  C   UNL     1      -8.582   9.145  67.399  1.00  0.00    -0.115 C  
HETATM   16  C   UNL     1      -9.518  13.695  66.134  1.00  0.00    -0.166 C  
HETATM   17  O   UNL     1     -11.334  15.256  66.027  1.00  0.00    -0.286 OA 
HETATM   18  C   UNL     1     -10.970  14.110  66.244  1.00  0.00    -0.303 C  
HETATM   19  C   UNL     1     -11.962  13.024  66.577  1.00  0.00    -0.457 C  
HETATM   20  O   UNL     1      -7.373   9.836  67.731  1.00  0.00    -0.088 OA 
HETATM   21  C   UNL     1      -9.892  10.099  67.716  1.00  0.00    -0.163 C  
HETATM   22  C   UNL     1     -10.053  10.264  69.319  1.00  0.00    -0.244 C  
HETATM   23  F   UNL     1     -11.061   9.419  67.319  1.00  0.00    -0.317 F  
HETATM   24  H   UNL     1      -7.441  10.732  67.422  1.00  0.00     0.000 HD 
HETATM   25  C   UNL     1     -11.197  11.226  69.680  1.00  0.00    -0.321 C  
ENDROOT
BRANCH   4  26
HETATM   26  C   UNL     1      -7.009   7.865  70.033  1.00  0.00    -0.049 C  
HETATM   27  O   UNL     1      -6.559   6.834  69.535  1.00  0.00    -0.045 OA 
BRANCH  26  28
HETATM   28  S   UNL     1      -5.874   8.995  70.810  1.00  0.00    -0.043 SA 
HETATM   29  F   UNL     1      -5.798  11.566  70.411  1.00  0.00    -0.109 F  
HETATM   30  C   UNL     1      -6.679  10.537  70.268  1.00  0.00    -0.123 C  
ENDBRANCH  26  28
ENDBRANCH   4  26
BRANCH   4  31
HETATM   31  O   UNL     1      -8.655   8.346  71.728  1.00  0.00    -0.145 OA 
BRANCH  31  32
HETATM   32  C   UNL     1      -8.342   7.393  72.646  1.00  0.00    -0.109 C  
HETATM   33  O   UNL     1      -7.435   6.589  72.543  1.00  0.00    -0.089 OA 
BRANCH  32  34
HETATM   34  C   UNL     1      -9.241   7.488  73.852  1.00  0.00    -0.314 C  
HETATM   35  C   UNL     1     -10.699   7.340  73.439  1.00  0.00    -0.415 C  
ENDBRANCH  32  34
ENDBRANCH  31  32
ENDBRANCH   4  31
TORSDOF 5
ENDMDL
MODEL       60
REMARK 921   NORMALIZED FREE ENERGY PREDICTED BY IDOCK:   -4.00 KCAL/MOL
REMARK 922        TOTAL FREE ENERGY PREDICTED BY IDOCK:   -4.11 KCAL/MOL
REMARK 923 INTER-LIGAND FREE ENERGY PREDICTED BY IDOCK:   -5.38 KCAL/MOL
REMARK 924 INTRA-LIGAND FREE ENERGY PREDICTED BY IDOCK:    1.27 KCAL/MOL
REMARK 927      BINDING AFFINITY PREDICTED BY RF-SCORE:    0.00 PKD
ROOT
HETATM    1  C   UNL     1      -8.275  13.853  69.218  1.00  0.00     0.404 C  
HETATM    2  C   UNL     1      -6.852  13.921  69.265  1.00  0.00    -0.094 C  
HETATM    3  C   UNL     1      -7.601  14.496  68.130  1.00  0.00    -0.125 C  
HETATM    4  C   UNL     1      -9.607  14.827  68.561  1.00  0.00    -0.218 C  
HETATM    5  C   UNL     1      -6.319  15.268  67.278  1.00  0.00     0.104 C  
HETATM    6  C   UNL     1      -7.965   9.685  67.465  1.00  0.00    -0.106 C  
HETATM    7  F   UNL     1      -8.098   8.892  69.696  1.00  0.00    -0.092 F  
HETATM    8  C   UNL     1      -8.531  15.455  68.042  1.00  0.00    -0.146 C  
HETATM    9  C   UNL     1      -7.638  10.656  65.109  1.00  0.00     0.027 C  
HETATM   10  C   UNL     1      -8.592   9.826  68.836  1.00  0.00    -0.134 C  
HETATM   11  C   UNL     1      -8.155  16.884  68.616  1.00  0.00    -0.253 C  
HETATM   12  C   UNL     1      -8.575  10.613  66.383  1.00  0.00    -0.151 C  
HETATM   13  C   UNL     1      -8.886  14.926  66.299  1.00  0.00    -0.108 C  
HETATM   14  C   UNL     1      -9.807   9.860  65.895  1.00  0.00    -0.342 C  
HETATM   15  C   UNL     1      -9.256  13.282  66.093  1.00  0.00     0.023 C  
HETATM   16  C   UNL     1      -9.857   8.507  65.981  1.00  0.00    -0.135 C  
HETATM   17  O   UNL     1      -8.813   6.486  66.736  1.00  0.00    -0.121 OA 
HETATM   18  C   UNL     1      -8.750   7.702  66.628  1.00  0.00    -0.141 C  
HETATM   19  C   UNL     1      -7.531   8.466  67.081  1.00  0.00    -0.089 C  
HETATM   20  O   UNL     1     -10.679  13.128  66.121  1.00  0.00    -0.274 OA 
HETATM   21  C   UNL     1      -8.532  12.089  66.975  1.00  0.00    -0.183 C  
HETATM   22  C   UNL     1      -8.843  12.328  68.547  1.00  0.00    -0.068 C  
HETATM   23  F   UNL     1      -7.133  12.228  66.875  1.00  0.00    -0.137 F  
HETATM   24  H   UNL     1     -10.886  12.208  66.007  1.00  0.00     0.000 HD 
HETATM   25  C   UNL     1      -8.282  11.191  69.417  1.00  0.00     0.176 C  
ENDROOT
BRANCH   4  26
HETATM   26  C   UNL     1     -10.809  15.664  67.815  1.00  0.00    -0.307 C  
HETATM   27  O   UNL     1     -11.749  15.209  67.164  1.00  0.00    -0.275 OA 
BRANCH  26  28
HETATM   28  S   UNL     1     -10.589  17.430  67.863  1.00  0.00    -0.352 SA 
HETATM   29  F   UNL     1     -10.069  18.940  65.807  1.00  0.00    -0.371 F  
HETATM   30  C   UNL     1     -10.599  17.710  66.063  1.00  0.00    -0.220 C  
ENDBRANCH  26  28
ENDBRANCH   4  26
BRANCH   4  31
HETATM   31  O   UNL     1      -9.942  15.171  70.010  1.00  0.00    -0.173 OA 
BRANCH  31  32
HETATM   32  C   UNL     1     -11.148  15.217  70.634  1.00  0.00    -0.308 C  
HETATM   33  O   UNL     1     -11.606  16.188  71.208  1.00  0.00    -0.426 OA 
BRANCH  32  34
HETATM   34  C   UNL     1     -11.887  13.912  70.481  1.00  0.00    -0.317 C  
HETATM   35  C   UNL     1     -12.928  13.761  71.582  1.00  0.00    -0.448 C  
ENDBRANCH  32  34
ENDBRANCH  31  32
ENDBRANCH   4  31
TORSDOF 5
ENDMDL
MODEL       61
REMARK 921   NORMALIZED FREE ENERGY PREDICTED BY IDOCK:   -3.95 KCAL/MOL
REMARK 922        TOTAL FREE ENERGY PREDICTED BY IDOCK:   -4.04 KCAL/MOL
REMARK 923 INTER-LIGAND FREE ENERGY PREDICTED BY IDOCK:   -5.00 KCAL/MOL
REMARK 924 INTRA-LIGAND FREE ENERGY PREDICTED BY IDOCK:    0.96 KCAL/MOL
REMARK 927      BINDING AFFINITY PREDICTED BY RF-SCORE:    0.00 PKD
ROOT
HETATM    1  C   UNL     1      -9.114   9.884  66.421  1.00  0.00    -0.179 C  
HETATM    2  C   UNL     1     -10.382   9.726  65.790  1.00  0.00    -0.101 C  
HETATM    3  C   UNL     1     -10.208  10.664  66.916  1.00  0.00    -0.272 C  
HETATM    4  C   UNL     1      -8.221  11.175  67.251  1.00  0.00    -0.136 C  
HETATM    5  C   UNL     1     -11.755  11.420  66.927  1.00  0.00     0.062 C  
HETATM    6  C   UNL     1     -10.005   6.268  69.003  1.00  0.00    -0.175 C  
HETATM    7  F   UNL     1      -8.908   4.986  67.336  1.00  0.00    -0.106 F  
HETATM    8  C   UNL     1      -9.436  11.743  67.095  1.00  0.00    -0.180 C  
HETATM    9  C   UNL     1     -11.337   7.721  70.650  1.00  0.00    -0.275 C  
HETATM   10  C   UNL     1      -8.859   6.164  68.019  1.00  0.00    -0.111 C  
HETATM   11  C   UNL     1      -9.577  12.918  66.039  1.00  0.00    -0.172 C  
HETATM   12  C   UNL     1      -9.945   7.510  69.927  1.00  0.00    -0.189 C  
HETATM   13  C   UNL     1      -9.841  11.712  68.905  1.00  0.00    -0.057 C  
HETATM   14  C   UNL     1      -9.015   7.091  71.059  1.00  0.00    -0.151 C  
HETATM   15  C   UNL     1      -9.541  10.241  69.698  1.00  0.00    -0.162 C  
HETATM   16  C   UNL     1      -8.889   5.781  71.387  1.00  0.00    -0.143 C  
HETATM   17  O   UNL     1      -9.445   3.504  70.882  1.00  0.00    -0.141 OA 
HETATM   18  C   UNL     1      -9.588   4.687  70.607  1.00  0.00    -0.191 C  
HETATM   19  C   UNL     1     -10.522   5.128  69.508  1.00  0.00    -0.233 C  
HETATM   20  O   UNL     1      -8.237  10.298  70.287  1.00  0.00    -0.377 OA 
HETATM   21  C   UNL     1      -9.780   8.776  68.977  1.00  0.00    -0.172 C  
HETATM   22  C   UNL     1      -8.836   8.669  67.665  1.00  0.00    -0.138 C  
HETATM   23  F   UNL     1     -11.092   8.725  68.464  1.00  0.00    -0.117 F  
HETATM   24  H   UNL     1      -8.069   9.475  70.730  1.00  0.00     0.000 HD 
HETATM   25  C   UNL     1      -8.936   7.285  67.002  1.00  0.00    -0.140 C  
ENDROOT
BRANCH   4  26
HETATM   26  C   UNL     1      -7.480  12.338  68.146  1.00  0.00    -0.112 C  
HETATM   27  O   UNL     1      -6.821  12.188  69.174  1.00  0.00    -0.099 OA 
BRANCH  26  28
HETATM   28  S   UNL     1      -7.832  13.996  67.602  1.00  0.00    -0.189 SA 
HETATM   29  F   UNL     1      -8.582  15.959  69.137  1.00  0.00    -0.194 F  
HETATM   30  C   UNL     1      -7.946  14.760  69.251  1.00  0.00    -0.103 C  
ENDBRANCH  26  28
ENDBRANCH   4  26
BRANCH   4  31
HETATM   31  O   UNL     1      -7.312  11.204  66.025  1.00  0.00    -0.079 OA 
BRANCH  31  32
HETATM   32  C   UNL     1      -5.999  10.874  65.912  1.00  0.00    -0.116 C  
HETATM   33  O   UNL     1      -5.204  11.404  65.158  1.00  0.00    -0.172 OA 
BRANCH  32  34
HETATM   34  C   UNL     1      -5.627   9.788  66.888  1.00  0.00    -0.046 C  
HETATM   35  C   UNL     1      -5.331   8.490  66.148  1.00  0.00    -0.034 C  
ENDBRANCH  32  34
ENDBRANCH  31  32
ENDBRANCH   4  31
TORSDOF 5
ENDMDL
MODEL       62
REMARK 921   NORMALIZED FREE ENERGY PREDICTED BY IDOCK:   -3.93 KCAL/MOL
REMARK 922        TOTAL FREE ENERGY PREDICTED BY IDOCK:   -4.01 KCAL/MOL
REMARK 923 INTER-LIGAND FREE ENERGY PREDICTED BY IDOCK:   -6.12 KCAL/MOL
REMARK 924 INTRA-LIGAND FREE ENERGY PREDICTED BY IDOCK:    2.11 KCAL/MOL
REMARK 927      BINDING AFFINITY PREDICTED BY RF-SCORE:    0.00 PKD
ROOT
HETATM    1  C   UNL     1      -9.351  11.930  67.048  1.00  0.00    -0.188 C  
HETATM    2  C   UNL     1      -9.902  11.256  65.919  1.00  0.00    -0.272 C  
HETATM    3  C   UNL     1     -10.620  12.376  66.558  1.00  0.00    -0.261 C  
HETATM    4  C   UNL     1      -9.391  13.564  67.740  1.00  0.00    -0.213 C  
HETATM    5  C   UNL     1     -11.929  12.568  65.456  1.00  0.00    -0.500 C  
HETATM    6  C   UNL     1     -11.076   8.718  69.741  1.00  0.00    -0.080 C  
HETATM    7  F   UNL     1      -8.994   7.606  69.509  1.00  0.00    -0.137 F  
HETATM    8  C   UNL     1     -10.311  13.664  66.757  1.00  0.00    -0.268 C  
HETATM    9  C   UNL     1     -13.353   9.907  69.769  1.00  0.00     1.439 C  
HETATM   10  C   UNL     1      -9.568   8.833  69.660  1.00  0.00    -0.171 C  
HETATM   11  C   UNL     1      -9.945  14.528  65.479  1.00  0.00    -0.373 C  
HETATM   12  C   UNL     1     -11.804  10.048  70.059  1.00  0.00    -0.196 C  
HETATM   13  C   UNL     1     -11.748  13.809  67.923  1.00  0.00    -0.395 C  
HETATM   14  C   UNL     1     -11.734  10.160  71.578  1.00  0.00    -0.290 C  
HETATM   15  C   UNL     1     -11.782  12.678  69.189  1.00  0.00    -0.321 C  
HETATM   16  C   UNL     1     -11.636   9.041  72.339  1.00  0.00    -0.124 C  
HETATM   17  O   UNL     1     -11.387   6.658  72.413  1.00  0.00    -0.258 OA 
HETATM   18  C   UNL     1     -11.511   7.662  71.727  1.00  0.00    -0.264 C  
HETATM   19  C   UNL     1     -11.607   7.575  70.224  1.00  0.00    -0.114 C  
HETATM   20  O   UNL     1     -11.162  13.262  70.340  1.00  0.00    -0.334 OA 
HETATM   21  C   UNL     1     -11.283  11.116  69.000  1.00  0.00    -0.256 C  
HETATM   22  C   UNL     1      -9.725  11.106  68.559  1.00  0.00    -0.196 C  
HETATM   23  F   UNL     1     -11.958  10.548  67.901  1.00  0.00    -0.227 F  
HETATM   24  H   UNL     1     -11.181  12.630  71.047  1.00  0.00     0.000 HD 
HETATM   25  C   UNL     1      -9.169   9.675  68.465  1.00  0.00    -0.137 C  
ENDROOT
BRANCH   4  26
HETATM   26  C   UNL     1      -9.567  15.041  68.440  1.00  0.00    -0.212 C  
HETATM   27  O   UNL     1     -10.576  15.744  68.467  1.00  0.00    -0.237 OA 
BRANCH  26  28
HETATM   28  S   UNL     1      -8.050  15.714  69.086  1.00  0.00    -0.249 SA 
HETATM   29  F   UNL     1      -7.049  18.036  68.469  1.00  0.00    -0.217 F  
HETATM   30  C   UNL     1      -8.256  17.404  68.439  1.00  0.00    -0.262 C  
ENDBRANCH  26  28
ENDBRANCH   4  26
BRANCH   4  31
HETATM   31  O   UNL     1      -7.934  13.683  67.299  1.00  0.00    -0.166 OA 
BRANCH  31  32
HETATM   32  C   UNL     1      -6.832  13.038  67.764  1.00  0.00    -0.144 C  
HETATM   33  O   UNL     1      -5.811  12.846  67.131  1.00  0.00    -0.339 OA 
BRANCH  32  34
HETATM   34  C   UNL     1      -7.013  12.625  69.202  1.00  0.00    -0.019 C  
HETATM   35  C   UNL     1      -5.697  12.751  69.958  1.00  0.00    -0.136 C  
ENDBRANCH  32  34
ENDBRANCH  31  32
ENDBRANCH   4  31
TORSDOF 5
ENDMDL
MODEL       63
REMARK 921   NORMALIZED FREE ENERGY PREDICTED BY IDOCK:   -3.92 KCAL/MOL
REMARK 922        TOTAL FREE ENERGY PREDICTED BY IDOCK:   -4.00 KCAL/MOL
REMARK 923 INTER-LIGAND FREE ENERGY PREDICTED BY IDOCK:   -5.02 KCAL/MOL
REMARK 924 INTRA-LIGAND FREE ENERGY PREDICTED BY IDOCK:    1.02 KCAL/MOL
REMARK 927      BINDING AFFINITY PREDICTED BY RF-SCORE:    0.00 PKD
ROOT
HETATM    1  C   UNL     1     -10.135   9.064  67.049  1.00  0.00    -0.318 C  
HETATM    2  C   UNL     1     -11.148   8.654  67.964  1.00  0.00     0.276 C  
HETATM    3  C   UNL     1     -10.035   9.518  68.403  1.00  0.00    -0.184 C  
HETATM    4  C   UNL     1      -9.066  10.465  66.826  1.00  0.00    -0.143 C  
HETATM    5  C   UNL     1     -10.541   9.878  70.009  1.00  0.00    -0.335 C  
HETATM    6  C   UNL     1      -7.963   5.154  67.783  1.00  0.00    -0.095 C  
HETATM    7  F   UNL     1      -9.164   4.303  65.923  1.00  0.00    -0.123 F  
HETATM    8  C   UNL     1      -9.620  10.735  68.028  1.00  0.00    -0.172 C  
HETATM    9  C   UNL     1      -6.861   6.116  69.895  1.00  0.00    -0.058 C  
HETATM   10  C   UNL     1      -8.513   5.404  66.394  1.00  0.00    -0.114 C  
HETATM   11  C   UNL     1     -10.672  11.918  68.113  1.00  0.00    -0.246 C  
HETATM   12  C   UNL     1      -7.081   6.301  68.339  1.00  0.00    -0.083 C  
HETATM   13  C   UNL     1      -8.044  10.469  68.972  1.00  0.00    -0.143 C  
HETATM   14  C   UNL     1      -5.702   6.033  67.748  1.00  0.00    -0.012 C  
HETATM   15  C   UNL     1      -7.185   9.058  68.583  1.00  0.00    -0.072 C  
HETATM   16  C   UNL     1      -5.340   4.770  67.409  1.00  0.00    -0.012 C  
HETATM   17  O   UNL     1      -5.983   2.471  67.181  1.00  0.00    -0.022 OA 
HETATM   18  C   UNL     1      -6.298   3.602  67.521  1.00  0.00    -0.037 C  
HETATM   19  C   UNL     1      -7.648   3.889  68.130  1.00  0.00    -0.066 C  
HETATM   20  O   UNL     1      -6.199   9.382  67.597  1.00  0.00    -0.053 OA 
HETATM   21  C   UNL     1      -7.933   7.637  68.201  1.00  0.00    -0.123 C  
HETATM   22  C   UNL     1      -8.859   7.861  66.890  1.00  0.00    -0.146 C  
HETATM   23  F   UNL     1      -8.850   7.312  69.221  1.00  0.00    -0.134 F  
HETATM   24  H   UNL     1      -5.719   8.592  67.379  1.00  0.00     0.000 HD 
HETATM   25  C   UNL     1      -9.506   6.547  66.420  1.00  0.00    -0.165 C  
ENDROOT
BRANCH   4  26
HETATM   26  C   UNL     1      -7.986  11.700  66.730  1.00  0.00    -0.140 C  
HETATM   27  O   UNL     1      -6.821  11.650  66.336  1.00  0.00    -0.024 OA 
BRANCH  26  28
HETATM   28  S   UNL     1      -8.577  13.226  67.429  1.00  0.00    -0.213 SA 
HETATM   29  F   UNL     1      -7.088  15.062  68.520  1.00  0.00    -0.100 F  
HETATM   30  C   UNL     1      -6.954  14.022  67.649  1.00  0.00    -0.183 C  
ENDBRANCH  26  28
ENDBRANCH   4  26
BRANCH   4  31
HETATM   31  O   UNL     1      -9.923  10.804  65.609  1.00  0.00    -0.234 OA 
BRANCH  31  32
HETATM   32  C   UNL     1      -9.620  10.728  64.287  1.00  0.00    -0.283 C  
HETATM   33  O   UNL     1      -8.984   9.833  63.762  1.00  0.00    -0.223 OA 
BRANCH  32  34
HETATM   34  C   UNL     1     -10.221  11.882  63.526  1.00  0.00    -0.485 C  
HETATM   35  C   UNL     1     -11.730  11.922  63.730  1.00  0.00    -0.554 C  
ENDBRANCH  32  34
ENDBRANCH  31  32
ENDBRANCH   4  31
TORSDOF 5
ENDMDL
MODEL       64
REMARK 921   NORMALIZED FREE ENERGY PREDICTED BY IDOCK:   -3.88 KCAL/MOL
REMARK 922        TOTAL FREE ENERGY PREDICTED BY IDOCK:   -3.95 KCAL/MOL
REMARK 923 INTER-LIGAND FREE ENERGY PREDICTED BY IDOCK:   -5.05 KCAL/MOL
REMARK 924 INTRA-LIGAND FREE ENERGY PREDICTED BY IDOCK:    1.10 KCAL/MOL
REMARK 927      BINDING AFFINITY PREDICTED BY RF-SCORE:    0.00 PKD
ROOT
HETATM    1  C   UNL     1      -6.999   7.636  67.918  1.00  0.00    -0.076 C  
HETATM    2  C   UNL     1      -6.141   6.577  67.501  1.00  0.00    -0.024 C  
HETATM    3  C   UNL     1      -7.493   6.729  66.927  1.00  0.00    -0.083 C  
HETATM    4  C   UNL     1      -8.290   8.628  67.207  1.00  0.00    -0.108 C  
HETATM    5  C   UNL     1      -7.444   5.517  65.705  1.00  0.00    -0.081 C  
HETATM    6  C   UNL     1      -8.308   5.116  71.451  1.00  0.00    -0.119 C  
HETATM    7  F   UNL     1      -6.569   6.175  72.667  1.00  0.00    -0.058 F  
HETATM    8  C   UNL     1      -8.088   7.710  66.238  1.00  0.00    -0.112 C  
HETATM    9  C   UNL     1     -10.034   3.895  69.992  1.00  0.00     0.006 C  
HETATM   10  C   UNL     1      -7.545   6.392  71.741  1.00  0.00    -0.095 C  
HETATM   11  C   UNL     1      -7.384   8.185  64.899  1.00  0.00    -0.087 C  
HETATM   12  C   UNL     1      -9.531   5.301  70.517  1.00  0.00    -0.222 C  
HETATM   13  C   UNL     1      -9.724   6.873  66.492  1.00  0.00    -0.185 C  
HETATM   14  C   UNL     1     -10.649   5.754  71.448  1.00  0.00    -0.313 C  
HETATM   15  C   UNL     1     -10.127   6.525  68.104  1.00  0.00    -0.155 C  
HETATM   16  C   UNL     1     -10.625   5.408  72.760  1.00  0.00    -0.273 C  
HETATM   17  O   UNL     1      -9.432   4.360  74.556  1.00  0.00    -0.109 OA 
HETATM   18  C   UNL     1      -9.469   4.640  73.367  1.00  0.00    -0.118 C  
HETATM   19  C   UNL     1      -8.388   4.182  72.420  1.00  0.00    -0.100 C  
HETATM   20  O   UNL     1     -10.924   7.598  68.618  1.00  0.00    -0.421 OA 
HETATM   21  C   UNL     1      -9.004   6.059  69.221  1.00  0.00    -0.122 C  
HETATM   22  C   UNL     1      -7.894   7.228  69.378  1.00  0.00    -0.122 C  
HETATM   23  F   UNL     1      -8.280   4.961  68.714  1.00  0.00    -0.082 F  
HETATM   24  H   UNL     1     -11.148   7.403  69.519  1.00  0.00     0.000 HD 
HETATM   25  C   UNL     1      -6.874   6.900  70.481  1.00  0.00    -0.058 C  
ENDROOT
BRANCH   4  26
HETATM   26  C   UNL     1      -9.580   9.426  66.575  1.00  0.00    -0.208 C  
HETATM   27  O   UNL     1     -10.639   9.705  67.137  1.00  0.00    -0.256 OA 
BRANCH  26  28
HETATM   28  S   UNL     1      -9.431   9.765  64.834  1.00  0.00    -0.217 SA 
HETATM   29  F   UNL     1     -11.027  11.289  63.454  1.00  0.00    -0.439 F  
HETATM   30  C   UNL     1     -10.667  11.101  64.754  1.00  0.00    -0.264 C  
ENDBRANCH  26  28
ENDBRANCH   4  26
BRANCH   4  31
HETATM   31  O   UNL     1      -7.292   9.783  67.246  1.00  0.00    -0.086 OA 
BRANCH  31  32
HETATM   32  C   UNL     1      -7.371  10.975  67.893  1.00  0.00    -0.092 C  
HETATM   33  O   UNL     1      -7.825  11.139  69.011  1.00  0.00    -0.138 OA 
BRANCH  32  34
HETATM   34  C   UNL     1      -6.771  12.082  67.065  1.00  0.00    -0.099 C  
HETATM   35  C   UNL     1      -5.936  13.005  67.942  1.00  0.00    -0.130 C  
ENDBRANCH  32  34
ENDBRANCH  31  32
ENDBRANCH   4  31
TORSDOF 5
ENDMDL
MODEL       65
REMARK 921   NORMALIZED FREE ENERGY PREDICTED BY IDOCK:   -3.82 KCAL/MOL
REMARK 922        TOTAL FREE ENERGY PREDICTED BY IDOCK:   -3.87 KCAL/MOL
REMARK 923 INTER-LIGAND FREE ENERGY PREDICTED BY IDOCK:   -4.64 KCAL/MOL
REMARK 924 INTRA-LIGAND FREE ENERGY PREDICTED BY IDOCK:    0.77 KCAL/MOL
REMARK 927      BINDING AFFINITY PREDICTED BY RF-SCORE:    0.00 PKD
ROOT
HETATM    1  C   UNL     1      -8.920   6.004  70.331  1.00  0.00    -0.153 C  
HETATM    2  C   UNL     1      -7.873   5.288  70.981  1.00  0.00    -0.102 C  
HETATM    3  C   UNL     1      -7.598   6.548  70.263  1.00  0.00    -0.096 C  
HETATM    4  C   UNL     1      -9.302   7.695  69.948  1.00  0.00    -0.150 C  
HETATM    5  C   UNL     1      -5.943   6.781  70.678  1.00  0.00    -0.027 C  
HETATM    6  C   UNL     1      -8.435   3.327  66.706  1.00  0.00    -0.106 C  
HETATM    7  F   UNL     1     -10.106   1.952  67.676  1.00  0.00     0.084 F  
HETATM    8  C   UNL     1      -8.041   7.802  70.417  1.00  0.00    -0.115 C  
HETATM    9  C   UNL     1      -6.502   4.782  65.841  1.00  0.00    -0.040 C  
HETATM   10  C   UNL     1      -9.741   3.249  67.469  1.00  0.00     0.073 C  
HETATM   11  C   UNL     1      -7.830   8.476  71.837  1.00  0.00    -0.157 C  
HETATM   12  C   UNL     1      -8.017   4.763  66.298  1.00  0.00    -0.103 C  
HETATM   13  C   UNL     1      -7.313   8.243  68.768  1.00  0.00    -0.088 C  
HETATM   14  C   UNL     1      -8.783   5.024  65.007  1.00  0.00    -0.151 C  
HETATM   15  C   UNL     1      -7.796   7.264  67.468  1.00  0.00    -0.112 C  
HETATM   16  C   UNL     1      -9.152   3.988  64.213  1.00  0.00    -0.142 C  
HETATM   17  O   UNL     1      -9.262   1.613  63.903  1.00  0.00    -0.093 OA 
HETATM   18  C   UNL     1      -8.898   2.547  64.603  1.00  0.00    -0.113 C  
HETATM   19  C   UNL     1      -8.117   2.316  65.872  1.00  0.00    -0.085 C  
HETATM   20  O   UNL     1      -8.909   7.886  66.817  1.00  0.00    -0.127 OA 
HETATM   21  C   UNL     1      -8.056   5.642  67.624  1.00  0.00    -0.101 C  
HETATM   22  C   UNL     1      -9.233   5.395  68.709  1.00  0.00    -0.148 C  
HETATM   23  F   UNL     1      -6.919   5.048  68.207  1.00  0.00    -0.054 F  
HETATM   24  H   UNL     1      -9.179   7.338  66.091  1.00  0.00     0.000 HD 
HETATM   25  C   UNL     1      -9.596   3.905  68.827  1.00  0.00    -0.187 C  
ENDROOT
BRANCH   4  26
HETATM   26  C   UNL     1      -9.557   9.248  69.472  1.00  0.00    -0.173 C  
HETATM   27  O   UNL     1      -9.031  10.266  69.919  1.00  0.00    -0.133 OA 
BRANCH  26  28
HETATM   28  S   UNL     1     -10.864   9.426  68.275  1.00  0.00    -0.046 SA 
HETATM   29  F   UNL     1     -12.365  11.532  67.985  1.00  0.00    -0.222 F  
HETATM   30  C   UNL     1     -11.151  11.208  68.513  1.00  0.00    -0.244 C  
ENDBRANCH  26  28
ENDBRANCH   4  26
BRANCH   4  31
HETATM   31  O   UNL     1     -10.397   7.588  71.006  1.00  0.00    -0.199 OA 
BRANCH  31  32
HETATM   32  C   UNL     1     -11.726   7.346  70.856  1.00  0.00    -0.296 C  
HETATM   33  O   UNL     1     -12.217   6.615  70.016  1.00  0.00    -0.193 OA 
BRANCH  32  34
HETATM   34  C   UNL     1     -12.530   8.067  71.909  1.00  0.00    -0.364 C  
HETATM   35  C   UNL     1     -12.471   9.571  71.682  1.00  0.00    -0.476 C  
ENDBRANCH  32  34
ENDBRANCH  31  32
ENDBRANCH   4  31
TORSDOF 5
ENDMDL
MODEL       66
REMARK 921   NORMALIZED FREE ENERGY PREDICTED BY IDOCK:   -3.82 KCAL/MOL
REMARK 922        TOTAL FREE ENERGY PREDICTED BY IDOCK:   -3.87 KCAL/MOL
REMARK 923 INTER-LIGAND FREE ENERGY PREDICTED BY IDOCK:   -6.23 KCAL/MOL
REMARK 924 INTRA-LIGAND FREE ENERGY PREDICTED BY IDOCK:    2.36 KCAL/MOL
REMARK 927      BINDING AFFINITY PREDICTED BY RF-SCORE:    0.00 PKD
ROOT
HETATM    1  C   UNL     1     -10.601  12.666  66.851  1.00  0.00    -0.256 C  
HETATM    2  C   UNL     1     -11.561  12.049  67.705  1.00  0.00    -0.400 C  
HETATM    3  C   UNL     1     -10.633  13.074  68.223  1.00  0.00    -0.260 C  
HETATM    4  C   UNL     1      -9.785  14.239  66.725  1.00  0.00    -0.275 C  
HETATM    5  C   UNL     1     -11.255  13.271  69.817  1.00  0.00    -0.029 C  
HETATM    6  C   UNL     1      -7.810   9.163  67.543  1.00  0.00    -0.100 C  
HETATM    7  F   UNL     1      -8.773   8.197  65.603  1.00  0.00    -0.147 F  
HETATM    8  C   UNL     1     -10.422  14.358  67.910  1.00  0.00    -0.239 C  
HETATM    9  C   UNL     1      -6.973  10.210  69.734  1.00  0.00    -0.118 C  
HETATM   10  C   UNL     1      -8.342   9.372  66.141  1.00  0.00    -0.115 C  
HETATM   11  C   UNL     1     -11.667  15.337  67.990  1.00  0.00    -0.268 C  
HETATM   12  C   UNL     1      -7.163  10.420  68.177  1.00  0.00    -0.087 C  
HETATM   13  C   UNL     1      -8.862  14.329  68.913  1.00  0.00    -0.022 C  
HETATM   14  C   UNL     1      -5.737  10.419  67.640  1.00  0.00    -0.044 C  
HETATM   15  C   UNL     1      -7.756  13.105  68.513  1.00  0.00    -0.117 C  
HETATM   16  C   UNL     1      -5.148   9.253  67.273  1.00  0.00    -0.036 C  
HETATM   17  O   UNL     1      -5.371   6.891  66.936  1.00  0.00    -0.016 OA 
HETATM   18  C   UNL     1      -5.892   7.935  67.301  1.00  0.00    -0.041 C  
HETATM   19  C   UNL     1      -7.292   7.958  67.860  1.00  0.00    -0.092 C  
HETATM   20  O   UNL     1      -6.804  13.636  67.584  1.00  0.00    -0.158 OA 
HETATM   21  C   UNL     1      -8.230  11.594  68.049  1.00  0.00    -0.146 C  
HETATM   22  C   UNL     1      -9.130  11.709  66.707  1.00  0.00    -0.186 C  
HETATM   23  F   UNL     1      -9.114  11.073  69.015  1.00  0.00    -0.168 F  
HETATM   24  H   UNL     1      -6.186  12.951  67.360  1.00  0.00     0.000 HD 
HETATM   25  C   UNL     1      -9.520  10.325  66.162  1.00  0.00    -0.229 C  
ENDROOT
BRANCH   4  26
HETATM   26  C   UNL     1      -8.934  15.645  66.721  1.00  0.00    -0.261 C  
HETATM   27  O   UNL     1      -7.820  15.847  66.239  1.00  0.00    -0.144 OA 
BRANCH  26  28
HETATM   28  S   UNL     1      -9.696  16.947  67.666  1.00  0.00    -0.254 SA 
HETATM   29  F   UNL     1     -10.701  19.136  66.678  1.00  0.00    -0.445 F  
HETATM   30  C   UNL     1     -10.384  17.879  66.260  1.00  0.00    -0.364 C  
ENDBRANCH  26  28
ENDBRANCH   4  26
BRANCH   4  31
HETATM   31  O   UNL     1     -10.642  14.476  65.484  1.00  0.00    -0.310 OA 
BRANCH  31  32
HETATM   32  C   UNL     1     -10.805  13.698  64.382  1.00  0.00    -0.361 C  
HETATM   33  O   UNL     1      -9.942  13.006  63.876  1.00  0.00    -0.311 OA 
BRANCH  32  34
HETATM   34  C   UNL     1     -12.227  13.757  63.883  1.00  0.00    -0.402 C  
HETATM   35  C   UNL     1     -13.194  13.862  65.055  1.00  0.00     0.171 C  
ENDBRANCH  32  34
ENDBRANCH  31  32
ENDBRANCH   4  31
TORSDOF 5
ENDMDL
MODEL       67
REMARK 921   NORMALIZED FREE ENERGY PREDICTED BY IDOCK:   -3.79 KCAL/MOL
REMARK 922        TOTAL FREE ENERGY PREDICTED BY IDOCK:   -3.83 KCAL/MOL
REMARK 923 INTER-LIGAND FREE ENERGY PREDICTED BY IDOCK:   -4.85 KCAL/MOL
REMARK 924 INTRA-LIGAND FREE ENERGY PREDICTED BY IDOCK:    1.02 KCAL/MOL
REMARK 927      BINDING AFFINITY PREDICTED BY RF-SCORE:    0.00 PKD
ROOT
HETATM    1  C   UNL     1      -9.354  10.140  69.446  1.00  0.00    -0.235 C  
HETATM    2  C   UNL     1      -8.462   9.862  70.522  1.00  0.00     0.165 C  
HETATM    3  C   UNL     1      -7.970  10.459  69.265  1.00  0.00    -0.157 C  
HETATM    4  C   UNL     1      -9.479  11.323  68.127  1.00  0.00    -0.184 C  
HETATM    5  C   UNL     1      -6.335  10.781  69.699  1.00  0.00    -0.089 C  
HETATM    6  C   UNL     1      -8.953   5.841  68.068  1.00  0.00    -0.111 C  
HETATM    7  F   UNL     1     -10.860   5.386  69.403  1.00  0.00    -0.356 F  
HETATM    8  C   UNL     1      -8.254  11.599  68.623  1.00  0.00    -0.110 C  
HETATM    9  C   UNL     1      -6.786   6.404  66.809  1.00  0.00    -0.060 C  
HETATM   10  C   UNL     1     -10.312   6.300  68.554  1.00  0.00    -0.203 C  
HETATM   11  C   UNL     1      -8.064  12.951  69.428  1.00  0.00     0.923 C  
HETATM   12  C   UNL     1      -8.320   6.750  66.984  1.00  0.00    -0.114 C  
HETATM   13  C   UNL     1      -7.351  10.963  67.131  1.00  0.00    -0.105 C  
HETATM   14  C   UNL     1      -8.945   6.270  65.680  1.00  0.00    -0.035 C  
HETATM   15  C   UNL     1      -7.860   9.448  66.558  1.00  0.00    -0.097 C  
HETATM   16  C   UNL     1      -9.387   4.992  65.566  1.00  0.00    -0.149 C  
HETATM   17  O   UNL     1      -9.786   2.885  66.637  1.00  0.00     0.051 OA 
HETATM   18  C   UNL     1      -9.355   4.025  66.731  1.00  0.00    -0.183 C  
HETATM   19  C   UNL     1      -8.709   4.516  68.002  1.00  0.00    -0.115 C  
HETATM   20  O   UNL     1      -8.829   9.654  65.524  1.00  0.00    -0.151 OA 
HETATM   21  C   UNL     1      -8.343   8.232  67.563  1.00  0.00    -0.130 C  
HETATM   22  C   UNL     1      -9.621   8.731  68.424  1.00  0.00    -0.157 C  
HETATM   23  F   UNL     1      -7.341   8.009  68.529  1.00  0.00    -0.085 F  
HETATM   24  H   UNL     1      -9.113   8.806  65.204  1.00  0.00     0.000 HD 
HETATM   25  C   UNL     1     -10.185   7.607  69.310  1.00  0.00    -0.210 C  
ENDROOT
BRANCH   4  26
HETATM   26  C   UNL     1      -9.491  12.332  66.830  1.00  0.00    -0.222 C  
HETATM   27  O   UNL     1      -8.674  13.210  66.553  1.00  0.00    -0.073 OA 
BRANCH  26  28
HETATM   28  S   UNL     1     -10.955  12.194  65.826  1.00  0.00    -0.308 SA 
HETATM   29  F   UNL     1     -11.772  13.962  64.101  1.00  0.00    -0.393 F  
HETATM   30  C   UNL     1     -10.617  13.609  64.731  1.00  0.00    -0.422 C  
ENDBRANCH  26  28
ENDBRANCH   4  26
BRANCH   4  31
HETATM   31  O   UNL     1     -10.656  11.916  68.899  1.00  0.00    -0.217 OA 
BRANCH  31  32
HETATM   32  C   UNL     1     -11.834  11.342  69.258  1.00  0.00    -0.354 C  
HETATM   33  O   UNL     1     -12.585  10.749  68.505  1.00  0.00    -0.041 OA 
BRANCH  32  34
HETATM   34  C   UNL     1     -12.078  11.486  70.738  1.00  0.00    -0.410 C  
HETATM   35  C   UNL     1     -13.035  10.406  71.225  1.00  0.00    -0.517 C  
ENDBRANCH  32  34
ENDBRANCH  31  32
ENDBRANCH   4  31
TORSDOF 5
ENDMDL
MODEL       68
REMARK 921   NORMALIZED FREE ENERGY PREDICTED BY IDOCK:   -3.77 KCAL/MOL
REMARK 922        TOTAL FREE ENERGY PREDICTED BY IDOCK:   -3.80 KCAL/MOL
REMARK 923 INTER-LIGAND FREE ENERGY PREDICTED BY IDOCK:   -4.69 KCAL/MOL
REMARK 924 INTRA-LIGAND FREE ENERGY PREDICTED BY IDOCK:    0.89 KCAL/MOL
REMARK 927      BINDING AFFINITY PREDICTED BY RF-SCORE:    0.00 PKD
ROOT
HETATM    1  C   UNL     1     -10.062   6.601  68.561  1.00  0.00    -0.166 C  
HETATM    2  C   UNL     1     -10.850   5.735  69.373  1.00  0.00    -0.393 C  
HETATM    3  C   UNL     1      -9.430   5.987  69.690  1.00  0.00    -0.167 C  
HETATM    4  C   UNL     1      -8.684   7.700  68.780  1.00  0.00    -0.128 C  
HETATM    5  C   UNL     1      -9.303   5.166  71.198  1.00  0.00    -0.194 C  
HETATM    6  C   UNL     1      -9.270   3.148  65.735  1.00  0.00    -0.138 C  
HETATM    7  F   UNL     1     -11.166   3.894  64.521  1.00  0.00    -0.296 F  
HETATM    8  C   UNL     1      -8.744   7.097  69.986  1.00  0.00    -0.141 C  
HETATM    9  C   UNL     1      -7.352   2.314  67.226  1.00  0.00    -0.056 C  
HETATM   10  C   UNL     1     -10.068   4.321  65.206  1.00  0.00    -0.218 C  
HETATM   11  C   UNL     1      -9.249   7.953  71.222  1.00  0.00    -0.170 C  
HETATM   12  C   UNL     1      -7.926   3.536  66.401  1.00  0.00    -0.088 C  
HETATM   13  C   UNL     1      -7.160   6.158  69.755  1.00  0.00    -0.072 C  
HETATM   14  C   UNL     1      -6.953   3.668  65.235  1.00  0.00    -0.061 C  
HETATM   15  C   UNL     1      -6.992   5.359  68.267  1.00  0.00    -0.061 C  
HETATM   16  C   UNL     1      -7.165   2.972  64.090  1.00  0.00    -0.057 C  
HETATM   17  O   UNL     1      -8.602   1.513  62.843  1.00  0.00    -0.064 OA 
HETATM   18  C   UNL     1      -8.395   2.112  63.889  1.00  0.00    -0.081 C  
HETATM   19  C   UNL     1      -9.329   1.978  65.065  1.00  0.00    -0.062 C  
HETATM   20  O   UNL     1      -6.278   6.215  67.367  1.00  0.00    -0.026 OA 
HETATM   21  C   UNL     1      -8.263   4.646  67.491  1.00  0.00    -0.101 C  
HETATM   22  C   UNL     1      -9.384   5.768  67.166  1.00  0.00    -0.116 C  
HETATM   23  F   UNL     1      -8.906   3.762  68.381  1.00  0.00    -0.104 F  
HETATM   24  H   UNL     1      -6.185   5.768  66.535  1.00  0.00     0.000 HD 
HETATM   25  C   UNL     1     -10.552   5.187  66.351  1.00  0.00    -0.336 C  
ENDROOT
BRANCH   4  26
HETATM   26  C   UNL     1      -7.316   8.590  68.978  1.00  0.00    -0.081 C  
HETATM   27  O   UNL     1      -6.308   8.586  68.273  1.00  0.00    -0.053 OA 
BRANCH  26  28
HETATM   28  S   UNL     1      -7.289   9.538  70.485  1.00  0.00    -0.123 SA 
HETATM   29  F   UNL     1      -5.433   9.421  72.307  1.00  0.00    -0.068 F  
HETATM   30  C   UNL     1      -5.587   9.126  70.985  1.00  0.00    -0.043 C  
ENDBRANCH  26  28
ENDBRANCH   4  26
BRANCH   4  31
HETATM   31  O   UNL     1      -9.677   8.837  68.556  1.00  0.00    -0.156 OA 
BRANCH  31  32
HETATM   32  C   UNL     1      -9.661   9.832  67.631  1.00  0.00    -0.145 C  
HETATM   33  O   UNL     1      -9.538  11.018  67.877  1.00  0.00    -0.166 OA 
BRANCH  32  34
HETATM   34  C   UNL     1      -9.764   9.275  66.234  1.00  0.00    -0.340 C  
HETATM   35  C   UNL     1      -8.936  10.112  65.268  1.00  0.00    -0.218 C  
ENDBRANCH  32  34
ENDBRANCH  31  32
ENDBRANCH   4  31
TORSDOF 5
ENDMDL
MODEL       69
REMARK 921   NORMALIZED FREE ENERGY PREDICTED BY IDOCK:   -3.74 KCAL/MOL
REMARK 922        TOTAL FREE ENERGY PREDICTED BY IDOCK:   -3.76 KCAL/MOL
REMARK 923 INTER-LIGAND FREE ENERGY PREDICTED BY IDOCK:   -4.76 KCAL/MOL
REMARK 924 INTRA-LIGAND FREE ENERGY PREDICTED BY IDOCK:    0.99 KCAL/MOL
REMARK 927      BINDING AFFINITY PREDICTED BY RF-SCORE:    0.00 PKD
ROOT
HETATM    1  C   UNL     1      -9.069   9.797  66.309  1.00  0.00    -0.192 C  
HETATM    2  C   UNL     1     -10.418   9.928  65.866  1.00  0.00    -0.072 C  
HETATM    3  C   UNL     1     -10.045  10.234  67.261  1.00  0.00    -0.249 C  
HETATM    4  C   UNL     1      -8.008  10.567  67.507  1.00  0.00    -0.107 C  
HETATM    5  C   UNL     1     -11.536  10.868  67.844  1.00  0.00    -0.270 C  
HETATM    6  C   UNL     1      -9.784   5.376  67.011  1.00  0.00    -0.162 C  
HETATM    7  F   UNL     1      -8.990   5.043  64.801  1.00  0.00    -0.150 F  
HETATM    8  C   UNL     1      -9.202  11.119  67.809  1.00  0.00    -0.153 C  
HETATM    9  C   UNL     1     -10.806   5.867  69.316  1.00  0.00    -0.414 C  
HETATM   10  C   UNL     1      -8.789   5.767  65.939  1.00  0.00    -0.150 C  
HETATM   11  C   UNL     1      -9.426  12.648  67.453  1.00  0.00    -0.189 C  
HETATM   12  C   UNL     1      -9.537   6.044  68.388  1.00  0.00    -0.130 C  
HETATM   13  C   UNL     1      -9.360  10.237  69.434  1.00  0.00    -0.217 C  
HETATM   14  C   UNL     1      -8.485   5.162  69.049  1.00  0.00    -0.090 C  
HETATM   15  C   UNL     1      -9.030   8.573  69.400  1.00  0.00    -0.149 C  
HETATM   16  C   UNL     1      -8.382   3.853  68.707  1.00  0.00    -0.087 C  
HETATM   17  O   UNL     1      -9.116   2.067  67.288  1.00  0.00    -0.137 OA 
HETATM   18  C   UNL     1      -9.235   3.237  67.618  1.00  0.00    -0.195 C  
HETATM   19  C   UNL     1     -10.285   4.124  66.997  1.00  0.00     0.172 C  
HETATM   20  O   UNL     1      -7.657   8.372  69.754  1.00  0.00    -0.083 OA 
HETATM   21  C   UNL     1      -9.439   7.610  68.122  1.00  0.00    -0.145 C  
HETATM   22  C   UNL     1      -8.688   8.147  66.791  1.00  0.00    -0.145 C  
HETATM   23  F   UNL     1     -10.809   7.780  67.839  1.00  0.00    -0.262 F  
HETATM   24  H   UNL     1      -7.473   7.441  69.734  1.00  0.00     0.000 HD 
HETATM   25  C   UNL     1      -8.946   7.231  65.583  1.00  0.00     0.009 C  
ENDROOT
BRANCH   4  26
HETATM   26  C   UNL     1      -7.095  11.190  68.723  1.00  0.00    -0.093 C  
HETATM   27  O   UNL     1      -6.526  10.576  69.626  1.00  0.00    -0.059 OA 
BRANCH  26  28
HETATM   28  S   UNL     1      -7.088  12.969  68.776  1.00  0.00    -0.073 SA 
HETATM   29  F   UNL     1      -5.805  14.421  70.514  1.00  0.00    -0.118 F  
HETATM   30  C   UNL     1      -5.758  13.157  70.006  1.00  0.00    -0.131 C  
ENDBRANCH  26  28
ENDBRANCH   4  26
BRANCH   4  31
HETATM   31  O   UNL     1      -7.273  11.182  66.319  1.00  0.00    -0.122 OA 
BRANCH  31  32
HETATM   32  C   UNL     1      -5.964  11.090  65.967  1.00  0.00    -0.109 C  
HETATM   33  O   UNL     1      -5.130  11.961  66.129  1.00  0.00    -0.320 OA 
BRANCH  32  34
HETATM   34  C   UNL     1      -5.653   9.733  65.389  1.00  0.00    -0.058 C  
HETATM   35  C   UNL     1      -6.238   9.608  63.989  1.00  0.00    -0.108 C  
ENDBRANCH  32  34
ENDBRANCH  31  32
ENDBRANCH   4  31
TORSDOF 5
ENDMDL
MODEL       70
REMARK 921   NORMALIZED FREE ENERGY PREDICTED BY IDOCK:   -3.69 KCAL/MOL
REMARK 922        TOTAL FREE ENERGY PREDICTED BY IDOCK:   -3.70 KCAL/MOL
REMARK 923 INTER-LIGAND FREE ENERGY PREDICTED BY IDOCK:   -4.38 KCAL/MOL
REMARK 924 INTRA-LIGAND FREE ENERGY PREDICTED BY IDOCK:    0.69 KCAL/MOL
REMARK 927      BINDING AFFINITY PREDICTED BY RF-SCORE:    0.00 PKD
ROOT
HETATM    1  C   UNL     1      -7.703   5.855  67.520  1.00  0.00    -0.097 C  
HETATM    2  C   UNL     1      -6.362   5.450  67.252  1.00  0.00    -0.039 C  
HETATM    3  C   UNL     1      -6.886   5.472  68.632  1.00  0.00    -0.059 C  
HETATM    4  C   UNL     1      -8.963   5.487  68.716  1.00  0.00    -0.114 C  
HETATM    5  C   UNL     1      -5.565   4.754  69.471  1.00  0.00    -0.012 C  
HETATM    6  C   UNL     1      -6.346  10.180  67.504  1.00  0.00    -0.059 C  
HETATM    7  F   UNL     1      -6.904  10.196  65.198  1.00  0.00    -0.109 F  
HETATM    8  C   UNL     1      -7.899   4.837  69.234  1.00  0.00    -0.070 C  
HETATM    9  C   UNL     1      -5.597   9.996  69.954  1.00  0.00    -0.038 C  
HETATM   10  C   UNL     1      -7.306   9.739  66.418  1.00  0.00    -0.095 C  
HETATM   11  C   UNL     1      -7.896   3.253  69.180  1.00  0.00    -0.054 C  
HETATM   12  C   UNL     1      -6.802   9.829  68.942  1.00  0.00    -0.054 C  
HETATM   13  C   UNL     1      -7.729   5.981  70.686  1.00  0.00    -0.101 C  
HETATM   14  C   UNL     1      -7.748  10.962  69.323  1.00  0.00    -0.100 C  
HETATM   15  C   UNL     1      -7.785   7.638  70.324  1.00  0.00    -0.091 C  
HETATM   16  C   UNL     1      -7.614  12.183  68.747  1.00  0.00    -0.056 C  
HETATM   17  O   UNL     1      -6.496  13.543  67.120  1.00  0.00    -0.211 OA 
HETATM   18  C   UNL     1      -6.592  12.452  67.663  1.00  0.00    -0.131 C  
HETATM   19  C   UNL     1      -5.652  11.322  67.322  1.00  0.00    -0.064 C  
HETATM   20  O   UNL     1      -9.131   8.096  70.491  1.00  0.00    -0.146 OA 
HETATM   21  C   UNL     1      -7.130   8.271  68.948  1.00  0.00    -0.066 C  
HETATM   22  C   UNL     1      -7.852   7.604  67.661  1.00  0.00    -0.123 C  
HETATM   23  F   UNL     1      -5.787   7.856  68.845  1.00  0.00    -0.030 F  
HETATM   24  H   UNL     1      -9.162   9.024  70.288  1.00  0.00     0.000 HD 
HETATM   25  C   UNL     1      -7.357   8.227  66.344  1.00  0.00    -0.080 C  
ENDROOT
BRANCH   4  26
HETATM   26  C   UNL     1     -10.055   5.244  69.920  1.00  0.00    -0.263 C  
HETATM   27  O   UNL     1     -10.082   4.323  70.735  1.00  0.00    -0.190 OA 
BRANCH  26  28
HETATM   28  S   UNL     1     -11.416   6.392  69.896  1.00  0.00    -0.329 SA 
HETATM   29  F   UNL     1     -13.239   6.606  71.742  1.00  0.00    -0.377 F  
HETATM   30  C   UNL     1     -11.971   6.124  71.610  1.00  0.00    -0.112 C  
ENDBRANCH  26  28
ENDBRANCH   4  26
BRANCH   4  31
HETATM   31  O   UNL     1      -9.693   4.768  67.584  1.00  0.00    -0.149 OA 
BRANCH  31  32
HETATM   32  C   UNL     1     -10.415   5.282  66.554  1.00  0.00    -0.298 C  
HETATM   33  O   UNL     1     -11.052   6.319  66.591  1.00  0.00    -0.292 OA 
BRANCH  32  34
HETATM   34  C   UNL     1     -10.287   4.424  65.321  1.00  0.00    -0.220 C  
HETATM   35  C   UNL     1      -9.279   3.306  65.557  1.00  0.00    -0.151 C  
ENDBRANCH  32  34
ENDBRANCH  31  32
ENDBRANCH   4  31
TORSDOF 5
ENDMDL
MODEL       71
REMARK 921   NORMALIZED FREE ENERGY PREDICTED BY IDOCK:   -3.68 KCAL/MOL
REMARK 922        TOTAL FREE ENERGY PREDICTED BY IDOCK:   -3.69 KCAL/MOL
REMARK 923 INTER-LIGAND FREE ENERGY PREDICTED BY IDOCK:   -4.65 KCAL/MOL
REMARK 924 INTRA-LIGAND FREE ENERGY PREDICTED BY IDOCK:    0.97 KCAL/MOL
REMARK 927      BINDING AFFINITY PREDICTED BY RF-SCORE:    0.00 PKD
ROOT
HETATM    1  C   UNL     1      -8.827  14.444  66.888  1.00  0.00    -0.246 C  
HETATM    2  C   UNL     1      -7.654  13.638  66.964  1.00  0.00     0.217 C  
HETATM    3  C   UNL     1      -8.461  13.918  68.168  1.00  0.00    -0.171 C  
HETATM    4  C   UNL     1     -10.388  14.559  67.727  1.00  0.00    -0.237 C  
HETATM    5  C   UNL     1      -7.668  12.901  69.309  1.00  0.00     0.459 C  
HETATM    6  C   UNL     1      -6.241  18.151  67.230  1.00  0.00    -0.182 C  
HETATM    7  F   UNL     1      -6.196  18.164  64.859  1.00  0.00    -0.225 F  
HETATM    8  C   UNL     1      -9.734  13.661  68.494  1.00  0.00    -0.184 C  
HETATM    9  C   UNL     1      -6.198  17.933  69.789  1.00  0.00    -0.172 C  
HETATM   10  C   UNL     1      -6.999  17.939  65.936  1.00  0.00    -0.278 C  
HETATM   11  C   UNL     1     -10.206  12.149  68.435  1.00  0.00    -0.212 C  
HETATM   12  C   UNL     1      -7.116  18.060  68.507  1.00  0.00    -0.257 C  
HETATM   13  C   UNL     1      -9.573  14.805  69.946  1.00  0.00     0.334 C  
HETATM   14  C   UNL     1      -7.728  19.449  68.642  1.00  0.00    -0.394 C  
HETATM   15  C   UNL     1      -9.027  16.372  69.589  1.00  0.00     0.330 C  
HETATM   16  C   UNL     1      -7.090  20.528  68.123  1.00  0.00    -0.226 C  
HETATM   17  O   UNL     1      -5.250  21.367  66.835  1.00  0.00    -0.230 OA 
HETATM   18  C   UNL     1      -5.806  20.398  67.332  1.00  0.00    -0.184 C  
HETATM   19  C   UNL     1      -5.207  19.017  67.233  1.00  0.00    -0.159 C  
HETATM   20  O   UNL     1     -10.165  17.223  69.414  1.00  0.00    -0.255 OA 
HETATM   21  C   UNL     1      -7.898  16.677  68.424  1.00  0.00    -0.202 C  
HETATM   22  C   UNL     1      -8.459  16.163  66.994  1.00  0.00    -0.238 C  
HETATM   23  F   UNL     1      -6.765  15.872  68.660  1.00  0.00    -0.110 F  
HETATM   24  H   UNL     1      -9.859  18.099  69.213  1.00  0.00     0.000 HD 
HETATM   25  C   UNL     1      -7.496  16.510  65.846  1.00  0.00     0.653 C  
ENDROOT
BRANCH   4  26
HETATM   26  C   UNL     1     -11.758  14.744  68.617  1.00  0.00    -0.325 C  
HETATM   27  O   UNL     1     -12.372  15.786  68.842  1.00  0.00    -0.142 OA 
BRANCH  26  28
HETATM   28  S   UNL     1     -12.280  13.258  69.446  1.00  0.00    -0.061 SA 
HETATM   29  F   UNL     1     -13.098  13.116  71.913  1.00  0.00    -0.438 F  
HETATM   30  C   UNL     1     -12.966  14.054  70.933  1.00  0.00    -0.277 C  
ENDBRANCH  26  28
ENDBRANCH   4  26
BRANCH   4  31
HETATM   31  O   UNL     1     -11.009  14.010  66.445  1.00  0.00    -0.303 OA 
BRANCH  31  32
HETATM   32  C   UNL     1     -11.488  14.674  65.361  1.00  0.00    -0.352 C  
HETATM   33  O   UNL     1     -11.770  15.858  65.329  1.00  0.00     0.127 OA 
BRANCH  32  34
HETATM   34  C   UNL     1     -11.581  13.762  64.164  1.00  0.00    -0.360 C  
HETATM   35  C   UNL     1     -10.999  12.394  64.496  1.00  0.00    -0.355 C  
ENDBRANCH  32  34
ENDBRANCH  31  32
ENDBRANCH   4  31
TORSDOF 5
ENDMDL
MODEL       72
REMARK 921   NORMALIZED FREE ENERGY PREDICTED BY IDOCK:   -3.31 KCAL/MOL
REMARK 922        TOTAL FREE ENERGY PREDICTED BY IDOCK:   -3.21 KCAL/MOL
REMARK 923 INTER-LIGAND FREE ENERGY PREDICTED BY IDOCK:   -4.76 KCAL/MOL
REMARK 924 INTRA-LIGAND FREE ENERGY PREDICTED BY IDOCK:    1.54 KCAL/MOL
REMARK 927      BINDING AFFINITY PREDICTED BY RF-SCORE:    0.00 PKD
ROOT
HETATM    1  C   UNL     1     -11.618  13.338  67.309  1.00  0.00    -0.404 C  
HETATM    2  C   UNL     1     -12.750  13.927  66.673  1.00  0.00     0.021 C  
HETATM    3  C   UNL     1     -11.548  13.564  65.897  1.00  0.00    -0.359 C  
HETATM    4  C   UNL     1     -10.324  12.201  66.878  1.00  0.00    -0.212 C  
HETATM    5  C   UNL     1     -12.110  13.879  64.300  1.00  0.00    -0.477 C  
HETATM    6  C   UNL     1     -10.167  17.479  68.445  1.00  0.00    -0.372 C  
HETATM    7  F   UNL     1     -11.347  17.178  70.481  1.00  0.00    -0.008 F  
HETATM    8  C   UNL     1     -10.915  12.404  65.682  1.00  0.00    -0.321 C  
HETATM    9  C   UNL     1      -9.086  17.778  66.134  1.00  0.00    -0.128 C  
HETATM   10  C   UNL     1     -10.563  16.540  69.566  1.00  0.00    -0.321 C  
HETATM   11  C   UNL     1     -11.766  11.219  65.062  1.00  0.00     0.338 C  
HETATM   12  C   UNL     1      -9.156  16.880  67.435  1.00  0.00    -0.221 C  
HETATM   13  C   UNL     1      -9.479  13.340  64.971  1.00  0.00     0.424 C  
HETATM   14  C   UNL     1      -7.798  17.096  68.091  1.00  0.00    -0.206 C  
HETATM   15  C   UNL     1      -8.832  14.555  65.964  1.00  0.00     0.379 C  
HETATM   16  C   UNL     1      -7.621  18.115  68.970  1.00  0.00    -0.155 C  
HETATM   17  O   UNL     1      -8.606  19.912  70.212  1.00  0.00     0.808 OA 
HETATM   18  C   UNL     1      -8.760  19.017  69.394  1.00  0.00     0.227 C  
HETATM   19  C   UNL     1     -10.088  18.799  68.712  1.00  0.00    -0.407 C  
HETATM   20  O   UNL     1      -7.735  14.005  66.702  1.00  0.00    -0.159 OA 
HETATM   21  C   UNL     1      -9.769  15.496  66.945  1.00  0.00    -0.233 C  
HETATM   22  C   UNL     1     -10.545  14.548  68.005  1.00  0.00    -0.237 C  
HETATM   23  F   UNL     1     -10.800  16.074  66.179  1.00  0.00    -0.317 F  
HETATM   24  H   UNL     1      -7.374  14.685  67.258  1.00  0.00     0.000 HD 
HETATM   25  C   UNL     1     -11.359  15.373  69.017  1.00  0.00    -0.324 C  
ENDROOT
BRANCH   4  26
HETATM   26  C   UNL     1      -9.054  11.268  66.410  1.00  0.00    -0.192 C  
HETATM   27  O   UNL     1      -7.856  11.496  66.571  1.00  0.00    -0.144 OA 
BRANCH  26  28
HETATM   28  S   UNL     1      -9.524   9.857  65.432  1.00  0.00    -0.275 SA 
HETATM   29  F   UNL     1      -8.685   9.347  63.021  1.00  0.00    -0.183 F  
HETATM   30  C   UNL     1      -8.300  10.082  64.102  1.00  0.00    -0.167 C  
ENDBRANCH  26  28
ENDBRANCH   4  26
BRANCH   4  31
HETATM   31  O   UNL     1     -11.021  11.206  67.803  1.00  0.00    -0.222 OA 
BRANCH  31  32
HETATM   32  C   UNL     1     -10.776  10.917  69.108  1.00  0.00    -0.226 C  
HETATM   33  O   UNL     1     -11.410  11.347  70.054  1.00  0.00    -0.260 OA 
BRANCH  32  34
HETATM   34  C   UNL     1      -9.636   9.941  69.242  1.00  0.00    -0.215 C  
HETATM   35  C   UNL     1     -10.166   8.547  69.548  1.00  0.00    -0.206 C  
ENDBRANCH  32  34
ENDBRANCH  31  32
ENDBRANCH   4  31
TORSDOF 5
ENDMDL
MODEL       73
REMARK 921   NORMALIZED FREE ENERGY PREDICTED BY IDOCK:   -3.16 KCAL/MOL
REMARK 922        TOTAL FREE ENERGY PREDICTED BY IDOCK:   -3.02 KCAL/MOL
REMARK 923 INTER-LIGAND FREE ENERGY PREDICTED BY IDOCK:   -4.13 KCAL/MOL
REMARK 924 INTRA-LIGAND FREE ENERGY PREDICTED BY IDOCK:    1.11 KCAL/MOL
REMARK 927      BINDING AFFINITY PREDICTED BY RF-SCORE:    0.00 PKD
ROOT
HETATM    1  C   UNL     1      -9.572  14.432  67.739  1.00  0.00    -0.216 C  
HETATM    2  C   UNL     1      -8.453  13.909  68.452  1.00  0.00    -0.159 C  
HETATM    3  C   UNL     1      -9.475  13.011  67.879  1.00  0.00    -0.219 C  
HETATM    4  C   UNL     1     -10.625  13.918  66.405  1.00  0.00    -0.280 C  
HETATM    5  C   UNL     1      -8.745  11.482  68.188  1.00  0.00    -0.157 C  
HETATM    6  C   UNL     1     -11.720  15.072  71.679  1.00  0.00    -0.439 C  
HETATM    7  F   UNL     1     -10.805  17.260  71.658  1.00  0.00     0.557 F  
HETATM    8  C   UNL     1      -9.907  12.798  66.630  1.00  0.00    -0.250 C  
HETATM    9  C   UNL     1     -12.499  12.624  71.697  1.00  0.00    -0.036 C  
HETATM   10  C   UNL     1     -11.358  16.298  70.867  1.00  0.00    -0.285 C  
HETATM   11  C   UNL     1      -8.824  12.380  65.550  1.00  0.00     0.629 C  
HETATM   12  C   UNL     1     -12.489  13.984  70.887  1.00  0.00    -0.439 C  
HETATM   13  C   UNL     1     -11.345  11.841  67.309  1.00  0.00    -0.379 C  
HETATM   14  C   UNL     1     -13.942  14.440  70.937  1.00  0.00     0.091 C  
HETATM   15  C   UNL     1     -12.284  12.653  68.467  1.00  0.00     0.086 C  
HETATM   16  C   UNL     1     -14.377  15.214  71.964  1.00  0.00    -0.682 C  
HETATM   17  O   UNL     1     -13.830  16.443  73.948  1.00  0.00    -0.210 OA 
HETATM   18  C   UNL     1     -13.443  15.717  73.043  1.00  0.00    -0.583 C  
HETATM   19  C   UNL     1     -12.016  15.231  72.985  1.00  0.00    -0.517 C  
HETATM   20  O   UNL     1     -13.387  13.278  67.802  1.00  0.00     1.953 OA 
HETATM   21  C   UNL     1     -11.630  13.678  69.583  1.00  0.00    -0.278 C  
HETATM   22  C   UNL     1     -10.886  14.895  68.815  1.00  0.00    -0.254 C  
HETATM   23  F   UNL     1     -10.591  13.013  70.265  1.00  0.00     0.699 F  
HETATM   24  H   UNL     1     -13.912  13.733  68.450  1.00  0.00     0.000 HD 
HETATM   25  C   UNL     1     -10.342  15.942  69.801  1.00  0.00    -0.290 C  
ENDROOT
BRANCH   4  26
HETATM   26  C   UNL     1     -11.677  13.356  65.275  1.00  0.00    -0.323 C  
HETATM   27  O   UNL     1     -12.875  13.618  65.167  1.00  0.00    -0.687 OA 
BRANCH  26  28
HETATM   28  S   UNL     1     -10.984  12.115  64.203  1.00  0.00    -0.400 SA 
HETATM   29  F   UNL     1     -12.284  10.818  62.359  1.00  0.00     0.851 F  
HETATM   30  C   UNL     1     -12.398  11.978  63.064  1.00  0.00    -0.037 C  
ENDBRANCH  26  28
ENDBRANCH   4  26
BRANCH   4  31
HETATM   31  O   UNL     1      -9.934  14.994  65.572  1.00  0.00    -0.338 OA 
BRANCH  31  32
HETATM   32  C   UNL     1     -10.407  16.192  65.137  1.00  0.00    -0.171 C  
HETATM   33  O   UNL     1     -11.064  16.363  64.126  1.00  0.00    -0.809 OA 
BRANCH  32  34
HETATM   34  C   UNL     1     -10.058  17.295  66.103  1.00  0.00    -0.312 C  
HETATM   35  C   UNL     1      -8.547  17.413  66.248  1.00  0.00    -0.246 C  
ENDBRANCH  32  34
ENDBRANCH  31  32
ENDBRANCH   4  31
TORSDOF 5
ENDMDL
MODEL       74
REMARK 921   NORMALIZED FREE ENERGY PREDICTED BY IDOCK:   -3.09 KCAL/MOL
REMARK 922        TOTAL FREE ENERGY PREDICTED BY IDOCK:   -2.93 KCAL/MOL
REMARK 923 INTER-LIGAND FREE ENERGY PREDICTED BY IDOCK:   -3.69 KCAL/MOL
REMARK 924 INTRA-LIGAND FREE ENERGY PREDICTED BY IDOCK:    0.77 KCAL/MOL
REMARK 927      BINDING AFFINITY PREDICTED BY RF-SCORE:    0.00 PKD
ROOT
HETATM    1  C   UNL     1      -9.262   4.749  68.590  1.00  0.00    -0.168 C  
HETATM    2  C   UNL     1     -10.603   5.097  68.927  1.00  0.00    -0.047 C  
HETATM    3  C   UNL     1      -9.881   5.808  67.854  1.00  0.00    -0.147 C  
HETATM    4  C   UNL     1      -8.236   4.758  67.141  1.00  0.00    -0.106 C  
HETATM    5  C   UNL     1     -11.150   6.795  67.236  1.00  0.00    -0.394 C  
HETATM    6  C   UNL     1      -7.781   7.412  71.946  1.00  0.00    -0.085 C  
HETATM    7  F   UNL     1      -7.838   5.476  73.315  1.00  0.00    -0.099 F  
HETATM    8  C   UNL     1      -9.334   5.407  66.700  1.00  0.00    -0.143 C  
HETATM    9  C   UNL     1      -7.940   9.479  70.429  1.00  0.00    -0.200 C  
HETATM   10  C   UNL     1      -7.529   5.923  72.065  1.00  0.00    -0.096 C  
HETATM   11  C   UNL     1     -10.279   4.657  65.671  1.00  0.00    -0.255 C  
HETATM   12  C   UNL     1      -7.319   8.034  70.604  1.00  0.00    -0.056 C  
HETATM   13  C   UNL     1      -8.479   7.048  66.555  1.00  0.00    -0.125 C  
HETATM   14  C   UNL     1      -5.833   8.306  70.809  1.00  0.00    -0.032 C  
HETATM   15  C   UNL     1      -7.540   7.506  67.894  1.00  0.00    -0.110 C  
HETATM   16  C   UNL     1      -5.346   8.517  72.057  1.00  0.00    -0.040 C  
HETATM   17  O   UNL     1      -5.772   8.570  74.415  1.00  0.00    -0.097 OA 
HETATM   18  C   UNL     1      -6.220   8.414  73.289  1.00  0.00    -0.102 C  
HETATM   19  C   UNL     1      -7.690   8.169  73.058  1.00  0.00    -0.199 C  
HETATM   20  O   UNL     1      -6.185   7.106  67.658  1.00  0.00    -0.042 OA 
HETATM   21  C   UNL     1      -7.978   7.162  69.448  1.00  0.00    -0.125 C  
HETATM   22  C   UNL     1      -8.088   5.555  69.625  1.00  0.00    -0.101 C  
HETATM   23  F   UNL     1      -9.291   7.624  69.668  1.00  0.00    -0.155 F  
HETATM   24  H   UNL     1      -5.661   7.362  68.407  1.00  0.00     0.000 HD 
HETATM   25  C   UNL     1      -8.393   5.163  71.080  1.00  0.00    -0.121 C  
ENDROOT
BRANCH   4  26
HETATM   26  C   UNL     1      -7.266   4.918  65.824  1.00  0.00    -0.076 C  
HETATM   27  O   UNL     1      -6.070   5.209  65.803  1.00  0.00    -0.031 OA 
BRANCH  26  28
HETATM   28  S   UNL     1      -8.133   4.794  64.274  1.00  0.00    -0.117 SA 
HETATM   29  F   UNL     1      -8.117   6.590  62.390  1.00  0.00    -0.090 F  
HETATM   30  C   UNL     1      -7.358   6.228  63.462  1.00  0.00    -0.068 C  
ENDBRANCH  26  28
ENDBRANCH   4  26
BRANCH   4  31
HETATM   31  O   UNL     1      -8.336   3.235  67.177  1.00  0.00    -0.089 OA 
BRANCH  31  32
HETATM   32  C   UNL     1      -7.360   2.299  67.042  1.00  0.00    -0.060 C  
HETATM   33  O   UNL     1      -7.130   1.665  66.028  1.00  0.00    -0.048 OA 
BRANCH  32  34
HETATM   34  C   UNL     1      -6.549   2.174  68.307  1.00  0.00    -0.029 C  
HETATM   35  C   UNL     1      -7.435   1.723  69.460  1.00  0.00    -0.043 C  
ENDBRANCH  32  34
ENDBRANCH  31  32
ENDBRANCH   4  31
TORSDOF 5
ENDMDL
MODEL       75
REMARK 921   NORMALIZED FREE ENERGY PREDICTED BY IDOCK:   -3.02 KCAL/MOL
REMARK 922        TOTAL FREE ENERGY PREDICTED BY IDOCK:   -2.84 KCAL/MOL
REMARK 923 INTER-LIGAND FREE ENERGY PREDICTED BY IDOCK:   -3.62 KCAL/MOL
REMARK 924 INTRA-LIGAND FREE ENERGY PREDICTED BY IDOCK:    0.78 KCAL/MOL
REMARK 927      BINDING AFFINITY PREDICTED BY RF-SCORE:    0.00 PKD
ROOT
HETATM    1  C   UNL     1      -6.341   6.167  70.016  1.00  0.00    -0.035 C  
HETATM    2  C   UNL     1      -5.211   6.838  69.465  1.00  0.00    -0.014 C  
HETATM    3  C   UNL     1      -6.473   7.561  69.719  1.00  0.00    -0.035 C  
HETATM    4  C   UNL     1      -7.723   6.574  71.054  1.00  0.00    -0.094 C  
HETATM    5  C   UNL     1      -5.979   9.172  69.362  1.00  0.00    -0.037 C  
HETATM    6  C   UNL     1      -7.473   4.767  65.857  1.00  0.00    -0.078 C  
HETATM    7  F   UNL     1      -6.207   2.817  66.324  1.00  0.00    -0.022 F  
HETATM    8  C   UNL     1      -7.186   7.792  70.829  1.00  0.00    -0.057 C  
HETATM    9  C   UNL     1      -8.656   6.997  65.384  1.00  0.00    -0.048 C  
HETATM   10  C   UNL     1      -7.076   3.714  66.870  1.00  0.00    -0.063 C  
HETATM   11  C   UNL     1      -6.443   8.512  72.031  1.00  0.00    -0.073 C  
HETATM   12  C   UNL     1      -8.572   5.744  66.347  1.00  0.00    -0.125 C  
HETATM   13  C   UNL     1      -8.598   8.378  69.777  1.00  0.00    -0.132 C  
HETATM   14  C   UNL     1      -9.877   5.003  66.083  1.00  0.00    -0.214 C  
HETATM   15  C   UNL     1      -9.116   7.297  68.576  1.00  0.00    -0.136 C  
HETATM   16  C   UNL     1      -9.945   4.071  65.100  1.00  0.00    -0.203 C  
HETATM   17  O   UNL     1      -8.786   2.808  63.424  1.00  0.00    -0.086 OA 
HETATM   18  C   UNL     1      -8.731   3.672  64.287  1.00  0.00    -0.101 C  
HETATM   19  C   UNL     1      -7.458   4.437  64.549  1.00  0.00    -0.072 C  
HETATM   20  O   UNL     1     -10.203   6.523  69.095  1.00  0.00    -0.164 OA 
HETATM   21  C   UNL     1      -8.072   6.329  67.740  1.00  0.00    -0.114 C  
HETATM   22  C   UNL     1      -7.299   5.358  68.780  1.00  0.00    -0.074 C  
HETATM   23  F   UNL     1      -7.050   7.126  67.186  1.00  0.00    -0.074 F  
HETATM   24  H   UNL     1     -10.492   5.918  68.423  1.00  0.00     0.000 HD 
HETATM   25  C   UNL     1      -6.384   4.358  68.054  1.00  0.00    -0.037 C  
ENDROOT
BRANCH   4  26
HETATM   26  C   UNL     1      -9.071   7.012  71.888  1.00  0.00    -0.139 C  
HETATM   27  O   UNL     1      -9.186   7.927  72.702  1.00  0.00    -0.166 OA 
BRANCH  26  28
HETATM   28  S   UNL     1     -10.447   5.906  71.657  1.00  0.00    -0.241 SA 
HETATM   29  F   UNL     1     -11.670   4.607  73.553  1.00  0.00    -0.379 F  
HETATM   30  C   UNL     1     -10.878   5.707  73.416  1.00  0.00    -0.275 C  
ENDBRANCH  26  28
ENDBRANCH   4  26
BRANCH   4  31
HETATM   31  O   UNL     1      -7.040   5.736  72.131  1.00  0.00    -0.082 OA 
BRANCH  31  32
HETATM   32  C   UNL     1      -7.468   4.605  72.752  1.00  0.00    -0.086 C  
HETATM   33  O   UNL     1      -7.687   4.498  73.944  1.00  0.00    -0.087 OA 
BRANCH  32  34
HETATM   34  C   UNL     1      -7.694   3.494  71.758  1.00  0.00    -0.057 C  
HETATM   35  C   UNL     1      -6.410   2.702  71.550  1.00  0.00    -0.018 C  
ENDBRANCH  32  34
ENDBRANCH  31  32
ENDBRANCH   4  31
TORSDOF 5
ENDMDL
MODEL       76
REMARK 921   NORMALIZED FREE ENERGY PREDICTED BY IDOCK:   -3.02 KCAL/MOL
REMARK 922        TOTAL FREE ENERGY PREDICTED BY IDOCK:   -2.84 KCAL/MOL
REMARK 923 INTER-LIGAND FREE ENERGY PREDICTED BY IDOCK:   -3.84 KCAL/MOL
REMARK 924 INTRA-LIGAND FREE ENERGY PREDICTED BY IDOCK:    1.00 KCAL/MOL
REMARK 927      BINDING AFFINITY PREDICTED BY RF-SCORE:    0.00 PKD
ROOT
HETATM    1  C   UNL     1      -8.701   7.836  66.571  1.00  0.00    -0.162 C  
HETATM    2  C   UNL     1     -10.122   7.899  66.472  1.00  0.00    -0.246 C  
HETATM    3  C   UNL     1      -9.381   8.821  67.355  1.00  0.00    -0.166 C  
HETATM    4  C   UNL     1      -7.363   8.961  66.880  1.00  0.00    -0.083 C  
HETATM    5  C   UNL     1     -10.663   9.854  67.862  1.00  0.00    -0.316 C  
HETATM    6  C   UNL     1      -9.113   4.530  69.644  1.00  0.00    -0.166 C  
HETATM    7  F   UNL     1      -8.958   3.016  67.826  1.00  0.00    -0.119 F  
HETATM    8  C   UNL     1      -8.436   9.742  67.128  1.00  0.00    -0.125 C  
HETATM    9  C   UNL     1      -9.463   6.257  71.514  1.00  0.00    -0.162 C  
HETATM   10  C   UNL     1      -8.462   4.184  68.321  1.00  0.00    -0.093 C  
HETATM   11  C   UNL     1      -8.777  10.890  66.089  1.00  0.00    -0.189 C  
HETATM   12  C   UNL     1      -8.506   5.767  70.353  1.00  0.00    -0.129 C  
HETATM   13  C   UNL     1      -8.120   9.842  68.954  1.00  0.00    -0.101 C  
HETATM   14  C   UNL     1      -7.295   5.216  71.097  1.00  0.00    -0.074 C  
HETATM   15  C   UNL     1      -7.782   8.366  69.721  1.00  0.00    -0.093 C  
HETATM   16  C   UNL     1      -7.268   3.916  71.483  1.00  0.00    -0.039 C  
HETATM   17  O   UNL     1      -8.335   1.770  71.448  1.00  0.00    -0.046 OA 
HETATM   18  C   UNL     1      -8.378   2.949  71.129  1.00  0.00    -0.062 C  
HETATM   19  C   UNL     1      -9.575   3.524  70.415  1.00  0.00    -0.241 C  
HETATM   20  O   UNL     1      -6.362   8.195  69.778  1.00  0.00    -0.035 OA 
HETATM   21  C   UNL     1      -8.513   6.950  69.288  1.00  0.00    -0.129 C  
HETATM   22  C   UNL     1      -8.171   6.629  67.738  1.00  0.00    -0.119 C  
HETATM   23  F   UNL     1      -9.910   7.131  69.304  1.00  0.00    -0.157 F  
HETATM   24  H   UNL     1      -6.173   7.369  70.207  1.00  0.00     0.000 HD 
HETATM   25  C   UNL     1      -8.738   5.268  67.300  1.00  0.00    -0.107 C  
ENDROOT
BRANCH   4  26
HETATM   26  C   UNL     1      -6.159   9.991  67.318  1.00  0.00    -0.058 C  
HETATM   27  O   UNL     1      -5.137   9.726  67.950  1.00  0.00    -0.036 OA 
BRANCH  26  28
HETATM   28  S   UNL     1      -6.500  11.697  66.939  1.00  0.00    -0.104 SA 
HETATM   29  F   UNL     1      -5.772  13.737  68.382  1.00  0.00    -0.076 F  
HETATM   30  C   UNL     1      -5.415  12.434  68.202  1.00  0.00    -0.064 C  
ENDBRANCH  26  28
ENDBRANCH   4  26
BRANCH   4  31
HETATM   31  O   UNL     1      -6.998   8.782  65.408  1.00  0.00    -0.074 OA 
BRANCH  31  32
HETATM   32  C   UNL     1      -6.063   7.977  64.839  1.00  0.00    -0.045 C  
HETATM   33  O   UNL     1      -5.290   7.259  65.446  1.00  0.00    -0.027 OA 
BRANCH  32  34
HETATM   34  C   UNL     1      -6.134   8.044  63.335  1.00  0.00    -0.071 C  
HETATM   35  C   UNL     1      -7.550   7.750  62.859  1.00  0.00    -0.125 C  
ENDBRANCH  32  34
ENDBRANCH  31  32
ENDBRANCH   4  31
TORSDOF 5
ENDMDL
MODEL       77
REMARK 921   NORMALIZED FREE ENERGY PREDICTED BY IDOCK:   -3.01 KCAL/MOL
REMARK 922        TOTAL FREE ENERGY PREDICTED BY IDOCK:   -2.83 KCAL/MOL
REMARK 923 INTER-LIGAND FREE ENERGY PREDICTED BY IDOCK:   -3.90 KCAL/MOL
REMARK 924 INTRA-LIGAND FREE ENERGY PREDICTED BY IDOCK:    1.08 KCAL/MOL
REMARK 927      BINDING AFFINITY PREDICTED BY RF-SCORE:    0.00 PKD
ROOT
HETATM    1  C   UNL     1      -9.499   8.525  67.942  1.00  0.00    -0.157 C  
HETATM    2  C   UNL     1     -10.811   8.255  67.454  1.00  0.00    -0.105 C  
HETATM    3  C   UNL     1     -10.237   7.466  68.561  1.00  0.00    -0.201 C  
HETATM    4  C   UNL     1      -8.632   8.406  69.487  1.00  0.00    -0.129 C  
HETATM    5  C   UNL     1     -11.605   6.516  68.999  1.00  0.00    -0.039 C  
HETATM    6  C   UNL     1      -7.793   5.937  64.635  1.00  0.00    -0.114 C  
HETATM    7  F   UNL     1      -7.623   7.930  63.359  1.00  0.00    -0.099 F  
HETATM    8  C   UNL     1      -9.796   7.791  69.783  1.00  0.00    -0.178 C  
HETATM    9  C   UNL     1      -8.197   3.818  66.029  1.00  0.00    -0.101 C  
HETATM   10  C   UNL     1      -7.465   7.416  64.611  1.00  0.00    -0.093 C  
HETATM   11  C   UNL     1     -10.811   8.541  70.743  1.00  0.00    -0.268 C  
HETATM   12  C   UNL     1      -7.500   5.238  65.986  1.00  0.00    -0.082 C  
HETATM   13  C   UNL     1      -9.033   6.107  69.937  1.00  0.00    -0.139 C  
HETATM   14  C   UNL     1      -6.014   4.905  65.922  1.00  0.00    -0.023 C  
HETATM   15  C   UNL     1      -7.980   5.662  68.682  1.00  0.00    -0.100 C  
HETATM   16  C   UNL     1      -5.409   4.723  64.722  1.00  0.00    -0.013 C  
HETATM   17  O   UNL     1      -5.588   4.789  62.332  1.00  0.00    -0.013 OA 
HETATM   18  C   UNL     1      -6.144   4.919  63.413  1.00  0.00    -0.021 C  
HETATM   19  C   UNL     1      -7.619   5.224  63.503  1.00  0.00    -0.067 C  
HETATM   20  O   UNL     1      -6.641   5.986  69.073  1.00  0.00    -0.047 OA 
HETATM   21  C   UNL     1      -8.238   6.091  67.109  1.00  0.00    -0.105 C  
HETATM   22  C   UNL     1      -8.259   7.707  66.996  1.00  0.00    -0.117 C  
HETATM   23  F   UNL     1      -9.539   5.701  66.734  1.00  0.00    -0.127 F  
HETATM   24  H   UNL     1      -6.052   5.738  68.370  1.00  0.00     0.000 HD 
HETATM   25  C   UNL     1      -8.394   8.174  65.537  1.00  0.00    -0.160 C  
ENDROOT
BRANCH   4  26
HETATM   26  C   UNL     1      -7.812   8.144  70.887  1.00  0.00    -0.091 C  
HETATM   27  O   UNL     1      -6.667   7.713  71.017  1.00  0.00    -0.042 OA 
BRANCH  26  28
HETATM   28  S   UNL     1      -8.795   8.387  72.351  1.00  0.00    -0.207 SA 
HETATM   29  F   UNL     1      -8.834   6.809  74.420  1.00  0.00    -0.149 F  
HETATM   30  C   UNL     1      -8.016   7.094  73.369  1.00  0.00    -0.103 C  
ENDBRANCH  26  28
ENDBRANCH   4  26
BRANCH   4  31
HETATM   31  O   UNL     1      -8.662   9.932  69.511  1.00  0.00    -0.161 OA 
BRANCH  31  32
HETATM   32  C   UNL     1      -7.640  10.821  69.395  1.00  0.00    -0.112 C  
HETATM   33  O   UNL     1      -6.751  10.980  70.211  1.00  0.00    -0.230 OA 
BRANCH  32  34
HETATM   34  C   UNL     1      -7.715  11.565  68.086  1.00  0.00    -0.120 C  
HETATM   35  C   UNL     1      -8.938  12.472  68.062  1.00  0.00    -0.192 C  
ENDBRANCH  32  34
ENDBRANCH  31  32
ENDBRANCH   4  31
TORSDOF 5
ENDMDL
MODEL       78
REMARK 921   NORMALIZED FREE ENERGY PREDICTED BY IDOCK:   -2.99 KCAL/MOL
REMARK 922        TOTAL FREE ENERGY PREDICTED BY IDOCK:   -2.80 KCAL/MOL
REMARK 923 INTER-LIGAND FREE ENERGY PREDICTED BY IDOCK:   -4.17 KCAL/MOL
REMARK 924 INTRA-LIGAND FREE ENERGY PREDICTED BY IDOCK:    1.37 KCAL/MOL
REMARK 927      BINDING AFFINITY PREDICTED BY RF-SCORE:    0.00 PKD
ROOT
HETATM    1  C   UNL     1      -9.395   9.060  68.214  1.00  0.00    -0.145 C  
HETATM    2  C   UNL     1      -9.711   8.586  69.521  1.00  0.00    -0.176 C  
HETATM    3  C   UNL     1      -8.332   8.977  69.169  1.00  0.00    -0.123 C  
HETATM    4  C   UNL     1      -8.231  10.182  67.480  1.00  0.00    -0.114 C  
HETATM    5  C   UNL     1      -7.576   8.850  70.711  1.00  0.00    -0.110 C  
HETATM    6  C   UNL     1      -9.000   4.770  66.807  1.00  0.00    -0.111 C  
HETATM    7  F   UNL     1     -11.288   4.909  66.199  1.00  0.00    -0.147 F  
HETATM    8  C   UNL     1      -7.786  10.126  68.753  1.00  0.00    -0.098 C  
HETATM    9  C   UNL     1      -6.585   4.665  67.675  1.00  0.00    -0.047 C  
HETATM   10  C   UNL     1     -10.116   5.605  66.214  1.00  0.00    -0.114 C  
HETATM   11  C   UNL     1      -7.995  11.402  69.671  1.00  0.00     0.608 C  
HETATM   12  C   UNL     1      -7.599   5.428  66.730  1.00  0.00    -0.088 C  
HETATM   13  C   UNL     1      -6.231   9.211  68.320  1.00  0.00    -0.054 C  
HETATM   14  C   UNL     1      -7.102   5.092  65.329  1.00  0.00    -0.063 C  
HETATM   15  C   UNL     1      -6.429   7.876  67.290  1.00  0.00    -0.056 C  
HETATM   16  C   UNL     1      -7.557   3.983  64.694  1.00  0.00    -0.077 C  
HETATM   17  O   UNL     1      -9.052   2.109  64.710  1.00  0.00    -0.119 OA 
HETATM   18  C   UNL     1      -8.618   3.088  65.299  1.00  0.00    -0.107 C  
HETATM   19  C   UNL     1      -9.075   3.428  66.696  1.00  0.00    -0.178 C  
HETATM   20  O   UNL     1      -6.208   8.303  65.941  1.00  0.00    -0.047 OA 
HETATM   21  C   UNL     1      -7.742   6.879  67.368  1.00  0.00    -0.110 C  
HETATM   22  C   UNL     1      -9.083   7.743  67.088  1.00  0.00    -0.154 C  
HETATM   23  F   UNL     1      -7.895   6.423  68.693  1.00  0.00    -0.095 F  
HETATM   24  H   UNL     1      -6.320   7.556  65.366  1.00  0.00     0.000 HD 
HETATM   25  C   UNL     1     -10.336   6.853  67.045  1.00  0.00    -0.348 C  
ENDROOT
BRANCH   4  26
HETATM   26  C   UNL     1      -7.049  11.107  66.809  1.00  0.00    -0.139 C  
HETATM   27  O   UNL     1      -6.487  10.939  65.727  1.00  0.00    -0.109 OA 
BRANCH  26  28
HETATM   28  S   UNL     1      -6.449  12.394  67.883  1.00  0.00    -0.111 SA 
HETATM   29  F   UNL     1      -6.935  14.936  67.605  1.00  0.00    -0.132 F  
HETATM   30  C   UNL     1      -7.468  13.746  67.212  1.00  0.00    -0.027 C  
ENDBRANCH  26  28
ENDBRANCH   4  26
BRANCH   4  31
HETATM   31  O   UNL     1      -9.422  11.105  67.232  1.00  0.00    -0.163 OA 
BRANCH  31  32
HETATM   32  C   UNL     1     -10.196  11.243  66.124  1.00  0.00    -0.245 C  
HETATM   33  O   UNL     1      -9.980  10.721  65.046  1.00  0.00    -0.255 OA 
BRANCH  32  34
HETATM   34  C   UNL     1     -11.406  12.096  66.411  1.00  0.00    -0.411 C  
HETATM   35  C   UNL     1     -12.101  12.482  65.112  1.00  0.00    -0.503 C  
ENDBRANCH  32  34
ENDBRANCH  31  32
ENDBRANCH   4  31
TORSDOF 5
ENDMDL
MODEL       79
REMARK 921   NORMALIZED FREE ENERGY PREDICTED BY IDOCK:   -2.88 KCAL/MOL
REMARK 922        TOTAL FREE ENERGY PREDICTED BY IDOCK:   -2.65 KCAL/MOL
REMARK 923 INTER-LIGAND FREE ENERGY PREDICTED BY IDOCK:   -4.00 KCAL/MOL
REMARK 924 INTRA-LIGAND FREE ENERGY PREDICTED BY IDOCK:    1.36 KCAL/MOL
REMARK 927      BINDING AFFINITY PREDICTED BY RF-SCORE:    0.00 PKD
ROOT
HETATM    1  C   UNL     1      -9.130   7.883  68.835  1.00  0.00    -0.141 C  
HETATM    2  C   UNL     1     -10.548   7.912  68.687  1.00  0.00    -0.145 C  
HETATM    3  C   UNL     1      -9.915   7.153  69.784  1.00  0.00    -0.180 C  
HETATM    4  C   UNL     1      -7.959   7.744  70.163  1.00  0.00    -0.112 C  
HETATM    5  C   UNL     1     -11.312   6.670  70.666  1.00  0.00    -0.401 C  
HETATM    6  C   UNL     1      -8.931   4.517  65.807  1.00  0.00    -0.131 C  
HETATM    7  F   UNL     1      -8.630   6.202  64.166  1.00  0.00    -0.068 F  
HETATM    8  C   UNL     1      -9.124   7.509  70.804  1.00  0.00    -0.154 C  
HETATM    9  C   UNL     1      -9.454   2.788  67.634  1.00  0.00    -0.157 C  
HETATM   10  C   UNL     1      -8.290   5.837  65.435  1.00  0.00    -0.142 C  
HETATM   11  C   UNL     1      -9.671   8.624  71.789  1.00  0.00    -0.361 C  
HETATM   12  C   UNL     1      -8.483   3.952  67.179  1.00  0.00    -0.100 C  
HETATM   13  C   UNL     1      -8.753   5.718  71.118  1.00  0.00    -0.135 C  
HETATM   14  C   UNL     1      -7.176   3.228  66.877  1.00  0.00    -0.059 C  
HETATM   15  C   UNL     1      -8.173   4.844  69.783  1.00  0.00    -0.073 C  
HETATM   16  C   UNL     1      -6.943   2.732  65.636  1.00  0.00    -0.052 C  
HETATM   17  O   UNL     1      -7.687   2.524  63.366  1.00  0.00    -0.061 OA 
HETATM   18  C   UNL     1      -7.914   2.941  64.492  1.00  0.00    -0.082 C  
HETATM   19  C   UNL     1      -9.210   3.638  64.822  1.00  0.00    -0.145 C  
HETATM   20  O   UNL     1      -6.742   4.848  69.822  1.00  0.00    -0.040 OA 
HETATM   21  C   UNL     1      -8.705   5.113  68.244  1.00  0.00    -0.101 C  
HETATM   22  C   UNL     1      -8.383   6.646  67.831  1.00  0.00    -0.119 C  
HETATM   23  F   UNL     1     -10.113   5.038  68.225  1.00  0.00    -0.199 F  
HETATM   24  H   UNL     1      -6.418   4.360  69.075  1.00  0.00     0.000 HD 
HETATM   25  C   UNL     1      -8.762   6.933  66.368  1.00  0.00    -0.147 C  
ENDROOT
BRANCH   4  26
HETATM   26  C   UNL     1      -6.902   7.462  71.390  1.00  0.00    -0.050 C  
HETATM   27  O   UNL     1      -6.740   6.415  72.016  1.00  0.00    -0.064 OA 
BRANCH  26  28
HETATM   28  S   UNL     1      -6.026   8.915  71.930  1.00  0.00    -0.064 SA 
HETATM   29  F   UNL     1      -5.267   9.395  74.373  1.00  0.00    -0.110 F  
HETATM   30  C   UNL     1      -5.616   8.326  73.604  1.00  0.00    -0.071 C  
ENDBRANCH  26  28
ENDBRANCH   4  26
BRANCH   4  31
HETATM   31  O   UNL     1      -7.631   9.212  69.901  1.00  0.00    -0.066 OA 
BRANCH  31  32
HETATM   32  C   UNL     1      -6.858   9.768  68.931  1.00  0.00    -0.054 C  
HETATM   33  O   UNL     1      -5.879   9.247  68.429  1.00  0.00    -0.041 OA 
BRANCH  32  34
HETATM   34  C   UNL     1      -7.400  11.109  68.508  1.00  0.00    -0.104 C  
HETATM   35  C   UNL     1      -6.687  12.228  69.256  1.00  0.00    -0.075 C  
ENDBRANCH  32  34
ENDBRANCH  31  32
ENDBRANCH   4  31
TORSDOF 5
ENDMDL
MODEL       80
REMARK 921   NORMALIZED FREE ENERGY PREDICTED BY IDOCK:   -2.87 KCAL/MOL
REMARK 922        TOTAL FREE ENERGY PREDICTED BY IDOCK:   -2.64 KCAL/MOL
REMARK 923 INTER-LIGAND FREE ENERGY PREDICTED BY IDOCK:   -4.07 KCAL/MOL
REMARK 924 INTRA-LIGAND FREE ENERGY PREDICTED BY IDOCK:    1.43 KCAL/MOL
REMARK 927      BINDING AFFINITY PREDICTED BY RF-SCORE:    0.00 PKD
ROOT
HETATM    1  C   UNL     1     -10.129   7.305  69.013  1.00  0.00    -0.186 C  
HETATM    2  C   UNL     1     -11.445   7.512  69.522  1.00  0.00     0.245 C  
HETATM    3  C   UNL     1     -10.338   8.414  69.894  1.00  0.00    -0.210 C  
HETATM    4  C   UNL     1      -8.721   8.302  68.592  1.00  0.00    -0.133 C  
HETATM    5  C   UNL     1     -11.204   9.613  70.776  1.00  0.00    -0.403 C  
HETATM    6  C   UNL     1      -9.375   4.306  72.327  1.00  0.00    -0.168 C  
HETATM    7  F   UNL     1     -10.121   2.650  70.803  1.00  0.00    -0.151 F  
HETATM    8  C   UNL     1      -9.528   9.209  69.182  1.00  0.00    -0.156 C  
HETATM    9  C   UNL     1      -8.768   6.198  73.956  1.00  0.00    -0.121 C  
HETATM   10  C   UNL     1      -9.386   3.793  70.902  1.00  0.00    -0.145 C  
HETATM   11  C   UNL     1     -10.213  10.304  68.263  1.00  0.00    -0.184 C  
HETATM   12  C   UNL     1      -8.443   5.522  72.562  1.00  0.00    -0.118 C  
HETATM   13  C   UNL     1      -8.445   9.413  70.675  1.00  0.00    -0.239 C  
HETATM   14  C   UNL     1      -7.067   4.903  72.778  1.00  0.00    -0.079 C  
HETATM   15  C   UNL     1      -7.902   7.972  71.389  1.00  0.00    -0.094 C  
HETATM   16  C   UNL     1      -6.957   3.640  73.262  1.00  0.00    -0.049 C  
HETATM   17  O   UNL     1      -8.067   1.624  73.931  1.00  0.00    -0.044 OA 
HETATM   18  C   UNL     1      -8.169   2.773  73.529  1.00  0.00    -0.068 C  
HETATM   19  C   UNL     1      -9.519   3.416  73.331  1.00  0.00    -0.128 C  
HETATM   20  O   UNL     1      -6.612   7.656  70.856  1.00  0.00    -0.038 OA 
HETATM   21  C   UNL     1      -8.836   6.614  71.474  1.00  0.00    -0.138 C  
HETATM   22  C   UNL     1      -9.223   6.141  69.974  1.00  0.00    -0.158 C  
HETATM   23  F   UNL     1     -10.074   6.943  72.063  1.00  0.00    -0.184 F  
HETATM   24  H   UNL     1      -6.309   6.850  71.255  1.00  0.00     0.000 HD 
HETATM   25  C   UNL     1     -10.009   4.819  69.978  1.00  0.00    -0.314 C  
ENDROOT
BRANCH   4  26
HETATM   26  C   UNL     1      -7.384   9.227  68.355  1.00  0.00    -0.077 C  
HETATM   27  O   UNL     1      -6.233   8.991  68.719  1.00  0.00    -0.044 OA 
BRANCH  26  28
HETATM   28  S   UNL     1      -7.728  10.809  67.613  1.00  0.00    -0.106 SA 
HETATM   29  F   UNL     1      -5.967  12.663  67.131  1.00  0.00    -0.149 F  
HETATM   30  C   UNL     1      -6.000  11.318  67.346  1.00  0.00    -0.062 C  
ENDBRANCH  26  28
ENDBRANCH   4  26
BRANCH   4  31
HETATM   31  O   UNL     1      -9.044   7.973  67.137  1.00  0.00    -0.131 OA 
BRANCH  31  32
HETATM   32  C   UNL     1      -8.559   6.981  66.344  1.00  0.00    -0.135 C  
HETATM   33  O   UNL     1      -8.928   6.746  65.209  1.00  0.00     0.074 OA 
BRANCH  32  34
HETATM   34  C   UNL     1      -7.452   6.227  67.036  1.00  0.00    -0.084 C  
HETATM   35  C   UNL     1      -7.747   4.733  67.032  1.00  0.00    -0.091 C  
ENDBRANCH  32  34
ENDBRANCH  31  32
ENDBRANCH   4  31
TORSDOF 5
ENDMDL
MODEL       81
REMARK 921   NORMALIZED FREE ENERGY PREDICTED BY IDOCK:   -2.72 KCAL/MOL
REMARK 922        TOTAL FREE ENERGY PREDICTED BY IDOCK:   -2.45 KCAL/MOL
REMARK 923 INTER-LIGAND FREE ENERGY PREDICTED BY IDOCK:   -5.20 KCAL/MOL
REMARK 924 INTRA-LIGAND FREE ENERGY PREDICTED BY IDOCK:    2.76 KCAL/MOL
REMARK 927      BINDING AFFINITY PREDICTED BY RF-SCORE:    0.00 PKD
ROOT
HETATM    1  C   UNL     1      -9.933   9.385  68.379  1.00  0.00    -0.191 C  
HETATM    2  C   UNL     1     -11.003   9.040  67.503  1.00  0.00     0.027 C  
HETATM    3  C   UNL     1      -9.801   9.730  66.996  1.00  0.00    -0.245 C  
HETATM    4  C   UNL     1      -8.170   9.573  68.274  1.00  0.00    -0.113 C  
HETATM    5  C   UNL     1     -10.123   9.701  65.305  1.00  0.00    -0.007 C  
HETATM    6  C   UNL     1     -12.153  13.167  69.522  1.00  0.00    -0.296 C  
HETATM    7  F   UNL     1     -13.081  11.912  71.307  1.00  0.00    -0.436 F  
HETATM    8  C   UNL     1      -8.502   9.406  66.977  1.00  0.00    -0.127 C  
HETATM    9  C   UNL     1     -11.240  14.378  67.449  1.00  0.00    -0.337 C  
HETATM   10  C   UNL     1     -11.936  12.125  70.600  1.00  0.00    -0.137 C  
HETATM   11  C   UNL     1      -8.106   8.040  66.276  1.00  0.00    -0.112 C  
HETATM   12  C   UNL     1     -10.866  13.580  68.763  1.00  0.00    -0.279 C  
HETATM   13  C   UNL     1      -8.092  11.153  66.500  1.00  0.00    -0.163 C  
HETATM   14  C   UNL     1     -10.229  14.639  69.654  1.00  0.00     0.023 C  
HETATM   15  C   UNL     1      -8.712  12.356  67.525  1.00  0.00    -0.179 C  
HETATM   16  C   UNL     1     -11.000  15.382  70.488  1.00  0.00    -0.350 C  
HETATM   17  O   UNL     1     -13.176  15.790  71.407  1.00  0.00    -0.495 OA 
HETATM   18  C   UNL     1     -12.489  15.144  70.630  1.00  0.00    -0.388 C  
HETATM   19  C   UNL     1     -13.099  14.108  69.720  1.00  0.00     0.668 C  
HETATM   20  O   UNL     1      -7.710  12.692  68.492  1.00  0.00    -0.132 OA 
HETATM   21  C   UNL     1     -10.190  12.235  68.249  1.00  0.00    -0.220 C  
HETATM   22  C   UNL     1     -10.211  10.920  69.195  1.00  0.00    -0.215 C  
HETATM   23  F   UNL     1     -11.163  11.968  67.265  1.00  0.00    -0.278 F  
HETATM   24  H   UNL     1      -8.057  13.365  69.065  1.00  0.00     0.000 HD 
HETATM   25  C   UNL     1     -11.529  10.804  69.979  1.00  0.00    -0.412 C  
ENDROOT
BRANCH   4  26
HETATM   26  C   UNL     1      -6.564   9.888  68.116  1.00  0.00    -0.056 C  
HETATM   27  O   UNL     1      -5.755   9.314  67.388  1.00  0.00    -0.041 OA 
BRANCH  26  28
HETATM   28  S   UNL     1      -5.956  11.106  69.263  1.00  0.00    -0.054 SA 
HETATM   29  F   UNL     1      -5.149  10.621  71.689  1.00  0.00    -0.088 F  
HETATM   30  C   UNL     1      -5.332   9.945  70.520  1.00  0.00    -0.044 C  
ENDBRANCH  26  28
ENDBRANCH   4  26
BRANCH   4  31
HETATM   31  O   UNL     1      -8.080   8.295  69.106  1.00  0.00    -0.116 OA 
BRANCH  31  32
HETATM   32  C   UNL     1      -8.459   8.069  70.391  1.00  0.00    -0.130 C  
HETATM   33  O   UNL     1      -9.574   8.264  70.839  1.00  0.00    -0.159 OA 
BRANCH  32  34
HETATM   34  C   UNL     1      -7.325   7.488  71.196  1.00  0.00    -0.071 C  
HETATM   35  C   UNL     1      -6.588   6.431  70.385  1.00  0.00    -0.048 C  
ENDBRANCH  32  34
ENDBRANCH  31  32
ENDBRANCH   4  31
TORSDOF 5
ENDMDL
MODEL       82
REMARK 921   NORMALIZED FREE ENERGY PREDICTED BY IDOCK:   -2.70 KCAL/MOL
REMARK 922        TOTAL FREE ENERGY PREDICTED BY IDOCK:   -2.42 KCAL/MOL
REMARK 923 INTER-LIGAND FREE ENERGY PREDICTED BY IDOCK:   -5.42 KCAL/MOL
REMARK 924 INTRA-LIGAND FREE ENERGY PREDICTED BY IDOCK:    3.00 KCAL/MOL
REMARK 927      BINDING AFFINITY PREDICTED BY RF-SCORE:    0.00 PKD
ROOT
HETATM    1  C   UNL     1     -10.334   5.758  69.909  1.00  0.00    -0.330 C  
HETATM    2  C   UNL     1     -10.015   4.429  70.314  1.00  0.00    -0.248 C  
HETATM    3  C   UNL     1      -9.061   5.535  70.527  1.00  0.00    -0.171 C  
HETATM    4  C   UNL     1      -9.954   7.410  70.439  1.00  0.00    -0.188 C  
HETATM    5  C   UNL     1      -7.852   4.723  71.444  1.00  0.00    -0.096 C  
HETATM    6  C   UNL     1      -8.918   4.767  65.719  1.00  0.00    -0.138 C  
HETATM    7  F   UNL     1     -11.169   4.187  65.250  1.00  0.00    -0.206 F  
HETATM    8  C   UNL     1      -9.130   6.679  71.219  1.00  0.00    -0.151 C  
HETATM    9  C   UNL     1      -6.483   5.237  66.387  1.00  0.00    -0.044 C  
HETATM   10  C   UNL     1     -10.386   5.087  65.909  1.00  0.00    -0.185 C  
HETATM   11  C   UNL     1      -9.467   6.573  72.764  1.00  0.00    -0.150 C  
HETATM   12  C   UNL     1      -7.951   5.822  66.312  1.00  0.00    -0.102 C  
HETATM   13  C   UNL     1      -7.583   7.262  70.374  1.00  0.00    -0.088 C  
HETATM   14  C   UNL     1      -7.854   6.891  65.230  1.00  0.00    -0.118 C  
HETATM   15  C   UNL     1      -7.617   7.225  68.677  1.00  0.00    -0.114 C  
HETATM   16  C   UNL     1      -8.064   6.565  63.930  1.00  0.00    -0.025 C  
HETATM   17  O   UNL     1      -8.699   4.887  62.340  1.00  0.00    -0.114 OA 
HETATM   18  C   UNL     1      -8.476   5.171  63.508  1.00  0.00    -0.111 C  
HETATM   19  C   UNL     1      -8.541   4.126  64.594  1.00  0.00    -0.120 C  
HETATM   20  O   UNL     1      -8.016   8.515  68.201  1.00  0.00    -0.108 OA 
HETATM   21  C   UNL     1      -8.385   6.037  67.828  1.00  0.00    -0.112 C  
HETATM   22  C   UNL     1      -9.959   6.042  68.212  1.00  0.00    -0.173 C  
HETATM   23  F   UNL     1      -7.925   4.782  68.274  1.00  0.00    -0.082 F  
HETATM   24  H   UNL     1      -8.035   8.494  67.252  1.00  0.00     0.000 HD 
HETATM   25  C   UNL     1     -10.752   5.024  67.377  1.00  0.00     0.087 C  
ENDROOT
BRANCH   4  26
HETATM   26  C   UNL     1      -9.467   8.924  70.855  1.00  0.00    -0.236 C  
HETATM   27  O   UNL     1      -8.661   9.239  71.729  1.00  0.00    -0.288 OA 
BRANCH  26  28
HETATM   28  S   UNL     1     -10.352  10.219  70.013  1.00  0.00    -0.126 SA 
HETATM   29  F   UNL     1      -9.268  12.093  68.568  1.00  0.00    -0.188 F  
HETATM   30  C   UNL     1      -8.956  10.849  69.028  1.00  0.00    -0.094 C  
ENDBRANCH  26  28
ENDBRANCH   4  26
BRANCH   4  31
HETATM   31  O   UNL     1     -11.407   7.492  70.903  1.00  0.00    -0.268 OA 
BRANCH  31  32
HETATM   32  C   UNL     1     -11.951   8.204  71.925  1.00  0.00    -0.320 C  
HETATM   33  O   UNL     1     -11.362   8.551  72.932  1.00  0.00    -0.178 OA 
BRANCH  32  34
HETATM   34  C   UNL     1     -13.385   8.562  71.631  1.00  0.00    -0.372 C  
HETATM   35  C   UNL     1     -13.775   9.834  72.372  1.00  0.00    -0.263 C  
ENDBRANCH  32  34
ENDBRANCH  31  32
ENDBRANCH   4  31
TORSDOF 5
ENDMDL
MODEL       83
REMARK 921   NORMALIZED FREE ENERGY PREDICTED BY IDOCK:   -2.68 KCAL/MOL
REMARK 922        TOTAL FREE ENERGY PREDICTED BY IDOCK:   -2.39 KCAL/MOL
REMARK 923 INTER-LIGAND FREE ENERGY PREDICTED BY IDOCK:   -4.15 KCAL/MOL
REMARK 924 INTRA-LIGAND FREE ENERGY PREDICTED BY IDOCK:    1.76 KCAL/MOL
REMARK 927      BINDING AFFINITY PREDICTED BY RF-SCORE:    0.00 PKD
ROOT
HETATM    1  C   UNL     1     -10.509   7.750  68.374  1.00  0.00    -0.207 C  
HETATM    2  C   UNL     1     -11.450   7.007  69.145  1.00  0.00     0.077 C  
HETATM    3  C   UNL     1     -10.443   7.866  69.799  1.00  0.00    -0.233 C  
HETATM    4  C   UNL     1      -9.623   9.282  68.518  1.00  0.00    -0.147 C  
HETATM    5  C   UNL     1     -10.964   7.755  71.436  1.00  0.00    -0.264 C  
HETATM    6  C   UNL     1      -7.864   4.075  68.155  1.00  0.00    -0.073 C  
HETATM    7  F   UNL     1      -8.982   3.567  66.126  1.00  0.00    -0.117 F  
HETATM    8  C   UNL     1     -10.186   9.179  69.740  1.00  0.00    -0.219 C  
HETATM    9  C   UNL     1      -6.854   4.616  70.454  1.00  0.00    -0.037 C  
HETATM   10  C   UNL     1      -8.462   4.590  66.862  1.00  0.00    -0.105 C  
HETATM   11  C   UNL     1     -11.374  10.166  70.099  1.00  0.00    -0.372 C  
HETATM   12  C   UNL     1      -7.120   5.149  68.989  1.00  0.00    -0.057 C  
HETATM   13  C   UNL     1      -8.575   8.884  70.613  1.00  0.00    -0.224 C  
HETATM   14  C   UNL     1      -5.728   5.205  68.371  1.00  0.00    -0.016 C  
HETATM   15  C   UNL     1      -7.557   7.728  69.902  1.00  0.00    -0.090 C  
HETATM   16  C   UNL     1      -5.221   4.119  67.736  1.00  0.00    -0.011 C  
HETATM   17  O   UNL     1      -5.581   1.886  66.941  1.00  0.00    -0.016 OA 
HETATM   18  C   UNL     1      -6.027   2.852  67.544  1.00  0.00    -0.027 C  
HETATM   19  C   UNL     1      -7.391   2.812  68.186  1.00  0.00    -0.049 C  
HETATM   20  O   UNL     1      -6.633   8.402  69.040  1.00  0.00    -0.046 OA 
HETATM   21  C   UNL     1      -8.132   6.364  69.171  1.00  0.00    -0.111 C  
HETATM   22  C   UNL     1      -9.099   6.788  67.943  1.00  0.00    -0.114 C  
HETATM   23  F   UNL     1      -8.985   5.689  70.066  1.00  0.00    -0.128 F  
HETATM   24  H   UNL     1      -6.064   7.755  68.642  1.00  0.00     0.000 HD 
HETATM   25  C   UNL     1      -9.588   5.561  67.154  1.00  0.00    -0.140 C  
ENDROOT
BRANCH   4  26
HETATM   26  C   UNL     1      -8.704  10.626  68.744  1.00  0.00    -0.157 C  
HETATM   27  O   UNL     1      -8.964  11.605  69.443  1.00  0.00     0.391 OA 
BRANCH  26  28
HETATM   28  S   UNL     1      -7.249  10.680  67.719  1.00  0.00    -0.089 SA 
HETATM   29  F   UNL     1      -5.401  12.510  67.822  1.00  0.00    -0.065 F  
HETATM   30  C   UNL     1      -6.384  12.006  68.620  1.00  0.00    -0.059 C  
ENDBRANCH  26  28
ENDBRANCH   4  26
BRANCH   4  31
HETATM   31  O   UNL     1     -10.535   9.803  67.409  1.00  0.00    -0.227 OA 
BRANCH  31  32
HETATM   32  C   UNL     1     -10.767  11.079  67.006  1.00  0.00    -0.270 C  
HETATM   33  O   UNL     1     -11.475  11.881  67.586  1.00  0.00    -0.286 OA 
BRANCH  32  34
HETATM   34  C   UNL     1      -9.987  11.404  65.758  1.00  0.00    -0.271 C  
HETATM   35  C   UNL     1      -9.902  10.181  64.854  1.00  0.00    -0.390 C  
ENDBRANCH  32  34
ENDBRANCH  31  32
ENDBRANCH   4  31
TORSDOF 5
ENDMDL
MODEL       84
REMARK 921   NORMALIZED FREE ENERGY PREDICTED BY IDOCK:   -2.52 KCAL/MOL
REMARK 922        TOTAL FREE ENERGY PREDICTED BY IDOCK:   -2.19 KCAL/MOL
REMARK 923 INTER-LIGAND FREE ENERGY PREDICTED BY IDOCK:   -4.78 KCAL/MOL
REMARK 924 INTRA-LIGAND FREE ENERGY PREDICTED BY IDOCK:    2.59 KCAL/MOL
REMARK 927      BINDING AFFINITY PREDICTED BY RF-SCORE:    0.00 PKD
ROOT
HETATM    1  C   UNL     1      -9.844   5.401  67.365  1.00  0.00    -0.175 C  
HETATM    2  C   UNL     1     -10.675   5.141  66.237  1.00  0.00    -0.272 C  
HETATM    3  C   UNL     1      -9.218   4.912  66.173  1.00  0.00    -0.146 C  
HETATM    4  C   UNL     1      -8.334   4.762  68.048  1.00  0.00    -0.102 C  
HETATM    5  C   UNL     1      -9.093   4.172  64.624  1.00  0.00    -0.146 C  
HETATM    6  C   UNL     1      -9.649   9.764  66.153  1.00  0.00    -0.287 C  
HETATM    7  F   UNL     1     -11.518  10.094  67.576  1.00  0.00    -0.349 F  
HETATM    8  C   UNL     1      -8.388   4.120  66.862  1.00  0.00    -0.100 C  
HETATM    9  C   UNL     1      -7.751   9.261  64.497  1.00  0.00    -0.114 C  
HETATM   10  C   UNL     1     -10.335   9.427  67.460  1.00  0.00    -0.255 C  
HETATM   11  C   UNL     1      -8.708   2.567  66.871  1.00  0.00    -0.135 C  
HETATM   12  C   UNL     1      -8.228   9.163  66.002  1.00  0.00    -0.115 C  
HETATM   13  C   UNL     1      -6.944   5.035  66.140  1.00  0.00    -0.070 C  
HETATM   14  C   UNL     1      -7.324  10.152  66.728  1.00  0.00    -0.104 C  
HETATM   15  C   UNL     1      -6.968   6.720  66.345  1.00  0.00    -0.062 C  
HETATM   16  C   UNL     1      -7.690  11.454  66.840  1.00  0.00    -0.155 C  
HETATM   17  O   UNL     1      -9.366  13.126  66.464  1.00  0.00    -0.252 OA 
HETATM   18  C   UNL     1      -9.023  11.960  66.331  1.00  0.00    -0.180 C  
HETATM   19  C   UNL     1      -9.889  10.968  65.595  1.00  0.00    -0.287 C  
HETATM   20  O   UNL     1      -6.217   7.048  67.519  1.00  0.00    -0.038 OA 
HETATM   21  C   UNL     1      -8.361   7.604  66.290  1.00  0.00    -0.133 C  
HETATM   22  C   UNL     1      -9.361   7.092  67.457  1.00  0.00    -0.134 C  
HETATM   23  F   UNL     1      -9.046   7.309  65.094  1.00  0.00     0.043 F  
HETATM   24  H   UNL     1      -6.231   7.990  67.633  1.00  0.00     0.000 HD 
HETATM   25  C   UNL     1     -10.639   7.944  67.527  1.00  0.00    -0.312 C  
ENDROOT
BRANCH   4  26
HETATM   26  C   UNL     1      -6.861   4.257  68.575  1.00  0.00    -0.047 C  
HETATM   27  O   UNL     1      -6.184   3.330  68.135  1.00  0.00    -0.030 OA 
BRANCH  26  28
HETATM   28  S   UNL     1      -6.303   5.088  70.047  1.00  0.00    -0.027 SA 
HETATM   29  F   UNL     1      -6.891   7.535  70.712  1.00  0.00    -0.045 F  
HETATM   30  C   UNL     1      -7.381   6.549  69.909  1.00  0.00    -0.086 C  
ENDBRANCH  26  28
ENDBRANCH   4  26
BRANCH   4  31
HETATM   31  O   UNL     1      -9.198   4.174  69.161  1.00  0.00    -0.120 OA 
BRANCH  31  32
HETATM   32  C   UNL     1      -8.923   3.169  70.032  1.00  0.00    -0.103 C  
HETATM   33  O   UNL     1      -8.543   2.055  69.723  1.00  0.00    -0.046 OA 
BRANCH  32  34
HETATM   34  C   UNL     1      -9.100   3.624  71.458  1.00  0.00    -0.175 C  
HETATM   35  C   UNL     1     -10.232   4.638  71.554  1.00  0.00    -0.224 C  
ENDBRANCH  32  34
ENDBRANCH  31  32
ENDBRANCH   4  31
TORSDOF 5
ENDMDL
MODEL       85
REMARK 921   NORMALIZED FREE ENERGY PREDICTED BY IDOCK:   -2.45 KCAL/MOL
REMARK 922        TOTAL FREE ENERGY PREDICTED BY IDOCK:   -2.09 KCAL/MOL
REMARK 923 INTER-LIGAND FREE ENERGY PREDICTED BY IDOCK:   -3.90 KCAL/MOL
REMARK 924 INTRA-LIGAND FREE ENERGY PREDICTED BY IDOCK:    1.80 KCAL/MOL
REMARK 927      BINDING AFFINITY PREDICTED BY RF-SCORE:    0.00 PKD
ROOT
HETATM    1  C   UNL     1      -9.829  12.794  66.080  1.00  0.00    -0.269 C  
HETATM    2  C   UNL     1      -9.050  12.379  64.961  1.00  0.00     0.663 C  
HETATM    3  C   UNL     1      -8.921  11.703  66.267  1.00  0.00    -0.194 C  
HETATM    4  C   UNL     1     -10.538  12.045  67.526  1.00  0.00    -0.221 C  
HETATM    5  C   UNL     1      -7.871  10.408  65.837  1.00  0.00    -0.148 C  
HETATM    6  C   UNL     1      -6.762  16.014  66.958  1.00  0.00    -0.138 C  
HETATM    7  F   UNL     1      -8.096  17.448  65.620  1.00  0.00    -0.189 F  
HETATM    8  C   UNL     1      -9.787  11.035  67.039  1.00  0.00    -0.211 C  
HETATM    9  C   UNL     1      -5.296  14.329  68.226  1.00  0.00    -0.113 C  
HETATM   10  C   UNL     1      -8.153  16.458  66.555  1.00  0.00    -0.310 C  
HETATM   11  C   UNL     1     -10.535   9.799  66.386  1.00  0.00    -0.190 C  
HETATM   12  C   UNL     1      -6.728  14.993  68.123  1.00  0.00    -0.134 C  
HETATM   13  C   UNL     1      -8.560  11.087  68.430  1.00  0.00    -0.149 C  
HETATM   14  C   UNL     1      -6.814  15.854  69.378  1.00  0.00    -0.200 C  
HETATM   15  C   UNL     1      -7.983  12.630  68.840  1.00  0.00     0.176 C  
HETATM   16  C   UNL     1      -6.368  17.135  69.356  1.00  0.00    -0.238 C  
HETATM   17  O   UNL     1      -5.482  18.950  68.064  1.00  0.00    -0.176 OA 
HETATM   18  C   UNL     1      -5.851  17.784  68.090  1.00  0.00    -0.161 C  
HETATM   19  C   UNL     1      -5.753  16.905  66.868  1.00  0.00    -0.199 C  
HETATM   20  O   UNL     1      -8.781  13.146  69.911  1.00  0.00     1.460 OA 
HETATM   21  C   UNL     1      -7.704  13.804  67.714  1.00  0.00    -0.168 C  
HETATM   22  C   UNL     1      -9.088  14.139  66.942  1.00  0.00    -0.260 C  
HETATM   23  F   UNL     1      -6.863  13.286  66.709  1.00  0.00     0.127 F  
HETATM   24  H   UNL     1      -8.458  14.010  70.140  1.00  0.00     0.000 HD 
HETATM   25  C   UNL     1      -8.919  15.300  65.948  1.00  0.00    -0.011 C  
ENDROOT
BRANCH   4  26
HETATM   26  C   UNL     1     -11.054  11.361  68.929  1.00  0.00    -0.233 C  
HETATM   27  O   UNL     1     -10.756  10.255  69.379  1.00  0.00    -0.209 OA 
BRANCH  26  28
HETATM   28  S   UNL     1     -12.300  12.311  69.775  1.00  0.00     0.078 SA 
HETATM   29  F   UNL     1     -13.482  11.616  71.987  1.00  0.00    -0.535 F  
HETATM   30  C   UNL     1     -12.336  11.328  71.307  1.00  0.00    -0.270 C  
ENDBRANCH  26  28
ENDBRANCH   4  26
BRANCH   4  31
HETATM   31  O   UNL     1     -11.892  12.251  66.850  1.00  0.00    -0.524 OA 
BRANCH  31  32
HETATM   32  C   UNL     1     -12.397  13.354  66.239  1.00  0.00    -0.349 C  
HETATM   33  O   UNL     1     -12.873  14.318  66.809  1.00  0.00     0.049 OA 
BRANCH  32  34
HETATM   34  C   UNL     1     -12.246  13.261  64.742  1.00  0.00    -0.466 C  
HETATM   35  C   UNL     1     -12.776  11.925  64.239  1.00  0.00    -0.182 C  
ENDBRANCH  32  34
ENDBRANCH  31  32
ENDBRANCH   4  31
TORSDOF 5
ENDMDL
MODEL       86
REMARK 921   NORMALIZED FREE ENERGY PREDICTED BY IDOCK:   -2.35 KCAL/MOL
REMARK 922        TOTAL FREE ENERGY PREDICTED BY IDOCK:   -1.97 KCAL/MOL
REMARK 923 INTER-LIGAND FREE ENERGY PREDICTED BY IDOCK:   -4.58 KCAL/MOL
REMARK 924 INTRA-LIGAND FREE ENERGY PREDICTED BY IDOCK:    2.62 KCAL/MOL
REMARK 927      BINDING AFFINITY PREDICTED BY RF-SCORE:    0.00 PKD
ROOT
HETATM    1  C   UNL     1      -9.633   9.315  67.385  1.00  0.00    -0.190 C  
HETATM    2  C   UNL     1     -10.710  10.198  67.687  1.00  0.00    -0.339 C  
HETATM    3  C   UNL     1      -9.322  10.542  68.054  1.00  0.00    -0.150 C  
HETATM    4  C   UNL     1      -7.905   9.448  66.998  1.00  0.00    -0.098 C  
HETATM    5  C   UNL     1      -9.546  12.150  68.627  1.00  0.00    -0.068 C  
HETATM    6  C   UNL     1     -10.525   7.010  71.184  1.00  0.00    -0.229 C  
HETATM    7  F   UNL     1     -11.911   5.624  69.848  1.00  0.00     0.034 F  
HETATM    8  C   UNL     1      -8.205  10.720  67.337  1.00  0.00    -0.116 C  
HETATM    9  C   UNL     1      -9.155   8.683  72.570  1.00  0.00    -0.187 C  
HETATM   10  C   UNL     1     -10.724   6.295  69.864  1.00  0.00    -0.294 C  
HETATM   11  C   UNL     1      -8.250  11.806  66.183  1.00  0.00     0.158 C  
HETATM   12  C   UNL     1      -9.137   7.678  71.347  1.00  0.00    -0.146 C  
HETATM   13  C   UNL     1      -7.214  10.686  68.905  1.00  0.00    -0.090 C  
HETATM   14  C   UNL     1      -8.231   6.550  71.826  1.00  0.00    -0.112 C  
HETATM   15  C   UNL     1      -7.450   9.326  69.893  1.00  0.00    -0.085 C  
HETATM   16  C   UNL     1      -8.754   5.499  72.506  1.00  0.00    -0.124 C  
HETATM   17  O   UNL     1     -10.716   4.394  73.329  1.00  0.00    -0.191 OA 
HETATM   18  C   UNL     1     -10.243   5.359  72.746  1.00  0.00    -0.187 C  
HETATM   19  C   UNL     1     -11.115   6.499  72.285  1.00  0.00    -0.297 C  
HETATM   20  O   UNL     1      -6.446   8.354  69.580  1.00  0.00    -0.039 OA 
HETATM   21  C   UNL     1      -8.921   8.596  70.065  1.00  0.00    -0.147 C  
HETATM   22  C   UNL     1      -9.427   8.074  68.618  1.00  0.00    -0.147 C  
HETATM   23  F   UNL     1      -9.874   9.565  70.437  1.00  0.00    -0.233 F  
HETATM   24  H   UNL     1      -6.579   7.593  70.132  1.00  0.00     0.000 HD 
HETATM   25  C   UNL     1     -10.747   7.292  68.724  1.00  0.00    -0.168 C  
ENDROOT
BRANCH   4  26
HETATM   26  C   UNL     1      -6.280   9.588  66.792  1.00  0.00    -0.065 C  
HETATM   27  O   UNL     1      -5.648  10.593  66.470  1.00  0.00    -0.055 OA 
BRANCH  26  28
HETATM   28  S   UNL     1      -5.406   8.042  66.916  1.00  0.00    -0.033 SA 
HETATM   29  F   UNL     1      -5.402   6.164  65.114  1.00  0.00    -0.015 F  
HETATM   30  C   UNL     1      -5.651   7.501  65.195  1.00  0.00    -0.033 C  
ENDBRANCH  26  28
ENDBRANCH   4  26
BRANCH   4  31
HETATM   31  O   UNL     1      -8.288   9.031  65.580  1.00  0.00    -0.119 OA 
BRANCH  31  32
HETATM   32  C   UNL     1      -8.175   9.718  64.414  1.00  0.00    -0.162 C  
HETATM   33  O   UNL     1      -7.127   9.987  63.855  1.00  0.00    -0.126 OA 
BRANCH  32  34
HETATM   34  C   UNL     1      -9.531  10.070  63.858  1.00  0.00    -0.280 C  
HETATM   35  C   UNL     1      -9.450  10.268  62.351  1.00  0.00    -0.252 C  
ENDBRANCH  32  34
ENDBRANCH  31  32
ENDBRANCH   4  31
TORSDOF 5
ENDMDL
MODEL       87
REMARK 921   NORMALIZED FREE ENERGY PREDICTED BY IDOCK:   -2.34 KCAL/MOL
REMARK 922        TOTAL FREE ENERGY PREDICTED BY IDOCK:   -1.95 KCAL/MOL
REMARK 923 INTER-LIGAND FREE ENERGY PREDICTED BY IDOCK:   -6.04 KCAL/MOL
REMARK 924 INTRA-LIGAND FREE ENERGY PREDICTED BY IDOCK:    4.09 KCAL/MOL
REMARK 927      BINDING AFFINITY PREDICTED BY RF-SCORE:    0.00 PKD
ROOT
HETATM    1  C   UNL     1     -10.375  10.316  69.340  1.00  0.00    -0.256 C  
HETATM    2  C   UNL     1     -11.584   9.845  68.750  1.00  0.00     0.142 C  
HETATM    3  C   UNL     1     -10.271   9.473  68.187  1.00  0.00    -0.231 C  
HETATM    4  C   UNL     1      -8.704   9.744  69.526  1.00  0.00    -0.185 C  
HETATM    5  C   UNL     1     -10.763   8.341  66.987  1.00  0.00    -0.225 C  
HETATM    6  C   UNL     1     -10.781  14.164  66.980  1.00  0.00    -0.285 C  
HETATM    7  F   UNL     1     -11.927  15.032  68.866  1.00  0.00    -0.317 F  
HETATM    8  C   UNL     1      -9.216   8.818  68.687  1.00  0.00    -0.141 C  
HETATM    9  C   UNL     1      -9.699  13.066  64.925  1.00  0.00     0.078 C  
HETATM   10  C   UNL     1     -10.876  14.251  68.489  1.00  0.00    -0.253 C  
HETATM   11  C   UNL     1      -9.471   7.360  69.255  1.00  0.00    -0.154 C  
HETATM   12  C   UNL     1      -9.528  13.415  66.459  1.00  0.00    -0.252 C  
HETATM   13  C   UNL     1      -8.205   9.371  67.232  1.00  0.00    -0.117 C  
HETATM   14  C   UNL     1      -8.431  14.473  66.464  1.00  0.00     0.130 C  
HETATM   15  C   UNL     1      -8.182  11.044  66.949  1.00  0.00    -0.140 C  
HETATM   16  C   UNL     1      -8.750  15.786  66.341  1.00  0.00    -0.372 C  
HETATM   17  O   UNL     1     -10.472  17.447  66.199  1.00  0.00    -0.347 OA 
HETATM   18  C   UNL     1     -10.186  16.261  66.275  1.00  0.00    -0.327 C  
HETATM   19  C   UNL     1     -11.252  15.194  66.247  1.00  0.00    -0.273 C  
HETATM   20  O   UNL     1      -7.030  11.600  67.592  1.00  0.00    -0.081 OA 
HETATM   21  C   UNL     1      -9.499  12.008  67.200  1.00  0.00    -0.187 C  
HETATM   22  C   UNL     1      -9.933  11.918  68.758  1.00  0.00    -0.105 C  
HETATM   23  F   UNL     1     -10.600  11.471  66.503  1.00  0.00    -0.255 F  
HETATM   24  H   UNL     1      -7.018  12.536  67.434  1.00  0.00     0.000 HD 
HETATM   25  C   UNL     1     -11.094  12.874  69.081  1.00  0.00    -0.245 C  
ENDROOT
BRANCH   4  26
HETATM   26  C   UNL     1      -7.133   9.262  69.552  1.00  0.00    -0.060 C  
HETATM   27  O   UNL     1      -6.443   8.898  68.600  1.00  0.00    -0.052 OA 
BRANCH  26  28
HETATM   28  S   UNL     1      -6.450   9.129  71.191  1.00  0.00    -0.077 SA 
HETATM   29  F   UNL     1      -6.209   6.921  72.548  1.00  0.00    -0.047 F  
HETATM   30  C   UNL     1      -6.349   7.311  71.250  1.00  0.00    -0.036 C  
ENDBRANCH  26  28
ENDBRANCH   4  26
BRANCH   4  31
HETATM   31  O   UNL     1      -9.034   9.555  71.004  1.00  0.00    -0.241 OA 
BRANCH  31  32
HETATM   32  C   UNL     1     -10.201   9.178  71.591  1.00  0.00    -0.301 C  
HETATM   33  O   UNL     1     -11.196   9.872  71.687  1.00  0.00    -0.257 OA 
BRANCH  32  34
HETATM   34  C   UNL     1     -10.129   7.750  72.070  1.00  0.00    -0.244 C  
HETATM   35  C   UNL     1     -11.496   7.286  72.556  1.00  0.00    -0.322 C  
ENDBRANCH  32  34
ENDBRANCH  31  32
ENDBRANCH   4  31
TORSDOF 5
ENDMDL
MODEL       88
REMARK 921   NORMALIZED FREE ENERGY PREDICTED BY IDOCK:   -2.33 KCAL/MOL
REMARK 922        TOTAL FREE ENERGY PREDICTED BY IDOCK:   -1.94 KCAL/MOL
REMARK 923 INTER-LIGAND FREE ENERGY PREDICTED BY IDOCK:   -4.18 KCAL/MOL
REMARK 924 INTRA-LIGAND FREE ENERGY PREDICTED BY IDOCK:    2.24 KCAL/MOL
REMARK 927      BINDING AFFINITY PREDICTED BY RF-SCORE:    0.00 PKD
ROOT
HETATM    1  C   UNL     1      -8.006   9.826  69.010  1.00  0.00    -0.096 C  
HETATM    2  C   UNL     1      -8.752   9.752  70.223  1.00  0.00    -0.172 C  
HETATM    3  C   UNL     1      -9.418   9.613  68.913  1.00  0.00    -0.157 C  
HETATM    4  C   UNL     1      -8.103   9.141  67.375  1.00  0.00    -0.107 C  
HETATM    5  C   UNL     1     -11.010   9.201  69.422  1.00  0.00    -0.108 C  
HETATM    6  C   UNL     1      -8.295  14.346  69.166  1.00  0.00     0.056 C  
HETATM    7  F   UNL     1      -6.226  14.296  70.324  1.00  0.00    -0.132 F  
HETATM    8  C   UNL     1      -9.279   8.743  67.905  1.00  0.00    -0.149 C  
HETATM    9  C   UNL     1     -10.621  14.275  68.077  1.00  0.00    -0.238 C  
HETATM   10  C   UNL     1      -6.921  13.724  69.301  1.00  0.00    -0.042 C  
HETATM   11  C   UNL     1      -9.459   7.205  68.245  1.00  0.00    -0.133 C  
HETATM   12  C   UNL     1      -9.101  13.859  67.935  1.00  0.00    -0.194 C  
HETATM   13  C   UNL     1     -10.303   9.854  66.827  1.00  0.00    -0.285 C  
HETATM   14  C   UNL     1      -8.598  14.729  66.789  1.00  0.00    -0.226 C  
HETATM   15  C   UNL     1      -9.770  11.462  66.717  1.00  0.00    -0.198 C  
HETATM   16  C   UNL     1      -8.095  15.963  67.042  1.00  0.00    -0.265 C  
HETATM   17  O   UNL     1      -7.450  17.591  68.679  1.00  0.00    -0.246 OA 
HETATM   18  C   UNL     1      -7.936  16.493  68.451  1.00  0.00    -0.194 C  
HETATM   19  C   UNL     1      -8.463  15.624  69.566  1.00  0.00    -0.182 C  
HETATM   20  O   UNL     1      -8.938  11.589  65.559  1.00  0.00    -0.361 OA 
HETATM   21  C   UNL     1      -9.103  12.269  67.994  1.00  0.00    -0.191 C  
HETATM   22  C   UNL     1      -7.770  11.487  68.477  1.00  0.00    -0.134 C  
HETATM   23  F   UNL     1      -9.975  12.181  69.098  1.00  0.00    -0.089 F  
HETATM   24  H   UNL     1      -8.640  12.489  65.498  1.00  0.00     0.000 HD 
HETATM   25  C   UNL     1      -7.042  12.244  69.600  1.00  0.00     0.329 C  
ENDROOT
BRANCH   4  26
HETATM   26  C   UNL     1      -8.299   8.617  65.829  1.00  0.00    -0.144 C  
HETATM   27  O   UNL     1      -9.148   7.835  65.404  1.00  0.00     0.040 OA 
BRANCH  26  28
HETATM   28  S   UNL     1      -7.015   9.157  64.720  1.00  0.00    -0.087 SA 
HETATM   29  F   UNL     1      -5.270  11.020  65.228  1.00  0.00    -0.129 F  
HETATM   30  C   UNL     1      -6.097  10.181  65.914  1.00  0.00    -0.087 C  
ENDBRANCH  26  28
ENDBRANCH   4  26
BRANCH   4  31
HETATM   31  O   UNL     1      -6.885   8.303  67.757  1.00  0.00    -0.067 OA 
BRANCH  31  32
HETATM   32  C   UNL     1      -6.711   6.956  67.711  1.00  0.00    -0.067 C  
HETATM   33  O   UNL     1      -6.549   6.303  66.697  1.00  0.00    -0.048 OA 
BRANCH  32  34
HETATM   34  C   UNL     1      -6.690   6.365  69.097  1.00  0.00    -0.053 C  
HETATM   35  C   UNL     1      -5.821   7.210  70.020  1.00  0.00    -0.024 C  
ENDBRANCH  32  34
ENDBRANCH  31  32
ENDBRANCH   4  31
TORSDOF 5
ENDMDL
MODEL       89
REMARK 921   NORMALIZED FREE ENERGY PREDICTED BY IDOCK:   -1.99 KCAL/MOL
REMARK 922        TOTAL FREE ENERGY PREDICTED BY IDOCK:   -1.51 KCAL/MOL
REMARK 923 INTER-LIGAND FREE ENERGY PREDICTED BY IDOCK:   -3.80 KCAL/MOL
REMARK 924 INTRA-LIGAND FREE ENERGY PREDICTED BY IDOCK:    2.29 KCAL/MOL
REMARK 927      BINDING AFFINITY PREDICTED BY RF-SCORE:    0.00 PKD
ROOT
HETATM    1  C   UNL     1      -8.037   7.214  68.140  1.00  0.00    -0.124 C  
HETATM    2  C   UNL     1      -6.706   7.248  67.631  1.00  0.00    -0.065 C  
HETATM    3  C   UNL     1      -6.976   7.482  69.064  1.00  0.00    -0.073 C  
HETATM    4  C   UNL     1      -8.841   6.789  69.665  1.00  0.00    -0.144 C  
HETATM    5  C   UNL     1      -5.367   7.550  69.671  1.00  0.00    -0.023 C  
HETATM    6  C   UNL     1      -8.571  11.537  66.887  1.00  0.00    -0.163 C  
HETATM    7  F   UNL     1      -9.432  10.690  64.846  1.00  0.00    -0.204 F  
HETATM    8  C   UNL     1      -7.540   6.734  70.021  1.00  0.00    -0.100 C  
HETATM    9  C   UNL     1      -7.448  12.345  69.051  1.00  0.00     0.075 C  
HETATM   10  C   UNL     1      -9.422  10.493  66.194  1.00  0.00    -0.180 C  
HETATM   11  C   UNL     1      -6.903   5.309  70.296  1.00  0.00    -0.048 C  
HETATM   12  C   UNL     1      -8.620  11.480  68.435  1.00  0.00    -0.159 C  
HETATM   13  C   UNL     1      -7.629   8.232  71.113  1.00  0.00    -0.082 C  
HETATM   14  C   UNL     1      -9.874  12.266  68.799  1.00  0.00    -0.018 C  
HETATM   15  C   UNL     1      -8.406   9.583  70.443  1.00  0.00    -0.192 C  
HETATM   16  C   UNL     1     -10.336  13.234  67.969  1.00  0.00    -0.243 C  
HETATM   17  O   UNL     1     -10.128  14.368  65.867  1.00  0.00    -0.296 OA 
HETATM   18  C   UNL     1      -9.689  13.519  66.630  1.00  0.00    -0.280 C  
HETATM   19  C   UNL     1      -8.436  12.746  66.303  1.00  0.00     0.427 C  
HETATM   20  O   UNL     1      -9.780   9.566  70.846  1.00  0.00    -0.259 OA 
HETATM   21  C   UNL     1      -8.283   9.980  68.845  1.00  0.00    -0.121 C  
HETATM   22  C   UNL     1      -8.859   8.759  67.949  1.00  0.00    -0.136 C  
HETATM   23  F   UNL     1      -6.920  10.053  68.494  1.00  0.00    -0.063 F  
HETATM   24  H   UNL     1     -10.215  10.322  70.470  1.00  0.00     0.000 HD 
HETATM   25  C   UNL     1      -8.867   9.107  66.451  1.00  0.00    -0.165 C  
ENDROOT
BRANCH   4  26
HETATM   26  C   UNL     1      -9.544   6.536  71.130  1.00  0.00    -0.171 C  
HETATM   27  O   UNL     1      -8.988   6.449  72.224  1.00  0.00    -0.139 OA 
BRANCH  26  28
HETATM   28  S   UNL     1     -11.291   6.208  71.040  1.00  0.00    -0.233 SA 
HETATM   29  F   UNL     1     -13.160   8.017  70.942  1.00  0.00    -0.175 F  
HETATM   30  C   UNL     1     -11.826   7.913  70.686  1.00  0.00    -0.102 C  
ENDBRANCH  26  28
ENDBRANCH   4  26
BRANCH   4  31
HETATM   31  O   UNL     1      -9.380   5.565  68.929  1.00  0.00    -0.119 OA 
BRANCH  31  32
HETATM   32  C   UNL     1     -10.333   5.484  67.963  1.00  0.00    -0.177 C  
HETATM   33  O   UNL     1     -11.514   5.733  68.119  1.00  0.00     0.347 OA 
BRANCH  32  34
HETATM   34  C   UNL     1      -9.730   5.090  66.639  1.00  0.00    -0.191 C  
HETATM   35  C   UNL     1      -9.312   3.626  66.662  1.00  0.00    -0.206 C  
ENDBRANCH  32  34
ENDBRANCH  31  32
ENDBRANCH   4  31
TORSDOF 5
ENDMDL
MODEL       90
REMARK 921   NORMALIZED FREE ENERGY PREDICTED BY IDOCK:   -1.16 KCAL/MOL
REMARK 922        TOTAL FREE ENERGY PREDICTED BY IDOCK:   -0.44 KCAL/MOL
REMARK 923 INTER-LIGAND FREE ENERGY PREDICTED BY IDOCK:   -3.98 KCAL/MOL
REMARK 924 INTRA-LIGAND FREE ENERGY PREDICTED BY IDOCK:    3.55 KCAL/MOL
REMARK 927      BINDING AFFINITY PREDICTED BY RF-SCORE:    0.00 PKD
ROOT
HETATM    1  C   UNL     1      -8.311   9.970  69.114  1.00  0.00    -0.146 C  
HETATM    2  C   UNL     1      -7.570  10.405  70.252  1.00  0.00     0.215 C  
HETATM    3  C   UNL     1      -6.889   9.812  69.085  1.00  0.00    -0.054 C  
HETATM    4  C   UNL     1      -8.053   9.833  67.363  1.00  0.00    -0.114 C  
HETATM    5  C   UNL     1      -5.245  10.055  69.535  1.00  0.00    -0.038 C  
HETATM    6  C   UNL     1      -9.106   6.027  71.202  1.00  0.00    -0.153 C  
HETATM    7  F   UNL     1     -11.105   7.019  72.006  1.00  0.00    -0.236 F  
HETATM    8  C   UNL     1      -6.816  10.161  67.794  1.00  0.00    -0.075 C  
HETATM    9  C   UNL     1      -6.829   5.116  70.437  1.00  0.00    -0.044 C  
HETATM   10  C   UNL     1     -10.293   6.923  70.916  1.00  0.00    -0.198 C  
HETATM   11  C   UNL     1      -6.275  11.615  67.466  1.00  0.00    -0.083 C  
HETATM   12  C   UNL     1      -8.206   5.742  69.973  1.00  0.00    -0.115 C  
HETATM   13  C   UNL     1      -6.085   8.501  67.404  1.00  0.00    -0.052 C  
HETATM   14  C   UNL     1      -8.900   4.589  69.259  1.00  0.00    -0.128 C  
HETATM   15  C   UNL     1      -6.984   7.161  67.931  1.00  0.00    -0.080 C  
HETATM   16  C   UNL     1      -9.683   3.728  69.957  1.00  0.00    -0.211 C  
HETATM   17  O   UNL     1     -10.698   3.160  72.053  1.00  0.00     0.198 OA 
HETATM   18  C   UNL     1      -9.965   3.916  71.433  1.00  0.00    -0.127 C  
HETATM   19  C   UNL     1      -9.247   5.050  72.122  1.00  0.00    -0.156 C  
HETATM   20  O   UNL     1      -7.822   6.722  66.856  1.00  0.00    -0.104 OA 
HETATM   21  C   UNL     1      -7.825   7.157  69.352  1.00  0.00    -0.113 C  
HETATM   22  C   UNL     1      -8.935   8.336  69.315  1.00  0.00    -0.147 C  
HETATM   23  F   UNL     1      -6.959   7.530  70.399  1.00  0.00    -0.048 F  
HETATM   24  H   UNL     1      -8.325   5.973  67.152  1.00  0.00     0.000 HD 
HETATM   25  C   UNL     1      -9.824   8.321  70.570  1.00  0.00    -0.197 C  
ENDROOT
BRANCH   4  26
HETATM   26  C   UNL     1      -7.736   9.574  65.771  1.00  0.00    -0.100 C  
HETATM   27  O   UNL     1      -8.523   9.644  64.828  1.00  0.00    -0.138 OA 
BRANCH  26  28
HETATM   28  S   UNL     1      -6.087   8.981  65.455  1.00  0.00    -0.063 SA 
HETATM   29  F   UNL     1      -5.446   7.183  63.686  1.00  0.00    -0.030 F  
HETATM   30  C   UNL     1      -6.465   8.051  63.935  1.00  0.00    -0.066 C  
ENDBRANCH  26  28
ENDBRANCH   4  26
BRANCH   4  31
HETATM   31  O   UNL     1      -9.036  10.992  67.223  1.00  0.00    -0.138 OA 
BRANCH  31  32
HETATM   32  C   UNL     1     -10.345  10.979  66.857  1.00  0.00    -0.235 C  
HETATM   33  O   UNL     1     -11.221  10.336  67.405  1.00  0.00    -0.274 OA 
BRANCH  32  34
HETATM   34  C   UNL     1     -10.594  11.915  65.702  1.00  0.00    -0.311 C  
HETATM   35  C   UNL     1     -11.648  12.948  66.075  1.00  0.00    -0.424 C  
ENDBRANCH  32  34
ENDBRANCH  31  32
ENDBRANCH   4  31
TORSDOF 5
ENDMDL
MODEL       91
REMARK 921   NORMALIZED FREE ENERGY PREDICTED BY IDOCK:   -0.98 KCAL/MOL
REMARK 922        TOTAL FREE ENERGY PREDICTED BY IDOCK:   -0.20 KCAL/MOL
REMARK 923 INTER-LIGAND FREE ENERGY PREDICTED BY IDOCK:   -5.68 KCAL/MOL
REMARK 924 INTRA-LIGAND FREE ENERGY PREDICTED BY IDOCK:    5.48 KCAL/MOL
REMARK 927      BINDING AFFINITY PREDICTED BY RF-SCORE:    0.00 PKD
ROOT
HETATM    1  C   UNL     1     -11.059   6.984  69.869  1.00  0.00    -0.301 C  
HETATM    2  C   UNL     1     -12.113   6.097  70.237  1.00  0.00     0.463 C  
HETATM    3  C   UNL     1     -10.906   6.230  71.077  1.00  0.00    -0.326 C  
HETATM    4  C   UNL     1      -9.834   7.970  70.695  1.00  0.00    -0.184 C  
HETATM    5  C   UNL     1     -11.367   5.268  72.428  1.00  0.00    -0.190 C  
HETATM    6  C   UNL     1      -9.357   3.762  67.174  1.00  0.00    -0.223 C  
HETATM    7  F   UNL     1     -10.650   4.732  65.438  1.00  0.00    -0.232 F  
HETATM    8  C   UNL     1     -10.352   7.264  71.723  1.00  0.00    -0.215 C  
HETATM    9  C   UNL     1      -8.150   2.677  69.164  1.00  0.00    -0.067 C  
HETATM   10  C   UNL     1      -9.875   5.026  66.519  1.00  0.00    -0.199 C  
HETATM   11  C   UNL     1     -11.259   8.033  72.772  1.00  0.00    -0.448 C  
HETATM   12  C   UNL     1      -8.348   4.003  68.324  1.00  0.00    -0.100 C  
HETATM   13  C   UNL     1      -8.818   6.253  71.988  1.00  0.00    -0.138 C  
HETATM   14  C   UNL     1      -7.009   4.181  67.617  1.00  0.00    -0.056 C  
HETATM   15  C   UNL     1      -8.129   5.586  70.587  1.00  0.00    -0.115 C  
HETATM   16  C   UNL     1      -6.798   3.607  66.406  1.00  0.00    -0.054 C  
HETATM   17  O   UNL     1      -7.704   2.361  64.569  1.00  0.00    -0.070 OA 
HETATM   18  C   UNL     1      -7.885   2.847  65.676  1.00  0.00    -0.085 C  
HETATM   19  C   UNL     1      -9.192   2.664  66.407  1.00  0.00    -0.072 C  
HETATM   20  O   UNL     1      -7.112   6.474  70.111  1.00  0.00    -0.069 OA 
HETATM   21  C   UNL     1      -9.038   5.026  69.328  1.00  0.00    -0.103 C  
HETATM   22  C   UNL     1      -9.932   6.241  68.738  1.00  0.00    -0.173 C  
HETATM   23  F   UNL     1      -9.986   4.106  69.819  1.00  0.00    -0.278 F  
HETATM   24  H   UNL     1      -6.728   6.100  69.327  1.00  0.00     0.000 HD 
HETATM   25  C   UNL     1     -10.728   5.811  67.494  1.00  0.00    -0.320 C  
ENDROOT
BRANCH   4  26
HETATM   26  C   UNL     1      -8.617   8.752  71.476  1.00  0.00    -0.186 C  
HETATM   27  O   UNL     1      -7.727   9.441  70.979  1.00  0.00    -0.284 OA 
BRANCH  26  28
HETATM   28  S   UNL     1      -8.543   8.402  73.220  1.00  0.00    -0.028 SA 
HETATM   29  F   UNL     1      -6.407   7.683  74.523  1.00  0.00    -0.085 F  
HETATM   30  C   UNL     1      -6.729   8.314  73.359  1.00  0.00    -0.118 C  
ENDBRANCH  26  28
ENDBRANCH   4  26
BRANCH   4  31
HETATM   31  O   UNL     1     -10.646   9.182  70.247  1.00  0.00    -0.200 OA 
BRANCH  31  32
HETATM   32  C   UNL     1     -11.792   9.698  70.766  1.00  0.00    -0.300 C  
HETATM   33  O   UNL     1     -12.703   9.047  71.242  1.00  0.00    -0.316 OA 
BRANCH  32  34
HETATM   34  C   UNL     1     -11.775  11.205  70.725  1.00  0.00    -0.215 C  
HETATM   35  C   UNL     1     -11.680  11.694  69.286  1.00  0.00    -0.396 C  
ENDBRANCH  32  34
ENDBRANCH  31  32
ENDBRANCH   4  31
TORSDOF 5
ENDMDL
MODEL       92
REMARK 921   NORMALIZED FREE ENERGY PREDICTED BY IDOCK:   -0.84 KCAL/MOL
REMARK 922        TOTAL FREE ENERGY PREDICTED BY IDOCK:   -0.02 KCAL/MOL
REMARK 923 INTER-LIGAND FREE ENERGY PREDICTED BY IDOCK:   -3.98 KCAL/MOL
REMARK 924 INTRA-LIGAND FREE ENERGY PREDICTED BY IDOCK:    3.97 KCAL/MOL
REMARK 927      BINDING AFFINITY PREDICTED BY RF-SCORE:    0.00 PKD
ROOT
HETATM    1  C   UNL     1      -8.962  14.296  68.282  1.00  0.00    -0.187 C  
HETATM    2  C   UNL     1      -8.326  14.251  69.557  1.00  0.00     0.457 C  
HETATM    3  C   UNL     1      -9.696  14.781  69.411  1.00  0.00    -0.047 C  
HETATM    4  C   UNL     1     -10.616  14.189  67.645  1.00  0.00    -0.253 C  
HETATM    5  C   UNL     1     -10.109  15.016  71.066  1.00  0.00     1.032 C  
HETATM    6  C   UNL     1      -6.885  18.235  67.439  1.00  0.00    -0.206 C  
HETATM    7  F   UNL     1      -5.167  16.949  66.429  1.00  0.00    -0.180 F  
HETATM    8  C   UNL     1     -10.842  14.243  68.974  1.00  0.00    -0.274 C  
HETATM    9  C   UNL     1      -8.704  19.516  68.723  1.00  0.00    -0.342 C  
HETATM   10  C   UNL     1      -6.519  17.047  66.574  1.00  0.00    -0.204 C  
HETATM   11  C   UNL     1     -11.346  12.925  69.698  1.00  0.00    -0.166 C  
HETATM   12  C   UNL     1      -8.407  18.510  67.538  1.00  0.00    -0.267 C  
HETATM   13  C   UNL     1     -11.596  15.938  68.922  1.00  0.00    -0.392 C  
HETATM   14  C   UNL     1      -8.722  19.326  66.290  1.00  0.00    -0.333 C  
HETATM   15  C   UNL     1     -10.738  17.095  68.024  1.00  0.00    -0.372 C  
HETATM   16  C   UNL     1      -7.757  20.083  65.709  1.00  0.00    -0.249 C  
HETATM   17  O   UNL     1      -5.453  20.744  65.668  1.00  0.00    -0.189 OA 
HETATM   18  C   UNL     1      -6.329  20.089  66.214  1.00  0.00    -0.185 C  
HETATM   19  C   UNL     1      -6.048  19.293  67.464  1.00  0.00    -0.202 C  
HETATM   20  O   UNL     1     -11.273  17.132  66.697  1.00  0.00     0.254 OA 
HETATM   21  C   UNL     1      -9.088  17.142  67.980  1.00  0.00    -0.240 C  
HETATM   22  C   UNL     1      -8.534  15.745  67.377  1.00  0.00    -0.191 C  
HETATM   23  F   UNL     1      -8.594  17.170  69.299  1.00  0.00    -0.183 F  
HETATM   24  H   UNL     1     -10.792  17.779  66.195  1.00  0.00     0.000 HD 
HETATM   25  C   UNL     1      -7.005  15.762  67.213  1.00  0.00    -0.232 C  
ENDROOT
BRANCH   4  26
HETATM   26  C   UNL     1     -12.165  14.240  67.095  1.00  0.00    -0.277 C  
HETATM   27  O   UNL     1     -13.199  14.204  67.760  1.00  0.00     1.789 OA 
BRANCH  26  28
HETATM   28  S   UNL     1     -12.298  14.188  65.320  1.00  0.00    -0.450 SA 
HETATM   29  F   UNL     1     -11.317  15.957  63.683  1.00  0.00     0.032 F  
HETATM   30  C   UNL     1     -11.122  15.532  64.962  1.00  0.00    -0.401 C  
ENDBRANCH  26  28
ENDBRANCH   4  26
BRANCH   4  31
HETATM   31  O   UNL     1     -10.214  12.823  67.094  1.00  0.00    -0.231 OA 
BRANCH  31  32
HETATM   32  C   UNL     1     -10.817  12.059  66.146  1.00  0.00    -0.286 C  
HETATM   33  O   UNL     1     -11.781  11.340  66.332  1.00  0.00    -0.268 OA 
BRANCH  32  34
HETATM   34  C   UNL     1     -10.166  12.253  64.800  1.00  0.00    -0.308 C  
HETATM   35  C   UNL     1     -10.286  10.984  63.967  1.00  0.00    -0.436 C  
ENDBRANCH  32  34
ENDBRANCH  31  32
ENDBRANCH   4  31
TORSDOF 5
ENDMDL
MODEL       93
REMARK 921   NORMALIZED FREE ENERGY PREDICTED BY IDOCK:   -0.79 KCAL/MOL
REMARK 922        TOTAL FREE ENERGY PREDICTED BY IDOCK:    0.05 KCAL/MOL
REMARK 923 INTER-LIGAND FREE ENERGY PREDICTED BY IDOCK:   -3.35 KCAL/MOL
REMARK 924 INTRA-LIGAND FREE ENERGY PREDICTED BY IDOCK:    3.40 KCAL/MOL
REMARK 927      BINDING AFFINITY PREDICTED BY RF-SCORE:    0.00 PKD
ROOT
HETATM    1  C   UNL     1      -9.376   8.283  68.827  1.00  0.00    -0.143 C  
HETATM    2  C   UNL     1     -10.283   8.194  67.730  1.00  0.00    -0.288 C  
HETATM    3  C   UNL     1      -8.924   7.626  67.638  1.00  0.00    -0.127 C  
HETATM    4  C   UNL     1      -8.037   7.326  69.493  1.00  0.00    -0.129 C  
HETATM    5  C   UNL     1      -9.027   6.834  66.113  1.00  0.00    -0.157 C  
HETATM    6  C   UNL     1      -8.202  12.440  67.455  1.00  0.00    -0.173 C  
HETATM    7  F   UNL     1      -9.892  13.243  68.913  1.00  0.00    -0.171 F  
HETATM    8  C   UNL     1      -8.280   6.680  68.333  1.00  0.00    -0.115 C  
HETATM    9  C   UNL     1      -6.532  11.456  65.770  1.00  0.00     0.448 C  
HETATM   10  C   UNL     1      -8.904  12.312  68.791  1.00  0.00     0.141 C  
HETATM   11  C   UNL     1      -8.956   5.248  68.405  1.00  0.00    -0.116 C  
HETATM   12  C   UNL     1      -6.968  11.517  67.290  1.00  0.00    -0.125 C  
HETATM   13  C   UNL     1      -6.686   7.208  67.541  1.00  0.00    -0.064 C  
HETATM   14  C   UNL     1      -5.833  12.285  67.957  1.00  0.00    -0.064 C  
HETATM   15  C   UNL     1      -6.307   8.856  67.687  1.00  0.00    -0.056 C  
HETATM   16  C   UNL     1      -5.878  13.639  68.031  1.00  0.00    -0.132 C  
HETATM   17  O   UNL     1      -7.126  15.647  67.639  1.00  0.00    -0.135 OA 
HETATM   18  C   UNL     1      -7.071  14.430  67.539  1.00  0.00    -0.175 C  
HETATM   19  C   UNL     1      -8.170  13.650  66.861  1.00  0.00     0.044 C  
HETATM   20  O   UNL     1      -5.461   9.031  68.829  1.00  0.00    -0.039 OA 
HETATM   21  C   UNL     1      -7.454  10.042  67.637  1.00  0.00    -0.090 C  
HETATM   22  C   UNL     1      -8.507   9.813  68.846  1.00  0.00    -0.129 C  
HETATM   23  F   UNL     1      -8.228   9.883  66.470  1.00  0.00    -0.116 F  
HETATM   24  H   UNL     1      -5.249   9.953  68.910  1.00  0.00     0.000 HD 
HETATM   25  C   UNL     1      -9.545  10.945  68.918  1.00  0.00    -0.192 C  
ENDROOT
BRANCH   4  26
HETATM   26  C   UNL     1      -6.708   6.503  70.000  1.00  0.00    -0.049 C  
HETATM   27  O   UNL     1      -5.803   6.912  70.727  1.00  0.00    -0.027 OA 
BRANCH  26  28
HETATM   28  S   UNL     1      -6.534   4.893  69.259  1.00  0.00    -0.037 SA 
HETATM   29  F   UNL     1      -5.490   2.807  70.413  1.00  0.00    -0.010 F  
HETATM   30  C   UNL     1      -6.053   3.996  70.769  1.00  0.00    -0.018 C  
ENDBRANCH  26  28
ENDBRANCH   4  26
BRANCH   4  31
HETATM   31  O   UNL     1      -8.978   6.990  70.648  1.00  0.00    -0.152 OA 
BRANCH  31  32
HETATM   32  C   UNL     1      -9.782   5.909  70.825  1.00  0.00    -0.172 C  
HETATM   33  O   UNL     1      -9.411   4.810  71.193  1.00  0.00    -0.135 OA 
BRANCH  32  34
HETATM   34  C   UNL     1     -11.224   6.257  70.556  1.00  0.00    -0.420 C  
HETATM   35  C   UNL     1     -12.043   6.145  71.835  1.00  0.00    -0.225 C  
ENDBRANCH  32  34
ENDBRANCH  31  32
ENDBRANCH   4  31
TORSDOF 5
ENDMDL
MODEL       94
REMARK 921   NORMALIZED FREE ENERGY PREDICTED BY IDOCK:   -0.52 KCAL/MOL
REMARK 922        TOTAL FREE ENERGY PREDICTED BY IDOCK:    0.40 KCAL/MOL
REMARK 923 INTER-LIGAND FREE ENERGY PREDICTED BY IDOCK:   -1.38 KCAL/MOL
REMARK 924 INTRA-LIGAND FREE ENERGY PREDICTED BY IDOCK:    1.77 KCAL/MOL
REMARK 927      BINDING AFFINITY PREDICTED BY RF-SCORE:    0.00 PKD
ROOT
HETATM    1  C   UNL     1      -9.045  10.557  67.359  1.00  0.00    -0.147 C  
HETATM    2  C   UNL     1     -10.273  10.795  66.676  1.00  0.00    -0.283 C  
HETATM    3  C   UNL     1     -10.223   9.914  67.860  1.00  0.00    -0.234 C  
HETATM    4  C   UNL     1      -8.523  10.203  69.019  1.00  0.00    -0.151 C  
HETATM    5  C   UNL     1     -11.902   9.609  68.085  1.00  0.00     1.537 C  
HETATM    6  C   UNL     1      -8.066   7.304  64.358  1.00  0.00    -0.065 C  
HETATM    7  F   UNL     1      -6.940   8.984  63.120  1.00  0.00    -0.091 F  
HETATM    8  C   UNL     1      -9.865  10.117  69.134  1.00  0.00    -0.225 C  
HETATM    9  C   UNL     1      -9.473   5.607  65.678  1.00  0.00     0.023 C  
HETATM   10  C   UNL     1      -7.177   8.530  64.383  1.00  0.00    -0.091 C  
HETATM   11  C   UNL     1     -10.620  11.264  69.925  1.00  0.00     0.253 C  
HETATM   12  C   UNL     1      -8.269   6.632  65.740  1.00  0.00    -0.135 C  
HETATM   13  C   UNL     1      -9.865   8.281  69.406  1.00  0.00    -0.185 C  
HETATM   14  C   UNL     1      -7.046   5.738  65.905  1.00  0.00    -0.070 C  
HETATM   15  C   UNL     1      -8.913   7.380  68.329  1.00  0.00    -0.130 C  
HETATM   16  C   UNL     1      -6.401   5.258  64.813  1.00  0.00    -0.034 C  
HETATM   17  O   UNL     1      -6.203   5.239  62.424  1.00  0.00    -0.017 OA 
HETATM   18  C   UNL     1      -6.807   5.644  63.406  1.00  0.00    -0.040 C  
HETATM   19  C   UNL     1      -8.034   6.510  63.268  1.00  0.00    -0.081 C  
HETATM   20  O   UNL     1      -7.625   7.175  68.920  1.00  0.00    -0.096 OA 
HETATM   21  C   UNL     1      -8.755   7.776  66.734  1.00  0.00    -0.135 C  
HETATM   22  C   UNL     1      -8.115   9.259  66.617  1.00  0.00    -0.108 C  
HETATM   23  F   UNL     1     -10.037   7.907  66.165  1.00  0.00    -0.250 F  
HETATM   24  H   UNL     1      -7.092   6.671  68.317  1.00  0.00     0.000 HD 
HETATM   25  C   UNL     1      -7.846   9.649  65.154  1.00  0.00    -0.117 C  
ENDROOT
BRANCH   4  26
HETATM   26  C   UNL     1      -8.080   9.728  70.529  1.00  0.00    -0.006 C  
HETATM   27  O   UNL     1      -8.806   9.576  71.511  1.00  0.00    -0.165 OA 
BRANCH  26  28
HETATM   28  S   UNL     1      -6.320   9.578  70.747  1.00  0.00    -0.095 SA 
HETATM   29  F   UNL     1      -5.131   8.814  72.933  1.00  0.00    -0.039 F  
HETATM   30  C   UNL     1      -6.360   8.717  72.352  1.00  0.00    -0.035 C  
ENDBRANCH  26  28
ENDBRANCH   4  26
BRANCH   4  31
HETATM   31  O   UNL     1      -7.945  11.616  69.036  1.00  0.00    -0.064 OA 
BRANCH  31  32
HETATM   32  C   UNL     1      -6.694  12.037  69.358  1.00  0.00    -0.070 C  
HETATM   33  O   UNL     1      -6.335  12.391  70.466  1.00  0.00    -0.114 OA 
BRANCH  32  34
HETATM   34  C   UNL     1      -5.774  11.963  68.167  1.00  0.00    -0.048 C  
HETATM   35  C   UNL     1      -6.052  13.116  67.211  1.00  0.00     0.131 C  
ENDBRANCH  32  34
ENDBRANCH  31  32
ENDBRANCH   4  31
TORSDOF 5
ENDMDL
MODEL       95
REMARK 921   NORMALIZED FREE ENERGY PREDICTED BY IDOCK:   -0.37 KCAL/MOL
REMARK 922        TOTAL FREE ENERGY PREDICTED BY IDOCK:    0.59 KCAL/MOL
REMARK 923 INTER-LIGAND FREE ENERGY PREDICTED BY IDOCK:   -0.37 KCAL/MOL
REMARK 924 INTRA-LIGAND FREE ENERGY PREDICTED BY IDOCK:    0.97 KCAL/MOL
REMARK 927      BINDING AFFINITY PREDICTED BY RF-SCORE:    0.00 PKD
ROOT
HETATM    1  C   UNL     1     -10.197   9.732  70.602  1.00  0.00    -0.290 C  
HETATM    2  C   UNL     1     -11.442   9.965  71.256  1.00  0.00    -0.435 C  
HETATM    3  C   UNL     1     -11.303   8.896  70.248  1.00  0.00    -0.179 C  
HETATM    4  C   UNL     1      -9.328   8.350  69.905  1.00  0.00    -0.155 C  
HETATM    5  C   UNL     1     -12.845   8.142  70.389  1.00  0.00     0.883 C  
HETATM    6  C   UNL     1     -11.204  13.001  67.629  1.00  0.00    -0.315 C  
HETATM    7  F   UNL     1     -10.054  14.480  69.084  1.00  0.00    -0.222 F  
HETATM    8  C   UNL     1     -10.532   7.803  70.175  1.00  0.00    -0.231 C  
HETATM    9  C   UNL     1     -12.588  11.354  66.226  1.00  0.00     3.366 C  
HETATM   10  C   UNL     1     -10.023  13.227  68.550  1.00  0.00    -0.188 C  
HETATM   11  C   UNL     1     -10.627   6.768  71.372  1.00  0.00    -0.247 C  
HETATM   12  C   UNL     1     -11.172  11.654  66.864  1.00  0.00    -0.376 C  
HETATM   13  C   UNL     1     -11.004   7.611  68.391  1.00  0.00     0.100 C  
HETATM   14  C   UNL     1     -10.287  11.932  65.655  1.00  0.00    -0.285 C  
HETATM   15  C   UNL     1     -10.742   8.973  67.412  1.00  0.00    -0.161 C  
HETATM   16  C   UNL     1     -10.180  13.192  65.164  1.00  0.00    -0.299 C  
HETATM   17  O   UNL     1     -10.731  15.512  65.405  1.00  0.00    -0.354 OA 
HETATM   18  C   UNL     1     -10.857  14.373  65.828  1.00  0.00    -0.307 C  
HETATM   19  C   UNL     1     -11.746  14.069  67.008  1.00  0.00    -0.425 C  
HETATM   20  O   UNL     1      -9.461   8.845  66.786  1.00  0.00    -0.161 OA 
HETATM   21  C   UNL     1     -10.964  10.516  67.956  1.00  0.00    -0.290 C  
HETATM   22  C   UNL     1      -9.973  10.784  69.209  1.00  0.00    -0.182 C  
HETATM   23  F   UNL     1     -12.256  10.627  68.507  1.00  0.00    -0.252 F  
HETATM   24  H   UNL     1      -9.315   9.608  66.239  1.00  0.00     0.000 HD 
HETATM   25  C   UNL     1     -10.056  12.240  69.699  1.00  0.00     1.123 C  
ENDROOT
BRANCH   4  26
HETATM   26  C   UNL     1      -8.613   7.086  69.132  1.00  0.00    -0.133 C  
HETATM   27  O   UNL     1      -9.028   5.932  69.038  1.00  0.00    -0.121 OA 
BRANCH  26  28
HETATM   28  S   UNL     1      -6.986   7.453  68.510  1.00  0.00    -0.081 SA 
HETATM   29  F   UNL     1      -5.833   6.256  66.508  1.00  0.00    -0.020 F  
HETATM   30  C   UNL     1      -7.091   6.455  66.990  1.00  0.00    -0.073 C  
ENDBRANCH  26  28
ENDBRANCH   4  26
BRANCH   4  31
HETATM   31  O   UNL     1      -8.373   8.473  71.090  1.00  0.00    -0.121 OA 
BRANCH  31  32
HETATM   32  C   UNL     1      -7.296   9.285  71.254  1.00  0.00     0.033 C  
HETATM   33  O   UNL     1      -6.827  10.012  70.398  1.00  0.00    -0.129 OA 
BRANCH  32  34
HETATM   34  C   UNL     1      -6.775   9.214  72.667  1.00  0.00     0.341 C  
HETATM   35  C   UNL     1      -7.422   8.054  73.412  1.00  0.00    -0.187 C  
ENDBRANCH  32  34
ENDBRANCH  31  32
ENDBRANCH   4  31
TORSDOF 5
ENDMDL
MODEL       96
REMARK 921   NORMALIZED FREE ENERGY PREDICTED BY IDOCK:    0.41 KCAL/MOL
REMARK 922        TOTAL FREE ENERGY PREDICTED BY IDOCK:    1.59 KCAL/MOL
REMARK 923 INTER-LIGAND FREE ENERGY PREDICTED BY IDOCK:   -0.43 KCAL/MOL
REMARK 924 INTRA-LIGAND FREE ENERGY PREDICTED BY IDOCK:    2.02 KCAL/MOL
REMARK 927      BINDING AFFINITY PREDICTED BY RF-SCORE:    0.00 PKD
ROOT
HETATM    1  C   UNL     1      -8.647  15.256  69.681  1.00  0.00    -0.104 C  
HETATM    2  C   UNL     1      -8.200  14.870  70.979  1.00  0.00     2.698 C  
HETATM    3  C   UNL     1      -7.238  15.096  69.882  1.00  0.00    -0.090 C  
HETATM    4  C   UNL     1      -8.031  16.216  68.321  1.00  0.00    -0.152 C  
HETATM    5  C   UNL     1      -5.754  14.949  70.741  1.00  0.00    -0.120 C  
HETATM    6  C   UNL     1      -9.405  10.896  68.702  1.00  0.00    -0.188 C  
HETATM    7  F   UNL     1     -11.620  11.257  69.468  1.00  0.00    -0.270 F  
HETATM    8  C   UNL     1      -6.949  16.163  69.126  1.00  0.00    -0.201 C  
HETATM    9  C   UNL     1      -6.935  10.565  68.077  1.00  0.00    -0.074 C  
HETATM   10  C   UNL     1     -10.602  11.823  68.760  1.00  0.00    -0.206 C  
HETATM   11  C   UNL     1      -6.516  17.489  69.880  1.00  0.00     0.060 C  
HETATM   12  C   UNL     1      -8.253  11.395  67.794  1.00  0.00    -0.125 C  
HETATM   13  C   UNL     1      -5.977  15.069  67.985  1.00  0.00    -0.157 C  
HETATM   14  C   UNL     1      -8.660  10.953  66.393  1.00  0.00    -0.160 C  
HETATM   15  C   UNL     1      -6.811  13.723  67.372  1.00  0.00    -0.018 C  
HETATM   16  C   UNL     1      -9.467   9.875  66.228  1.00  0.00    -0.245 C  
HETATM   17  O   UNL     1     -10.811   8.176  67.253  1.00  0.00    -0.248 OA 
HETATM   18  C   UNL     1     -10.056   9.125  67.404  1.00  0.00    -0.230 C  
HETATM   19  C   UNL     1      -9.619   9.566  68.778  1.00  0.00    -0.159 C  
HETATM   20  O   UNL     1      -7.364  14.071  66.098  1.00  0.00     1.374 OA 
HETATM   21  C   UNL     1      -7.913  12.877  68.264  1.00  0.00    -0.151 C  
HETATM   22  C   UNL     1      -9.116  13.870  68.702  1.00  0.00    -0.085 C  
HETATM   23  F   UNL     1      -7.320  12.494  69.483  1.00  0.00     0.053 F  
HETATM   24  H   UNL     1      -7.831  13.318  65.756  1.00  0.00     0.000 HD 
HETATM   25  C   UNL     1     -10.229  13.119  69.451  1.00  0.00     0.521 C  
ENDROOT
BRANCH   4  26
HETATM   26  C   UNL     1      -7.376  16.980  67.021  1.00  0.00    -0.185 C  
HETATM   27  O   UNL     1      -7.578  16.744  65.830  1.00  0.00    -0.184 OA 
BRANCH  26  28
HETATM   28  S   UNL     1      -6.128  18.176  67.445  1.00  0.00    -0.157 SA 
HETATM   29  F   UNL     1      -5.334  20.132  65.922  1.00  0.00    -0.168 F  
HETATM   30  C   UNL     1      -6.415  19.312  66.051  1.00  0.00    -0.206 C  
ENDBRANCH  26  28
ENDBRANCH   4  26
BRANCH   4  31
HETATM   31  O   UNL     1      -9.088  17.252  68.697  1.00  0.00    -0.262 OA 
BRANCH  31  32
HETATM   32  C   UNL     1      -9.705  18.182  67.922  1.00  0.00    -0.299 C  
HETATM   33  O   UNL     1      -9.330  19.330  67.769  1.00  0.00    -0.299 OA 
BRANCH  32  34
HETATM   34  C   UNL     1     -10.903  17.594  67.220  1.00  0.00    -0.141 C  
HETATM   35  C   UNL     1     -10.566  16.218  66.662  1.00  0.00    -0.252 C  
ENDBRANCH  32  34
ENDBRANCH  31  32
ENDBRANCH   4  31
TORSDOF 5
ENDMDL
MODEL       97
REMARK 921   NORMALIZED FREE ENERGY PREDICTED BY IDOCK:    0.99 KCAL/MOL
REMARK 922        TOTAL FREE ENERGY PREDICTED BY IDOCK:    2.35 KCAL/MOL
REMARK 923 INTER-LIGAND FREE ENERGY PREDICTED BY IDOCK:   -1.80 KCAL/MOL
REMARK 924 INTRA-LIGAND FREE ENERGY PREDICTED BY IDOCK:    4.15 KCAL/MOL
REMARK 927      BINDING AFFINITY PREDICTED BY RF-SCORE:    0.00 PKD
ROOT
HETATM    1  C   UNL     1      -9.224  14.246  67.401  1.00  0.00    -0.200 C  
HETATM    2  C   UNL     1      -9.120  13.878  66.028  1.00  0.00     0.179 C  
HETATM    3  C   UNL     1     -10.382  14.412  66.577  1.00  0.00    -0.281 C  
HETATM    4  C   UNL     1     -10.126  15.429  68.371  1.00  0.00    -0.215 C  
HETATM    5  C   UNL     1     -11.306  14.557  65.131  1.00  0.00    -0.366 C  
HETATM    6  C   UNL     1     -10.096   9.921  68.442  1.00  0.00    -0.189 C  
HETATM    7  F   UNL     1      -7.761   9.682  68.782  1.00  0.00    -0.076 F  
HETATM    8  C   UNL     1     -10.706  15.573  67.160  1.00  0.00    -0.315 C  
HETATM    9  C   UNL     1     -12.578  10.240  67.862  1.00  0.00     4.343 C  
HETATM   10  C   UNL     1      -8.812  10.528  68.971  1.00  0.00    -0.169 C  
HETATM   11  C   UNL     1     -10.409  16.900  66.346  1.00  0.00    -0.302 C  
HETATM   12  C   UNL     1     -11.369  10.751  68.746  1.00  0.00    -0.352 C  
HETATM   13  C   UNL     1     -12.324  14.835  67.690  1.00  0.00     0.196 C  
HETATM   14  C   UNL     1     -11.759  10.335  70.160  1.00  0.00    -0.364 C  
HETATM   15  C   UNL     1     -12.218  13.382  68.560  1.00  0.00    -0.097 C  
HETATM   16  C   UNL     1     -11.408   9.112  70.630  1.00  0.00    -0.323 C  
HETATM   17  O   UNL     1     -10.215   7.066  70.261  1.00  0.00    -0.190 OA 
HETATM   18  C   UNL     1     -10.560   8.153  69.822  1.00  0.00    -0.231 C  
HETATM   19  C   UNL     1     -10.208   8.577  68.418  1.00  0.00    -0.236 C  
HETATM   20  O   UNL     1     -12.230  13.685  69.959  1.00  0.00    -0.330 OA 
HETATM   21  C   UNL     1     -11.081  12.230  68.233  1.00  0.00    -0.240 C  
HETATM   22  C   UNL     1      -9.606  12.869  68.430  1.00  0.00    -0.176 C  
HETATM   23  F   UNL     1     -11.137  11.905  66.863  1.00  0.00    -0.276 F  
HETATM   24  H   UNL     1     -12.170  12.872  70.446  1.00  0.00     0.000 HD 
HETATM   25  C   UNL     1      -8.500  11.817  68.240  1.00  0.00    -0.161 C  
ENDROOT
BRANCH   4  26
HETATM   26  C   UNL     1     -11.083  16.427  69.261  1.00  0.00    -0.297 C  
HETATM   27  O   UNL     1     -11.052  17.656  69.303  1.00  0.00     0.440 OA 
BRANCH  26  28
HETATM   28  S   UNL     1     -12.165  15.569  70.384  1.00  0.00    -0.404 SA 
HETATM   29  F   UNL     1     -11.959  15.578  72.979  1.00  0.00    -0.438 F  
HETATM   30  C   UNL     1     -11.556  16.335  71.920  1.00  0.00    -0.345 C  
ENDBRANCH  26  28
ENDBRANCH   4  26
BRANCH   4  31
HETATM   31  O   UNL     1      -8.793  16.149  68.558  1.00  0.00    -0.184 OA 
BRANCH  31  32
HETATM   32  C   UNL     1      -7.690  15.764  69.252  1.00  0.00    -0.224 C  
HETATM   33  O   UNL     1      -7.699  15.212  70.336  1.00  0.00     0.302 OA 
BRANCH  32  34
HETATM   34  C   UNL     1      -6.432  16.062  68.477  1.00  0.00    -0.115 C  
HETATM   35  C   UNL     1      -6.678  17.186  67.480  1.00  0.00    -0.160 C  
ENDBRANCH  32  34
ENDBRANCH  31  32
ENDBRANCH   4  31
TORSDOF 5
ENDMDL
MODEL       98
REMARK 921   NORMALIZED FREE ENERGY PREDICTED BY IDOCK:    1.12 KCAL/MOL
REMARK 922        TOTAL FREE ENERGY PREDICTED BY IDOCK:    2.51 KCAL/MOL
REMARK 923 INTER-LIGAND FREE ENERGY PREDICTED BY IDOCK:    0.94 KCAL/MOL
REMARK 924 INTRA-LIGAND FREE ENERGY PREDICTED BY IDOCK:    1.57 KCAL/MOL
REMARK 927      BINDING AFFINITY PREDICTED BY RF-SCORE:    0.00 PKD
ROOT
HETATM    1  C   UNL     1      -9.238  11.698  68.397  1.00  0.00    -0.182 C  
HETATM    2  C   UNL     1      -8.274  11.379  69.398  1.00  0.00     0.359 C  
HETATM    3  C   UNL     1      -7.986  12.393  68.364  1.00  0.00    -0.149 C  
HETATM    4  C   UNL     1      -9.698  13.116  67.434  1.00  0.00    -0.220 C  
HETATM    5  C   UNL     1      -6.476  12.991  68.934  1.00  0.00    -0.094 C  
HETATM    6  C   UNL     1      -7.793   8.165  65.952  1.00  0.00    -0.094 C  
HETATM    7  F   UNL     1      -9.481   6.905  67.040  1.00  0.00    -0.135 F  
HETATM    8  C   UNL     1      -8.570  13.552  68.034  1.00  0.00    -0.177 C  
HETATM    9  C   UNL     1      -5.878   9.572  64.976  1.00  0.00    -0.066 C  
HETATM   10  C   UNL     1      -9.209   8.119  66.486  1.00  0.00    -0.188 C  
HETATM   11  C   UNL     1      -8.709  14.644  69.175  1.00  0.00    -0.029 C  
HETATM   12  C   UNL     1      -7.444   9.459  65.173  1.00  0.00    -0.105 C  
HETATM   13  C   UNL     1      -7.578  13.584  66.466  1.00  0.00     1.332 C  
HETATM   14  C   UNL     1      -7.963   9.200  63.764  1.00  0.00    -0.146 C  
HETATM   15  C   UNL     1      -7.700  12.199  65.493  1.00  0.00     1.991 C  
HETATM   16  C   UNL     1      -8.067   7.929  63.300  1.00  0.00    -0.089 C  
HETATM   17  O   UNL     1      -7.884   5.584  63.759  1.00  0.00    -0.089 OA 
HETATM   18  C   UNL     1      -7.756   6.729  64.168  1.00  0.00    -0.113 C  
HETATM   19  C   UNL     1      -7.221   7.012  65.550  1.00  0.00    -0.070 C  
HETATM   20  O   UNL     1      -8.718  12.419  64.511  1.00  0.00     0.665 OA 
HETATM   21  C   UNL     1      -7.828  10.678  66.122  1.00  0.00    -0.152 C  
HETATM   22  C   UNL     1      -9.166  10.590  67.030  1.00  0.00    -0.167 C  
HETATM   23  F   UNL     1      -6.775  10.468  67.035  1.00  0.00    -0.072 F  
HETATM   24  H   UNL     1      -8.786  11.643  63.967  1.00  0.00     0.000 HD 
HETATM   25  C   UNL     1      -9.399   9.167  67.564  1.00  0.00    -0.157 C  
ENDROOT
BRANCH   4  26
HETATM   26  C   UNL     1     -10.004  14.396  66.449  1.00  0.00    -0.294 C  
HETATM   27  O   UNL     1      -9.864  15.592  66.705  1.00  0.00    -0.238 OA 
BRANCH  26  28
HETATM   28  S   UNL     1     -10.765  13.946  64.903  1.00  0.00    -0.427 SA 
HETATM   29  F   UNL     1     -12.184  15.532  63.404  1.00  0.00     0.231 F  
HETATM   30  C   UNL     1     -11.244  15.626  64.386  1.00  0.00    -0.236 C  
ENDBRANCH  26  28
ENDBRANCH   4  26
BRANCH   4  31
HETATM   31  O   UNL     1     -10.964  13.164  68.285  1.00  0.00    -0.234 OA 
BRANCH  31  32
HETATM   32  C   UNL     1     -11.952  12.241  68.423  1.00  0.00    -0.210 C  
HETATM   33  O   UNL     1     -12.311  11.463  67.559  1.00  0.00    -0.134 OA 
BRANCH  32  34
HETATM   34  C   UNL     1     -12.524  12.264  69.817  1.00  0.00     0.063 C  
HETATM   35  C   UNL     1     -11.611  13.047  70.751  1.00  0.00     0.564 C  
ENDBRANCH  32  34
ENDBRANCH  31  32
ENDBRANCH   4  31
TORSDOF 5
ENDMDL
MODEL       99
REMARK 921   NORMALIZED FREE ENERGY PREDICTED BY IDOCK:    1.36 KCAL/MOL
REMARK 922        TOTAL FREE ENERGY PREDICTED BY IDOCK:    2.82 KCAL/MOL
REMARK 923 INTER-LIGAND FREE ENERGY PREDICTED BY IDOCK:   -1.13 KCAL/MOL
REMARK 924 INTRA-LIGAND FREE ENERGY PREDICTED BY IDOCK:    3.95 KCAL/MOL
REMARK 927      BINDING AFFINITY PREDICTED BY RF-SCORE:    0.00 PKD
ROOT
HETATM    1  C   UNL     1      -7.263   6.462  66.420  1.00  0.00    -0.073 C  
HETATM    2  C   UNL     1      -5.940   5.958  66.255  1.00  0.00    -0.025 C  
HETATM    3  C   UNL     1      -7.068   5.048  66.536  1.00  0.00    -0.069 C  
HETATM    4  C   UNL     1      -8.921   5.896  66.128  1.00  0.00    -0.151 C  
HETATM    5  C   UNL     1      -6.281   3.526  66.373  1.00  0.00    -0.028 C  
HETATM    6  C   UNL     1      -6.328   7.349  70.766  1.00  0.00    -0.039 C  
HETATM    7  F   UNL     1      -5.697   9.516  70.038  1.00  0.00    -0.033 F  
HETATM    8  C   UNL     1      -8.207   4.777  65.886  1.00  0.00    -0.112 C  
HETATM    9  C   UNL     1      -6.853   4.920  71.416  1.00  0.00    -0.043 C  
HETATM   10  C   UNL     1      -6.612   8.524  69.853  1.00  0.00    -0.042 C  
HETATM   11  C   UNL     1      -8.084   4.282  64.385  1.00  0.00    -0.095 C  
HETATM   12  C   UNL     1      -7.404   6.234  70.727  1.00  0.00    -0.076 C  
HETATM   13  C   UNL     1      -8.830   3.883  67.389  1.00  0.00    -0.137 C  
HETATM   14  C   UNL     1      -8.481   6.718  71.691  1.00  0.00    -0.115 C  
HETATM   15  C   UNL     1      -8.802   4.772  68.834  1.00  0.00    -0.094 C  
HETATM   16  C   UNL     1      -8.156   7.553  72.710  1.00  0.00    -0.134 C  
HETATM   17  O   UNL     1      -6.472   8.876  73.786  1.00  0.00    -0.300 OA 
HETATM   18  C   UNL     1      -6.755   8.097  72.888  1.00  0.00    -0.090 C  
HETATM   19  C   UNL     1      -5.702   7.584  71.937  1.00  0.00    -0.036 C  
HETATM   20  O   UNL     1     -10.084   5.381  69.021  1.00  0.00    -0.179 OA 
HETATM   21  C   UNL     1      -7.600   5.844  69.197  1.00  0.00    -0.090 C  
HETATM   22  C   UNL     1      -7.565   7.004  68.068  1.00  0.00    -0.111 C  
HETATM   23  F   UNL     1      -6.354   5.198  69.067  1.00  0.00    -0.026 F  
HETATM   24  H   UNL     1     -10.068   5.878  69.830  1.00  0.00     0.000 HD 
HETATM   25  C   UNL     1      -6.532   8.093  68.402  1.00  0.00    -0.058 C  
ENDROOT
BRANCH   4  26
HETATM   26  C   UNL     1     -10.444   5.293  65.991  1.00  0.00    -0.136 C  
HETATM   27  O   UNL     1     -10.808   4.312  65.343  1.00  0.00    -0.196 OA 
BRANCH  26  28
HETATM   28  S   UNL     1     -11.688   6.302  66.768  1.00  0.00     1.932 SA 
HETATM   29  F   UNL     1     -11.237   8.498  68.091  1.00  0.00    -0.012 F  
HETATM   30  C   UNL     1     -10.620   7.727  67.152  1.00  0.00    -0.331 C  
ENDBRANCH  26  28
ENDBRANCH   4  26
BRANCH   4  31
HETATM   31  O   UNL     1      -8.966   6.914  64.991  1.00  0.00     0.224 OA 
BRANCH  31  32
HETATM   32  C   UNL     1      -7.998   7.756  64.542  1.00  0.00    -0.135 C  
HETATM   33  O   UNL     1      -7.175   7.488  63.687  1.00  0.00    -0.069 OA 
BRANCH  32  34
HETATM   34  C   UNL     1      -8.102   9.104  65.209  1.00  0.00    -0.124 C  
HETATM   35  C   UNL     1      -7.604  10.196  64.272  1.00  0.00    -0.124 C  
ENDBRANCH  32  34
ENDBRANCH  31  32
ENDBRANCH   4  31
TORSDOF 5
ENDMDL
MODEL      100
REMARK 921   NORMALIZED FREE ENERGY PREDICTED BY IDOCK:    1.64 KCAL/MOL
REMARK 922        TOTAL FREE ENERGY PREDICTED BY IDOCK:    3.19 KCAL/MOL
REMARK 923 INTER-LIGAND FREE ENERGY PREDICTED BY IDOCK:    0.72 KCAL/MOL
REMARK 924 INTRA-LIGAND FREE ENERGY PREDICTED BY IDOCK:    2.47 KCAL/MOL
REMARK 927      BINDING AFFINITY PREDICTED BY RF-SCORE:    0.00 PKD
ROOT
HETATM    1  C   UNL     1      -8.041   5.137  68.481  1.00  0.00    -0.086 C  
HETATM    2  C   UNL     1      -8.833   4.243  69.260  1.00  0.00    -0.137 C  
HETATM    3  C   UNL     1      -9.456   5.348  68.505  1.00  0.00    -0.156 C  
HETATM    4  C   UNL     1      -8.234   6.101  67.003  1.00  0.00    -0.106 C  
HETATM    5  C   UNL     1     -11.121   4.986  68.755  1.00  0.00     1.302 C  
HETATM    6  C   UNL     1      -7.214   7.576  72.211  1.00  0.00    -0.069 C  
HETATM    7  F   UNL     1      -5.272   6.241  72.480  1.00  0.00    -0.027 F  
HETATM    8  C   UNL     1      -9.493   5.658  67.203  1.00  0.00    -0.120 C  
HETATM    9  C   UNL     1      -9.437   8.831  71.931  1.00  0.00    -0.362 C  
HETATM   10  C   UNL     1      -6.042   6.877  71.553  1.00  0.00    -0.037 C  
HETATM   11  C   UNL     1     -10.061   4.558  66.212  1.00  0.00    -0.280 C  
HETATM   12  C   UNL     1      -8.062   8.447  71.250  1.00  0.00    -0.152 C  
HETATM   13  C   UNL     1     -10.165   7.332  67.639  1.00  0.00    -0.257 C  
HETATM   14  C   UNL     1      -7.312   9.772  71.185  1.00  0.00     0.376 C  
HETATM   15  C   UNL     1      -9.249   8.221  68.757  1.00  0.00    -0.143 C  
HETATM   16  C   UNL     1      -6.531  10.164  72.223  1.00  0.00     1.437 C  
HETATM   17  O   UNL     1      -5.575   9.625  74.354  1.00  0.00    -0.285 OA 
HETATM   18  C   UNL     1      -6.307   9.285  73.436  1.00  0.00     0.400 C  
HETATM   19  C   UNL     1      -7.078   7.991  73.487  1.00  0.00    -0.152 C  
HETATM   20  O   UNL     1      -8.363   9.085  68.037  1.00  0.00    -0.116 OA 
HETATM   21  C   UNL     1      -8.459   7.515  70.022  1.00  0.00    -0.137 C  
HETATM   22  C   UNL     1      -7.380   6.452  69.448  1.00  0.00    -0.092 C  
HETATM   23  F   UNL     1      -9.370   6.724  70.750  1.00  0.00    -0.158 F  
HETATM   24  H   UNL     1      -7.850   9.582  68.663  1.00  0.00     0.000 HD 
HETATM   25  C   UNL     1      -6.536   5.832  70.574  1.00  0.00    -0.044 C  
ENDROOT
BRANCH   4  26
HETATM   26  C   UNL     1      -8.488   7.099  65.722  1.00  0.00    -0.146 C  
HETATM   27  O   UNL     1      -9.502   7.192  65.031  1.00  0.00     0.901 OA 
BRANCH  26  28
HETATM   28  S   UNL     1      -7.044   8.019  65.232  1.00  0.00    -0.064 SA 
HETATM   29  F   UNL     1      -6.782   9.337  63.002  1.00  0.00    -0.094 F  
HETATM   30  C   UNL     1      -7.783   8.854  63.791  1.00  0.00    -0.129 C  
ENDBRANCH  26  28
ENDBRANCH   4  26
BRANCH   4  31
HETATM   31  O   UNL     1      -7.277   5.110  66.345  1.00  0.00    -0.074 OA 
BRANCH  31  32
HETATM   32  C   UNL     1      -7.490   4.258  65.307  1.00  0.00    -0.073 C  
HETATM   33  O   UNL     1      -8.100   3.207  65.375  1.00  0.00    -0.085 OA 
BRANCH  32  34
HETATM   34  C   UNL     1      -6.914   4.809  64.028  1.00  0.00    -0.049 C  
HETATM   35  C   UNL     1      -7.826   4.482  62.853  1.00  0.00    -0.068 C  
ENDBRANCH  32  34
ENDBRANCH  31  32
ENDBRANCH   4  31
TORSDOF 5
ENDMDL
MODEL      101
REMARK 921   NORMALIZED FREE ENERGY PREDICTED BY IDOCK:    2.52 KCAL/MOL
REMARK 922        TOTAL FREE ENERGY PREDICTED BY IDOCK:    4.33 KCAL/MOL
REMARK 923 INTER-LIGAND FREE ENERGY PREDICTED BY IDOCK:    0.97 KCAL/MOL
REMARK 924 INTRA-LIGAND FREE ENERGY PREDICTED BY IDOCK:    3.36 KCAL/MOL
REMARK 927      BINDING AFFINITY PREDICTED BY RF-SCORE:    0.00 PKD
ROOT
HETATM    1  C   UNL     1      -7.143   6.554  67.920  1.00  0.00    -0.085 C  
HETATM    2  C   UNL     1      -6.160   5.522  67.935  1.00  0.00    -0.026 C  
HETATM    3  C   UNL     1      -7.369   5.405  67.097  1.00  0.00    -0.083 C  
HETATM    4  C   UNL     1      -8.311   7.227  66.764  1.00  0.00    -0.119 C  
HETATM    5  C   UNL     1      -7.000   3.965  66.229  1.00  0.00    -0.062 C  
HETATM    6  C   UNL     1      -9.015   4.755  71.635  1.00  0.00    -0.160 C  
HETATM    7  F   UNL     1      -7.628   6.228  72.873  1.00  0.00    -0.093 F  
HETATM    8  C   UNL     1      -7.862   6.144  66.095  1.00  0.00    -0.105 C  
HETATM    9  C   UNL     1     -10.330   3.073  70.207  1.00  0.00     1.357 C  
HETATM   10  C   UNL     1      -8.400   6.134  71.754  1.00  0.00    -0.125 C  
HETATM   11  C   UNL     1      -6.923   6.381  64.840  1.00  0.00    -0.051 C  
HETATM   12  C   UNL     1     -10.026   4.603  70.471  1.00  0.00    -0.295 C  
HETATM   13  C   UNL     1      -9.466   5.221  66.226  1.00  0.00    -0.166 C  
HETATM   14  C   UNL     1     -11.336   5.134  71.040  1.00  0.00     0.679 C  
HETATM   15  C   UNL     1     -10.174   5.198  67.769  1.00  0.00    -0.132 C  
HETATM   16  C   UNL     1     -11.565   5.091  72.376  1.00  0.00     0.080 C  
HETATM   17  O   UNL     1     -10.715   4.592  74.561  1.00  0.00    -0.307 OA 
HETATM   18  C   UNL     1     -10.520   4.597  73.355  1.00  0.00    -0.207 C  
HETATM   19  C   UNL     1      -9.242   4.054  72.765  1.00  0.00    -0.135 C  
HETATM   20  O   UNL     1     -11.119   6.270  67.854  1.00  0.00    -0.338 OA 
HETATM   21  C   UNL     1      -9.284   5.107  69.156  1.00  0.00    -0.110 C  
HETATM   22  C   UNL     1      -8.298   6.389  69.239  1.00  0.00    -0.122 C  
HETATM   23  F   UNL     1      -8.411   4.004  69.069  1.00  0.00    -0.071 F  
HETATM   24  H   UNL     1     -11.515   6.257  68.717  1.00  0.00     0.000 HD 
HETATM   25  C   UNL     1      -7.512   6.418  70.560  1.00  0.00    -0.091 C  
ENDROOT
BRANCH   4  26
HETATM   26  C   UNL     1      -9.485   7.730  65.729  1.00  0.00     0.224 C  
HETATM   27  O   UNL     1      -9.779   7.247  64.635  1.00  0.00     2.127 OA 
BRANCH  26  28
HETATM   28  S   UNL     1     -10.287   9.238  66.231  1.00  0.00     0.006 SA 
HETATM   29  F   UNL     1     -11.601   9.578  68.452  1.00  0.00     0.002 F  
HETATM   30  C   UNL     1     -10.650   8.744  67.946  1.00  0.00    -0.174 C  
ENDBRANCH  26  28
ENDBRANCH   4  26
BRANCH   4  31
HETATM   31  O   UNL     1      -7.409   8.458  66.716  1.00  0.00    -0.081 OA 
BRANCH  31  32
HETATM   32  C   UNL     1      -7.041   9.222  65.654  1.00  0.00    -0.082 C  
HETATM   33  O   UNL     1      -6.600   8.797  64.602  1.00  0.00    -0.066 OA 
BRANCH  32  34
HETATM   34  C   UNL     1      -7.297  10.683  65.922  1.00  0.00    -0.128 C  
HETATM   35  C   UNL     1      -7.274  10.958  67.419  1.00  0.00    -0.094 C  
ENDBRANCH  32  34
ENDBRANCH  31  32
ENDBRANCH   4  31
TORSDOF 5
ENDMDL
MODEL      102
REMARK 921   NORMALIZED FREE ENERGY PREDICTED BY IDOCK:    3.20 KCAL/MOL
REMARK 922        TOTAL FREE ENERGY PREDICTED BY IDOCK:    5.20 KCAL/MOL
REMARK 923 INTER-LIGAND FREE ENERGY PREDICTED BY IDOCK:    1.43 KCAL/MOL
REMARK 924 INTRA-LIGAND FREE ENERGY PREDICTED BY IDOCK:    3.77 KCAL/MOL
REMARK 927      BINDING AFFINITY PREDICTED BY RF-SCORE:    0.00 PKD
ROOT
HETATM    1  C   UNL     1      -9.203  16.163  68.389  1.00  0.00    -0.203 C  
HETATM    2  C   UNL     1     -10.404  16.278  69.149  1.00  0.00    -0.272 C  
HETATM    3  C   UNL     1      -9.356  15.310  69.528  1.00  0.00    -0.198 C  
HETATM    4  C   UNL     1      -7.505  15.741  68.687  1.00  0.00    -0.151 C  
HETATM    5  C   UNL     1      -9.994  14.738  71.021  1.00  0.00     1.660 C  
HETATM    6  C   UNL     1     -11.346  13.382  65.521  1.00  0.00    -0.310 C  
HETATM    7  F   UNL     1     -11.853  15.318  64.248  1.00  0.00    -0.413 F  
HETATM    8  C   UNL     1      -8.070  15.445  69.877  1.00  0.00     0.127 C  
HETATM    9  C   UNL     1     -10.906  11.381  67.070  1.00  0.00    -0.331 C  
HETATM   10  C   UNL     1     -10.876  14.719  64.986  1.00  0.00    -0.425 C  
HETATM   11  C   UNL     1      -7.750  16.389  71.109  1.00  0.00     5.043 C  
HETATM   12  C   UNL     1     -10.250  12.564  66.250  1.00  0.00    -0.265 C  
HETATM   13  C   UNL     1      -7.845  13.612  69.689  1.00  0.00     0.840 C  
HETATM   14  C   UNL     1      -9.506  11.850  65.127  1.00  0.00    -0.059 C  
HETATM   15  C   UNL     1      -8.315  12.966  68.191  1.00  0.00    -0.168 C  
HETATM   16  C   UNL     1     -10.139  11.574  63.959  1.00  0.00    -0.366 C  
HETATM   17  O   UNL     1     -12.116  11.804  62.624  1.00  0.00     0.405 OA 
HETATM   18  C   UNL     1     -11.559  12.023  63.690  1.00  0.00    -0.486 C  
HETATM   19  C   UNL     1     -12.282  12.706  64.824  1.00  0.00    -0.528 C  
HETATM   20  O   UNL     1      -7.165  12.901  67.341  1.00  0.00    -0.171 OA 
HETATM   21  C   UNL     1      -9.620  13.526  67.350  1.00  0.00    -0.227 C  
HETATM   22  C   UNL     1      -9.396  15.093  67.004  1.00  0.00    -0.244 C  
HETATM   23  F   UNL     1     -10.749  13.516  68.193  1.00  0.00    -0.229 F  
HETATM   24  H   UNL     1      -7.428  12.540  66.503  1.00  0.00     0.000 HD 
HETATM   25  C   UNL     1     -10.531  15.651  66.130  1.00  0.00    -0.327 C  
ENDROOT
BRANCH   4  26
HETATM   26  C   UNL     1      -5.977  15.200  68.960  1.00  0.00    -0.097 C  
HETATM   27  O   UNL     1      -5.419  14.233  68.444  1.00  0.00    -0.093 OA 
BRANCH  26  28
HETATM   28  S   UNL     1      -5.135  16.061  70.272  1.00  0.00    -0.163 SA 
HETATM   29  F   UNL     1      -5.185  15.395  72.787  1.00  0.00    -0.166 F  
HETATM   30  C   UNL     1      -5.405  14.816  71.574  1.00  0.00    -0.101 C  
ENDBRANCH  26  28
ENDBRANCH   4  26
BRANCH   4  31
HETATM   31  O   UNL     1      -7.195  17.216  68.448  1.00  0.00    -0.191 OA 
BRANCH  31  32
HETATM   32  C   UNL     1      -7.725  18.077  67.540  1.00  0.00    -0.213 C  
HETATM   33  O   UNL     1      -8.400  19.054  67.809  1.00  0.00    -0.279 OA 
BRANCH  32  34
HETATM   34  C   UNL     1      -7.326  17.698  66.137  1.00  0.00    -0.344 C  
HETATM   35  C   UNL     1      -7.386  18.914  65.223  1.00  0.00     0.376 C  
ENDBRANCH  32  34
ENDBRANCH  31  32
ENDBRANCH   4  31
TORSDOF 5
ENDMDL
MODEL      103
REMARK 921   NORMALIZED FREE ENERGY PREDICTED BY IDOCK:    5.07 KCAL/MOL
REMARK 922        TOTAL FREE ENERGY PREDICTED BY IDOCK:    7.62 KCAL/MOL
REMARK 923 INTER-LIGAND FREE ENERGY PREDICTED BY IDOCK:    6.34 KCAL/MOL
REMARK 924 INTRA-LIGAND FREE ENERGY PREDICTED BY IDOCK:    1.28 KCAL/MOL
REMARK 927      BINDING AFFINITY PREDICTED BY RF-SCORE:    0.00 PKD
ROOT
HETATM    1  C   UNL     1      -9.030   4.634  69.676  1.00  0.00    -0.140 C  
HETATM    2  C   UNL     1      -9.979   4.208  70.651  1.00  0.00    -0.185 C  
HETATM    3  C   UNL     1     -10.342   5.204  69.623  1.00  0.00    -0.316 C  
HETATM    4  C   UNL     1      -9.052   5.202  67.994  1.00  0.00    -0.112 C  
HETATM    5  C   UNL     1     -12.028   5.364  69.935  1.00  0.00     3.424 C  
HETATM    6  C   UNL     1      -7.409   7.649  72.647  1.00  0.00    -0.091 C  
HETATM    7  F   UNL     1      -5.858   5.972  73.285  1.00  0.00    -0.039 F  
HETATM    8  C   UNL     1     -10.370   5.167  68.285  1.00  0.00    -0.140 C  
HETATM    9  C   UNL     1      -9.251   9.323  72.015  1.00  0.00     0.543 C  
HETATM   10  C   UNL     1      -6.490   6.526  72.212  1.00  0.00    -0.058 C  
HETATM   11  C   UNL     1     -11.252   4.036  67.609  1.00  0.00     4.875 C  
HETATM   12  C   UNL     1      -8.059   8.433  71.478  1.00  0.00    -0.172 C  
HETATM   13  C   UNL     1     -10.570   7.012  68.256  1.00  0.00    -0.238 C  
HETATM   14  C   UNL     1      -7.001   9.456  71.079  1.00  0.00    -0.066 C  
HETATM   15  C   UNL     1      -9.398   7.890  69.115  1.00  0.00    -0.154 C  
HETATM   16  C   UNL     1      -6.091   9.885  71.989  1.00  0.00     0.423 C  
HETATM   17  O   UNL     1      -5.189   9.683  74.200  1.00  0.00    -0.149 OA 
HETATM   18  C   UNL     1      -6.031   9.321  73.393  1.00  0.00     0.175 C  
HETATM   19  C   UNL     1      -7.103   8.329  73.771  1.00  0.00    -0.170 C  
HETATM   20  O   UNL     1      -8.362   8.279  68.206  1.00  0.00    -0.129 OA 
HETATM   21  C   UNL     1      -8.745   7.353  70.533  1.00  0.00    -0.147 C  
HETATM   22  C   UNL     1      -8.005   5.935  70.273  1.00  0.00    -0.106 C  
HETATM   23  F   UNL     1      -9.787   7.040  71.429  1.00  0.00    -0.176 F  
HETATM   24  H   UNL     1      -7.707   8.770  68.687  1.00  0.00     0.000 HD 
HETATM   25  C   UNL     1      -7.287   5.429  71.535  1.00  0.00    -0.085 C  
ENDROOT
BRANCH   4  26
HETATM   26  C   UNL     1      -9.113   5.867  66.492  1.00  0.00    -0.143 C  
HETATM   27  O   UNL     1      -8.470   6.827  66.069  1.00  0.00    -0.131 OA 
BRANCH  26  28
HETATM   28  S   UNL     1     -10.381   5.174  65.452  1.00  0.00     0.350 SA 
HETATM   29  F   UNL     1     -10.030   4.310  63.022  1.00  0.00    -0.156 F  
HETATM   30  C   UNL     1      -9.284   4.557  64.135  1.00  0.00    -0.109 C  
ENDBRANCH  26  28
ENDBRANCH   4  26
BRANCH   4  31
HETATM   31  O   UNL     1      -8.416   3.861  67.633  1.00  0.00    -0.093 OA 
BRANCH  31  32
HETATM   32  C   UNL     1      -7.106   3.538  67.475  1.00  0.00    -0.058 C  
HETATM   33  O   UNL     1      -6.169   4.145  67.961  1.00  0.00    -0.033 OA 
BRANCH  32  34
HETATM   34  C   UNL     1      -6.953   2.284  66.653  1.00  0.00    -0.044 C  
HETATM   35  C   UNL     1      -5.479   1.947  66.472  1.00  0.00    -0.013 C  
ENDBRANCH  32  34
ENDBRANCH  31  32
ENDBRANCH   4  31
TORSDOF 5
ENDMDL
MODEL      104
REMARK 921   NORMALIZED FREE ENERGY PREDICTED BY IDOCK:    5.12 KCAL/MOL
REMARK 922        TOTAL FREE ENERGY PREDICTED BY IDOCK:    7.69 KCAL/MOL
REMARK 923 INTER-LIGAND FREE ENERGY PREDICTED BY IDOCK:    0.92 KCAL/MOL
REMARK 924 INTRA-LIGAND FREE ENERGY PREDICTED BY IDOCK:    6.77 KCAL/MOL
REMARK 927      BINDING AFFINITY PREDICTED BY RF-SCORE:    0.00 PKD
ROOT
HETATM    1  C   UNL     1     -10.036   8.509  68.895  1.00  0.00    -0.197 C  
HETATM    2  C   UNL     1     -11.225   8.988  68.272  1.00  0.00     0.336 C  
HETATM    3  C   UNL     1     -10.926   7.544  68.324  1.00  0.00     0.047 C  
HETATM    4  C   UNL     1      -9.516   7.055  69.771  1.00  0.00    -0.145 C  
HETATM    5  C   UNL     1     -12.389   6.905  67.680  1.00  0.00     4.727 C  
HETATM    6  C   UNL     1      -7.770   9.281  65.046  1.00  0.00    -0.109 C  
HETATM    7  F   UNL     1      -7.263  11.418  65.941  1.00  0.00    -0.029 F  
HETATM    8  C   UNL     1     -10.739   6.686  69.335  1.00  0.00    -0.303 C  
HETATM    9  C   UNL     1      -8.536   7.021  64.094  1.00  0.00     0.434 C  
HETATM   10  C   UNL     1      -7.391  10.100  66.262  1.00  0.00    -0.112 C  
HETATM   11  C   UNL     1     -11.904   6.561  70.404  1.00  0.00    -0.378 C  
HETATM   12  C   UNL     1      -7.794   7.750  65.286  1.00  0.00    -0.117 C  
HETATM   13  C   UNL     1     -10.088   5.435  68.129  1.00  0.00    -0.220 C  
HETATM   14  C   UNL     1      -6.341   7.322  65.118  1.00  0.00    -0.038 C  
HETATM   15  C   UNL     1      -8.812   5.963  67.142  1.00  0.00    -0.107 C  
HETATM   16  C   UNL     1      -5.504   8.047  64.334  1.00  0.00    -0.040 C  
HETATM   17  O   UNL     1      -5.176  10.005  62.991  1.00  0.00    -0.086 OA 
HETATM   18  C   UNL     1      -5.941   9.335  63.668  1.00  0.00    -0.088 C  
HETATM   19  C   UNL     1      -7.389   9.724  63.830  1.00  0.00    -0.129 C  
HETATM   20  O   UNL     1      -7.574   5.588  67.756  1.00  0.00    -0.086 OA 
HETATM   21  C   UNL     1      -8.719   7.504  66.558  1.00  0.00    -0.140 C  
HETATM   22  C   UNL     1      -8.656   8.541  67.801  1.00  0.00    -0.134 C  
HETATM   23  F   UNL     1      -9.926   7.822  65.904  1.00  0.00    -0.110 F  
HETATM   24  H   UNL     1      -6.861   5.884  67.203  1.00  0.00     0.000 HD 
HETATM   25  C   UNL     1      -8.464   9.990  67.325  1.00  0.00    -0.122 C  
ENDROOT
BRANCH   4  26
HETATM   26  C   UNL     1      -9.019   5.640  70.444  1.00  0.00    -0.140 C  
HETATM   27  O   UNL     1      -9.163   4.504  69.995  1.00  0.00    -0.106 OA 
BRANCH  26  28
HETATM   28  S   UNL     1      -8.334   5.824  72.077  1.00  0.00    -0.122 SA 
HETATM   29  F   UNL     1      -5.982   6.795  72.625  1.00  0.00    -0.040 F  
HETATM   30  C   UNL     1      -6.889   6.828  71.608  1.00  0.00    -0.066 C  
ENDBRANCH  26  28
ENDBRANCH   4  26
BRANCH   4  31
HETATM   31  O   UNL     1      -9.494   7.932  71.021  1.00  0.00    -0.154 OA 
BRANCH  31  32
HETATM   32  C   UNL     1     -10.494   8.222  71.894  1.00  0.00    -0.274 C  
HETATM   33  O   UNL     1     -10.415   8.138  73.106  1.00  0.00    -0.285 OA 
BRANCH  32  34
HETATM   34  C   UNL     1     -11.719   8.719  71.170  1.00  0.00    -0.344 C  
HETATM   35  C   UNL     1     -11.949  10.194  71.469  1.00  0.00    -0.404 C  
ENDBRANCH  32  34
ENDBRANCH  31  32
ENDBRANCH   4  31
TORSDOF 5
ENDMDL
MODEL      105
REMARK 921   NORMALIZED FREE ENERGY PREDICTED BY IDOCK:    6.88 KCAL/MOL
REMARK 922        TOTAL FREE ENERGY PREDICTED BY IDOCK:    9.95 KCAL/MOL
REMARK 923 INTER-LIGAND FREE ENERGY PREDICTED BY IDOCK:    2.41 KCAL/MOL
REMARK 924 INTRA-LIGAND FREE ENERGY PREDICTED BY IDOCK:    7.54 KCAL/MOL
REMARK 927      BINDING AFFINITY PREDICTED BY RF-SCORE:    0.00 PKD
ROOT
HETATM    1  C   UNL     1     -11.180  12.692  66.464  1.00  0.00    -0.342 C  
HETATM    2  C   UNL     1     -12.438  12.023  66.411  1.00  0.00     1.207 C  
HETATM    3  C   UNL     1     -11.851  12.432  67.702  1.00  0.00    -0.363 C  
HETATM    4  C   UNL     1     -10.382  13.889  67.504  1.00  0.00    -0.245 C  
HETATM    5  C   UNL     1     -13.149  12.043  68.764  1.00  0.00     2.938 C  
HETATM    6  C   UNL     1      -9.092   8.672  66.295  1.00  0.00    -0.233 C  
HETATM    7  F   UNL     1      -9.038   8.960  63.941  1.00  0.00    -0.132 F  
HETATM    8  C   UNL     1     -11.501  13.620  68.210  1.00  0.00    -0.348 C  
HETATM    9  C   UNL     1      -9.375   8.373  68.830  1.00  0.00    -0.147 C  
HETATM   10  C   UNL     1      -8.896   9.617  65.127  1.00  0.00    -0.180 C  
HETATM   11  C   UNL     1     -12.623  14.738  68.279  1.00  0.00     0.552 C  
HETATM   12  C   UNL     1      -8.805   9.301  67.682  1.00  0.00    -0.122 C  
HETATM   13  C   UNL     1     -10.599  12.749  69.578  1.00  0.00     0.392 C  
HETATM   14  C   UNL     1      -7.295   9.180  67.843  1.00  0.00    -0.084 C  
HETATM   15  C   UNL     1      -9.452  11.600  69.085  1.00  0.00     0.273 C  
HETATM   16  C   UNL     1      -6.617   8.197  67.198  1.00  0.00    -0.058 C  
HETATM   17  O   UNL     1      -6.686   6.381  65.636  1.00  0.00    -0.046 OA 
HETATM   18  C   UNL     1      -7.303   7.243  66.243  1.00  0.00    -0.079 C  
HETATM   19  C   UNL     1      -8.801   7.367  66.120  1.00  0.00    -0.185 C  
HETATM   20  O   UNL     1      -8.167  12.231  69.033  1.00  0.00    -0.347 OA 
HETATM   21  C   UNL     1      -9.670  10.634  67.764  1.00  0.00    -0.161 C  
HETATM   22  C   UNL     1      -9.828  11.564  66.447  1.00  0.00    -0.233 C  
HETATM   23  F   UNL     1     -10.911   9.978  67.876  1.00  0.00    -0.277 F  
HETATM   24  H   UNL     1      -7.525  11.588  68.757  1.00  0.00     0.000 HD 
HETATM   25  C   UNL     1      -9.932  10.721  65.165  1.00  0.00    -0.351 C  
ENDROOT
BRANCH   4  26
HETATM   26  C   UNL     1      -9.611  14.880  68.565  1.00  0.00    -0.215 C  
HETATM   27  O   UNL     1      -8.581  15.526  68.377  1.00  0.00    -0.160 OA 
BRANCH  26  28
HETATM   28  S   UNL     1     -10.308  14.858  70.203  1.00  0.00     0.177 SA 
HETATM   29  F   UNL     1     -10.797  16.959  71.661  1.00  0.00     0.377 F  
HETATM   30  C   UNL     1     -10.611  16.648  70.347  1.00  0.00     0.256 C  
ENDBRANCH  26  28
ENDBRANCH   4  26
BRANCH   4  31
HETATM   31  O   UNL     1     -10.548  14.867  66.344  1.00  0.00    -0.293 OA 
BRANCH  31  32
HETATM   32  C   UNL     1     -10.636  14.622  65.010  1.00  0.00    -0.439 C  
HETATM   33  O   UNL     1      -9.863  15.037  64.166  1.00  0.00     0.994 OA 
BRANCH  32  34
HETATM   34  C   UNL     1     -11.801  13.716  64.702  1.00  0.00    -0.427 C  
HETATM   35  C   UNL     1     -12.738  14.380  63.702  1.00  0.00     0.707 C  
ENDBRANCH  32  34
ENDBRANCH  31  32
ENDBRANCH   4  31
TORSDOF 5
ENDMDL
MODEL      106
REMARK 921   NORMALIZED FREE ENERGY PREDICTED BY IDOCK:    6.90 KCAL/MOL
REMARK 922        TOTAL FREE ENERGY PREDICTED BY IDOCK:    9.99 KCAL/MOL
REMARK 923 INTER-LIGAND FREE ENERGY PREDICTED BY IDOCK:    5.49 KCAL/MOL
REMARK 924 INTRA-LIGAND FREE ENERGY PREDICTED BY IDOCK:    4.50 KCAL/MOL
REMARK 927      BINDING AFFINITY PREDICTED BY RF-SCORE:    0.00 PKD
ROOT
HETATM    1  C   UNL     1      -9.876   9.816  66.703  1.00  0.00    -0.275 C  
HETATM    2  C   UNL     1     -11.119   9.175  66.425  1.00  0.00     1.065 C  
HETATM    3  C   UNL     1     -10.632   9.316  67.812  1.00  0.00    -0.307 C  
HETATM    4  C   UNL     1      -9.170  10.778  68.018  1.00  0.00    -0.150 C  
HETATM    5  C   UNL     1     -11.999   8.727  68.676  1.00  0.00     2.348 C  
HETATM    6  C   UNL     1      -7.735   5.905  65.889  1.00  0.00    -0.095 C  
HETATM    7  F   UNL     1      -7.513   6.658  63.651  1.00  0.00    -0.057 F  
HETATM    8  C   UNL     1     -10.334  10.377  68.571  1.00  0.00    -0.197 C  
HETATM    9  C   UNL     1      -8.199   5.105  68.286  1.00  0.00    -0.093 C  
HETATM   10  C   UNL     1      -7.466   7.063  64.951  1.00  0.00    -0.095 C  
HETATM   11  C   UNL     1     -11.471  11.462  68.780  1.00  0.00    -0.354 C  
HETATM   12  C   UNL     1      -7.557   6.242  67.391  1.00  0.00    -0.093 C  
HETATM   13  C   UNL     1      -9.525   9.247  69.801  1.00  0.00    -0.203 C  
HETATM   14  C   UNL     1      -6.061   6.087  67.636  1.00  0.00    -0.018 C  
HETATM   15  C   UNL     1      -8.331   8.217  69.174  1.00  0.00    -0.131 C  
HETATM   16  C   UNL     1      -5.327   5.251  66.859  1.00  0.00    -0.008 C  
HETATM   17  O   UNL     1      -5.261   3.783  64.965  1.00  0.00    -0.008 OA 
HETATM   18  C   UNL     1      -5.931   4.509  65.685  1.00  0.00    -0.023 C  
HETATM   19  C   UNL     1      -7.417   4.660  65.479  1.00  0.00    -0.081 C  
HETATM   20  O   UNL     1      -7.053   8.841  69.344  1.00  0.00    -0.055 OA 
HETATM   21  C   UNL     1      -8.441   7.535  67.674  1.00  0.00    -0.117 C  
HETATM   22  C   UNL     1      -8.514   8.710  66.562  1.00  0.00    -0.118 C  
HETATM   23  F   UNL     1      -9.680   6.873  67.561  1.00  0.00    -0.128 F  
HETATM   24  H   UNL     1      -6.386   8.264  68.993  1.00  0.00     0.000 HD 
HETATM   25  C   UNL     1      -8.515   8.141  65.133  1.00  0.00    -0.134 C  
ENDROOT
BRANCH   4  26
HETATM   26  C   UNL     1      -8.490  11.534  69.309  1.00  0.00     0.377 C  
HETATM   27  O   UNL     1      -8.625  12.710  69.648  1.00  0.00     1.362 OA 
BRANCH  26  28
HETATM   28  S   UNL     1      -7.317  10.529  70.194  1.00  0.00     0.232 SA 
HETATM   29  F   UNL     1      -5.227  11.417  71.466  1.00  0.00    -0.107 F  
HETATM   30  C   UNL     1      -6.424  11.887  71.016  1.00  0.00     1.634 C  
ENDBRANCH  26  28
ENDBRANCH   4  26
BRANCH   4  31
HETATM   31  O   UNL     1      -9.262  11.969  67.067  1.00  0.00    -0.183 OA 
BRANCH  31  32
HETATM   32  C   UNL     1      -8.288  12.571  66.335  1.00  0.00     0.273 C  
HETATM   33  O   UNL     1      -7.167  12.131  66.160  1.00  0.00     0.570 OA 
BRANCH  32  34
HETATM   34  C   UNL     1      -8.791  13.847  65.710  1.00  0.00     0.928 C  
HETATM   35  C   UNL     1      -9.544  14.679  66.740  1.00  0.00    -0.266 C  
ENDBRANCH  32  34
ENDBRANCH  31  32
ENDBRANCH   4  31
TORSDOF 5
ENDMDL
MODEL      107
REMARK 921   NORMALIZED FREE ENERGY PREDICTED BY IDOCK:    9.32 KCAL/MOL
REMARK 922        TOTAL FREE ENERGY PREDICTED BY IDOCK:   13.11 KCAL/MOL
REMARK 923 INTER-LIGAND FREE ENERGY PREDICTED BY IDOCK:    6.00 KCAL/MOL
REMARK 924 INTRA-LIGAND FREE ENERGY PREDICTED BY IDOCK:    7.11 KCAL/MOL
REMARK 927      BINDING AFFINITY PREDICTED BY RF-SCORE:    0.00 PKD
ROOT
HETATM    1  C   UNL     1      -9.567  15.893  67.833  1.00  0.00    -0.215 C  
HETATM    2  C   UNL     1      -8.629  16.328  66.852  1.00  0.00    -0.247 C  
HETATM    3  C   UNL     1      -9.753  15.444  66.487  1.00  0.00    -0.292 C  
HETATM    4  C   UNL     1     -11.287  15.453  67.889  1.00  0.00    -0.325 C  
HETATM    5  C   UNL     1      -9.569  15.408  64.775  1.00  0.00     1.118 C  
HETATM    6  C   UNL     1      -6.740  12.542  68.982  1.00  0.00    -0.098 C  
HETATM    7  F   UNL     1      -5.869  14.029  70.612  1.00  0.00    -0.129 F  
HETATM    8  C   UNL     1     -11.083  15.580  66.561  1.00  0.00    -0.182 C  
HETATM    9  C   UNL     1      -7.624  11.084  67.061  1.00  0.00    -0.127 C  
HETATM   10  C   UNL     1      -7.022  13.611  70.017  1.00  0.00     0.404 C  
HETATM   11  C   UNL     1     -11.726  16.829  65.826  1.00  0.00     1.545 C  
HETATM   12  C   UNL     1      -8.007  11.904  68.358  1.00  0.00    -0.154 C  
HETATM   13  C   UNL     1     -11.270  13.766  66.215  1.00  0.00    -0.310 C  
HETATM   14  C   UNL     1      -8.413  10.826  69.356  1.00  0.00     0.000 C  
HETATM   15  C   UNL     1     -10.405  12.731  67.245  1.00  0.00    -0.232 C  
HETATM   16  C   UNL     1      -7.481  10.255  70.159  1.00  0.00    -0.084 C  
HETATM   17  O   UNL     1      -5.204  10.217  70.909  1.00  0.00    -0.058 OA 
HETATM   18  C   UNL     1      -6.036  10.709  70.160  1.00  0.00    -0.110 C  
HETATM   19  C   UNL     1      -5.654  11.759  69.148  1.00  0.00    -0.052 C  
HETATM   20  O   UNL     1     -11.270  12.320  68.310  1.00  0.00    -0.228 OA 
HETATM   21  C   UNL     1      -8.909  13.105  67.833  1.00  0.00    -0.196 C  
HETATM   22  C   UNL     1      -9.007  14.469  68.702  1.00  0.00    -0.181 C  
HETATM   23  F   UNL     1      -8.064  13.441  66.757  1.00  0.00    -0.114 F  
HETATM   24  H   UNL     1     -10.786  11.741  68.886  1.00  0.00     0.000 HD 
HETATM   25  C   UNL     1      -7.664  14.819  69.365  1.00  0.00    -0.104 C  
ENDROOT
BRANCH   4  26
HETATM   26  C   UNL     1     -12.837  14.906  67.885  1.00  0.00     1.655 C  
HETATM   27  O   UNL     1     -13.651  14.963  66.964  1.00  0.00     3.219 OA 
BRANCH  26  28
HETATM   28  S   UNL     1     -13.391  14.309  69.468  1.00  0.00     2.316 SA 
HETATM   29  F   UNL     1     -12.440  12.230  70.712  1.00  0.00    -0.411 F  
HETATM   30  C   UNL     1     -12.054  13.102  69.739  1.00  0.00    -0.270 C  
ENDBRANCH  26  28
ENDBRANCH   4  26
BRANCH   4  31
HETATM   31  O   UNL     1     -11.497  16.756  68.656  1.00  0.00    -0.188 OA 
BRANCH  31  32
HETATM   32  C   UNL     1     -10.586  17.567  69.255  1.00  0.00    -0.001 C  
HETATM   33  O   UNL     1     -10.293  17.543  70.436  1.00  0.00     0.691 OA 
BRANCH  32  34
HETATM   34  C   UNL     1      -9.932  18.480  68.250  1.00  0.00    -0.409 C  
HETATM   35  C   UNL     1     -10.703  19.789  68.144  1.00  0.00    -0.232 C  
ENDBRANCH  32  34
ENDBRANCH  31  32
ENDBRANCH   4  31
TORSDOF 5
ENDMDL
MODEL      108
REMARK 921   NORMALIZED FREE ENERGY PREDICTED BY IDOCK:    9.60 KCAL/MOL
REMARK 922        TOTAL FREE ENERGY PREDICTED BY IDOCK:   13.47 KCAL/MOL
REMARK 923 INTER-LIGAND FREE ENERGY PREDICTED BY IDOCK:   12.05 KCAL/MOL
REMARK 924 INTRA-LIGAND FREE ENERGY PREDICTED BY IDOCK:    1.42 KCAL/MOL
REMARK 927      BINDING AFFINITY PREDICTED BY RF-SCORE:    0.00 PKD
ROOT
HETATM    1  C   UNL     1     -11.992  12.484  67.305  1.00  0.00    -0.286 C  
HETATM    2  C   UNL     1     -13.176  11.799  67.705  1.00  0.00     5.960 C  
HETATM    3  C   UNL     1     -12.474  12.705  68.635  1.00  0.00     0.531 C  
HETATM    4  C   UNL     1     -11.188  14.024  67.672  1.00  0.00    -0.297 C  
HETATM    5  C   UNL     1     -13.585  12.713  69.950  1.00  0.00     2.937 C  
HETATM    6  C   UNL     1      -9.565   8.807  68.369  1.00  0.00    -0.157 C  
HETATM    7  F   UNL     1      -9.835   8.150  66.106  1.00  0.00    -0.285 F  
HETATM    8  C   UNL     1     -12.179  14.010  68.589  1.00  0.00    -0.218 C  
HETATM    9  C   UNL     1      -9.497   9.516  70.836  1.00  0.00    -0.186 C  
HETATM   10  C   UNL     1      -9.609   9.225  66.913  1.00  0.00    -0.174 C  
HETATM   11  C   UNL     1     -13.386  15.020  68.397  1.00  0.00     3.638 C  
HETATM   12  C   UNL     1      -9.168   9.941  69.348  1.00  0.00    -0.225 C  
HETATM   13  C   UNL     1     -11.033  13.783  70.032  1.00  0.00     0.264 C  
HETATM   14  C   UNL     1      -7.644   9.953  69.309  1.00  0.00    -0.101 C  
HETATM   15  C   UNL     1      -9.851  12.579  69.846  1.00  0.00     2.330 C  
HETATM   16  C   UNL     1      -6.962   8.823  68.994  1.00  0.00    -0.064 C  
HETATM   17  O   UNL     1      -7.051   6.538  68.276  1.00  0.00    -0.077 OA 
HETATM   18  C   UNL     1      -7.667   7.545  68.594  1.00  0.00    -0.119 C  
HETATM   19  C   UNL     1      -9.174   7.550  68.664  1.00  0.00    -0.144 C  
HETATM   20  O   UNL     1      -8.650  13.189  69.360  1.00  0.00     0.140 OA 
HETATM   21  C   UNL     1     -10.139  11.164  69.045  1.00  0.00    -0.155 C  
HETATM   22  C   UNL     1     -10.551  11.495  67.514  1.00  0.00    -0.243 C  
HETATM   23  F   UNL     1     -11.288  10.555  69.588  1.00  0.00    -0.240 F  
HETATM   24  H   UNL     1      -7.989  12.515  69.256  1.00  0.00     0.000 HD 
HETATM   25  C   UNL     1     -10.734  10.213  66.684  1.00  0.00    -0.156 C  
ENDROOT
BRANCH   4  26
HETATM   26  C   UNL     1     -10.390  15.382  68.142  1.00  0.00    -0.239 C  
HETATM   27  O   UNL     1     -10.851  16.358  68.733  1.00  0.00    -0.297 OA 
BRANCH  26  28
HETATM   28  S   UNL     1      -8.705  15.457  67.571  1.00  0.00    -0.183 SA 
HETATM   29  F   UNL     1      -7.381  17.640  67.064  1.00  0.00    -0.183 F  
HETATM   30  C   UNL     1      -8.470  17.250  67.785  1.00  0.00    -0.217 C  
ENDBRANCH  26  28
ENDBRANCH   4  26
BRANCH   4  31
HETATM   31  O   UNL     1     -11.592  14.461  66.266  1.00  0.00    -0.354 OA 
BRANCH  31  32
HETATM   32  C   UNL     1     -10.820  14.661  65.166  1.00  0.00    -0.401 C  
HETATM   33  O   UNL     1      -9.629  14.422  65.090  1.00  0.00    -0.078 OA 
BRANCH  32  34
HETATM   34  C   UNL     1     -11.644  15.177  64.013  1.00  0.00     0.115 C  
HETATM   35  C   UNL     1     -13.075  15.438  64.461  1.00  0.00     1.211 C  
ENDBRANCH  32  34
ENDBRANCH  31  32
ENDBRANCH   4  31
TORSDOF 5
ENDMDL
MODEL      109
REMARK 921   NORMALIZED FREE ENERGY PREDICTED BY IDOCK:   10.63 KCAL/MOL
REMARK 922        TOTAL FREE ENERGY PREDICTED BY IDOCK:   14.81 KCAL/MOL
REMARK 923 INTER-LIGAND FREE ENERGY PREDICTED BY IDOCK:   10.82 KCAL/MOL
REMARK 924 INTRA-LIGAND FREE ENERGY PREDICTED BY IDOCK:    3.99 KCAL/MOL
REMARK 927      BINDING AFFINITY PREDICTED BY RF-SCORE:    0.00 PKD
ROOT
HETATM    1  C   UNL     1     -10.349  13.328  69.276  1.00  0.00     0.248 C  
HETATM    2  C   UNL     1     -10.939  13.422  70.570  1.00  0.00     1.331 C  
HETATM    3  C   UNL     1     -11.775  13.236  69.367  1.00  0.00    -0.383 C  
HETATM    4  C   UNL     1     -10.706  12.522  67.734  1.00  0.00    -0.219 C  
HETATM    5  C   UNL     1     -13.317  13.012  70.098  1.00  0.00     1.249 C  
HETATM    6  C   UNL     1     -10.257  17.853  69.043  1.00  0.00    -0.274 C  
HETATM    7  F   UNL     1      -8.068  17.712  69.947  1.00  0.00     0.536 F  
HETATM    8  C   UNL     1     -11.833  12.277  68.435  1.00  0.00    -0.358 C  
HETATM    9  C   UNL     1     -12.699  17.903  68.250  1.00  0.00     6.156 C  
HETATM   10  C   UNL     1      -8.930  17.123  69.071  1.00  0.00    -0.110 C  
HETATM   11  C   UNL     1     -12.091  10.795  68.935  1.00  0.00    -0.107 C  
HETATM   12  C   UNL     1     -11.247  17.341  67.967  1.00  0.00     0.094 C  
HETATM   13  C   UNL     1     -12.894  13.383  67.388  1.00  0.00     1.313 C  
HETATM   14  C   UNL     1     -10.826  18.065  66.694  1.00  0.00    -0.012 C  
HETATM   15  C   UNL     1     -12.254  14.922  67.066  1.00  0.00     0.161 C  
HETATM   16  C   UNL     1     -10.198  19.265  66.769  1.00  0.00    -0.503 C  
HETATM   17  O   UNL     1      -9.224  20.957  68.160  1.00  0.00     0.210 OA 
HETATM   18  C   UNL     1      -9.821  19.892  68.095  1.00  0.00    -0.405 C  
HETATM   19  C   UNL     1     -10.271  19.169  69.340  1.00  0.00     0.092 C  
HETATM   20  O   UNL     1     -11.567  14.878  65.810  1.00  0.00    -0.325 OA 
HETATM   21  C   UNL     1     -11.369  15.768  68.174  1.00  0.00    -0.337 C  
HETATM   22  C   UNL     1     -10.051  14.911  68.566  1.00  0.00    -0.232 C  
HETATM   23  F   UNL     1     -12.097  15.851  69.377  1.00  0.00    -0.354 F  
HETATM   24  H   UNL     1     -11.209  15.738  65.631  1.00  0.00     0.000 HD 
HETATM   25  C   UNL     1      -9.129  15.690  69.519  1.00  0.00    -0.240 C  
ENDROOT
BRANCH   4  26
HETATM   26  C   UNL     1     -11.136  11.892  66.278  1.00  0.00    -0.314 C  
HETATM   27  O   UNL     1     -10.398  11.403  65.423  1.00  0.00    -0.258 OA 
BRANCH  26  28
HETATM   28  S   UNL     1     -12.860  12.104  65.886  1.00  0.00     2.601 SA 
HETATM   29  F   UNL     1     -13.958  11.581  63.585  1.00  0.00     0.195 F  
HETATM   30  C   UNL     1     -12.839  11.239  64.284  1.00  0.00     1.569 C  
ENDBRANCH  26  28
ENDBRANCH   4  26
BRANCH   4  31
HETATM   31  O   UNL     1      -9.520  11.612  68.045  1.00  0.00    -0.172 OA 
BRANCH  31  32
HETATM   32  C   UNL     1      -8.360  11.435  67.359  1.00  0.00    -0.144 C  
HETATM   33  O   UNL     1      -7.858  12.248  66.605  1.00  0.00    -0.020 OA 
BRANCH  32  34
HETATM   34  C   UNL     1      -7.731  10.106  67.692  1.00  0.00    -0.091 C  
HETATM   35  C   UNL     1      -7.061  10.165  69.059  1.00  0.00    -0.072 C  
ENDBRANCH  32  34
ENDBRANCH  31  32
ENDBRANCH   4  31
TORSDOF 5
ENDMDL
MODEL      110
REMARK 921   NORMALIZED FREE ENERGY PREDICTED BY IDOCK:   13.43 KCAL/MOL
REMARK 922        TOTAL FREE ENERGY PREDICTED BY IDOCK:   18.43 KCAL/MOL
REMARK 923 INTER-LIGAND FREE ENERGY PREDICTED BY IDOCK:   17.22 KCAL/MOL
REMARK 924 INTRA-LIGAND FREE ENERGY PREDICTED BY IDOCK:    1.21 KCAL/MOL
REMARK 927      BINDING AFFINITY PREDICTED BY RF-SCORE:    0.00 PKD
ROOT
HETATM    1  C   UNL     1      -9.412  15.233  68.761  1.00  0.00    -0.212 C  
HETATM    2  C   UNL     1      -8.095  14.795  69.087  1.00  0.00    -0.119 C  
HETATM    3  C   UNL     1      -8.857  15.659  70.010  1.00  0.00     0.420 C  
HETATM    4  C   UNL     1     -10.901  15.654  69.632  1.00  0.00    -0.287 C  
HETATM    5  C   UNL     1      -7.795  15.670  71.365  1.00  0.00     4.237 C  
HETATM    6  C   UNL     1      -7.628  18.636  66.356  1.00  0.00    -0.284 C  
HETATM    7  F   UNL     1      -7.751  17.186  64.483  1.00  0.00     3.472 F  
HETATM    8  C   UNL     1     -10.024  15.508  70.648  1.00  0.00     0.550 C  
HETATM    9  C   UNL     1      -7.364  20.053  68.481  1.00  0.00    -0.263 C  
HETATM   10  C   UNL     1      -8.414  17.580  65.606  1.00  0.00     0.560 C  
HETATM   11  C   UNL     1     -10.178  14.240  71.588  1.00  0.00     4.038 C  
HETATM   12  C   UNL     1      -8.374  19.249  67.568  1.00  0.00    -0.322 C  
HETATM   13  C   UNL     1     -10.003  17.314  71.077  1.00  0.00     3.555 C  
HETATM   14  C   UNL     1      -9.249  20.338  66.959  1.00  0.00    -0.503 C  
HETATM   15  C   UNL     1      -9.817  18.376  69.766  1.00  0.00     0.647 C  
HETATM   16  C   UNL     1      -8.884  20.932  65.795  1.00  0.00     1.042 C  
HETATM   17  O   UNL     1      -7.351  21.010  63.954  1.00  0.00     0.389 OA 
HETATM   18  C   UNL     1      -7.659  20.496  65.020  1.00  0.00     0.495 C  
HETATM   19  C   UNL     1      -6.797  19.435  65.656  1.00  0.00    -0.317 C  
HETATM   20  O   UNL     1     -11.116  18.792  69.328  1.00  0.00     0.813 OA 
HETATM   21  C   UNL     1      -8.859  18.029  68.468  1.00  0.00    -0.295 C  
HETATM   22  C   UNL     1      -9.399  16.678  67.755  1.00  0.00    -0.222 C  
HETATM   23  F   UNL     1      -7.571  17.686  68.926  1.00  0.00    -0.255 F  
HETATM   24  H   UNL     1     -11.012  19.386  68.595  1.00  0.00     0.000 HD 
HETATM   25  C   UNL     1      -8.610  16.355  66.475  1.00  0.00    -0.329 C  
ENDROOT
BRANCH   4  26
HETATM   26  C   UNL     1     -12.214  16.182  70.467  1.00  0.00     0.039 C  
HETATM   27  O   UNL     1     -12.269  17.111  71.273  1.00  0.00     1.750 OA 
BRANCH  26  28
HETATM   28  S   UNL     1     -13.657  15.161  70.255  1.00  0.00     0.632 SA 
HETATM   29  F   UNL     1     -14.368  13.211  71.826  1.00  0.00    -0.151 F  
HETATM   30  C   UNL     1     -13.588  14.328  71.873  1.00  0.00    -0.413 C  
ENDBRANCH  26  28
ENDBRANCH   4  26
BRANCH   4  31
HETATM   31  O   UNL     1     -11.483  14.360  69.068  1.00  0.00    -0.250 OA 
BRANCH  31  32
HETATM   32  C   UNL     1     -11.953  14.093  67.821  1.00  0.00    -0.354 C  
HETATM   33  O   UNL     1     -12.266  14.929  66.994  1.00  0.00    -0.148 OA 
BRANCH  32  34
HETATM   34  C   UNL     1     -11.990  12.608  67.563  1.00  0.00    -0.314 C  
HETATM   35  C   UNL     1     -11.748  11.841  68.856  1.00  0.00    -0.384 C  
ENDBRANCH  32  34
ENDBRANCH  31  32
ENDBRANCH   4  31
TORSDOF 5
ENDMDL
MODEL      111
REMARK 921   NORMALIZED FREE ENERGY PREDICTED BY IDOCK:   13.54 KCAL/MOL
REMARK 922        TOTAL FREE ENERGY PREDICTED BY IDOCK:   18.57 KCAL/MOL
REMARK 923 INTER-LIGAND FREE ENERGY PREDICTED BY IDOCK:   11.35 KCAL/MOL
REMARK 924 INTRA-LIGAND FREE ENERGY PREDICTED BY IDOCK:    7.22 KCAL/MOL
REMARK 927      BINDING AFFINITY PREDICTED BY RF-SCORE:    0.00 PKD
ROOT
HETATM    1  C   UNL     1     -10.535  16.685  68.454  1.00  0.00    -0.323 C  
HETATM    2  C   UNL     1     -11.281  16.290  69.602  1.00  0.00    -0.311 C  
HETATM    3  C   UNL     1      -9.859  16.669  69.716  1.00  0.00     0.212 C  
HETATM    4  C   UNL     1      -9.176  17.769  68.090  1.00  0.00    -0.277 C  
HETATM    5  C   UNL     1      -9.672  16.642  71.427  1.00  0.00     4.852 C  
HETATM    6  C   UNL     1      -9.746  12.320  67.525  1.00  0.00    -0.190 C  
HETATM    7  F   UNL     1     -11.692  12.404  66.171  1.00  0.00    -0.382 F  
HETATM    8  C   UNL     1      -9.189  17.795  69.440  1.00  0.00     0.369 C  
HETATM    9  C   UNL     1      -7.769  12.286  69.165  1.00  0.00     0.260 C  
HETATM   10  C   UNL     1     -10.585  13.108  66.541  1.00  0.00    -0.284 C  
HETATM   11  C   UNL     1      -9.678  19.123  70.154  1.00  0.00     0.926 C  
HETATM   12  C   UNL     1      -8.393  12.982  67.888  1.00  0.00    -0.170 C  
HETATM   13  C   UNL     1      -7.592  16.866  69.615  1.00  0.00     0.445 C  
HETATM   14  C   UNL     1      -7.457  12.564  66.760  1.00  0.00     0.232 C  
HETATM   15  C   UNL     1      -7.448  15.469  68.661  1.00  0.00    -0.131 C  
HETATM   16  C   UNL     1      -7.685  11.414  66.077  1.00  0.00     0.155 C  
HETATM   17  O   UNL     1      -9.123   9.534  65.700  1.00  0.00    -0.171 OA 
HETATM   18  C   UNL     1      -8.901  10.551  66.340  1.00  0.00    -0.153 C  
HETATM   19  C   UNL     1      -9.798  10.973  67.477  1.00  0.00    -0.190 C  
HETATM   20  O   UNL     1      -6.779  15.813  67.444  1.00  0.00    -0.172 OA 
HETATM   21  C   UNL     1      -8.724  14.468  68.351  1.00  0.00    -0.175 C  
HETATM   22  C   UNL     1      -9.879  15.304  67.581  1.00  0.00    -0.217 C  
HETATM   23  F   UNL     1      -9.322  14.094  69.570  1.00  0.00     0.118 F  
HETATM   24  H   UNL     1      -6.699  15.032  66.911  1.00  0.00     0.000 HD 
HETATM   25  C   UNL     1     -11.056  14.403  67.171  1.00  0.00    -0.318 C  
ENDROOT
BRANCH   4  26
HETATM   26  C   UNL     1      -7.824  18.659  67.805  1.00  0.00    -0.245 C  
HETATM   27  O   UNL     1      -6.653  18.286  67.865  1.00  0.00    -0.198 OA 
BRANCH  26  28
HETATM   28  S   UNL     1      -8.147  20.388  67.530  1.00  0.00    -0.244 SA 
HETATM   29  F   UNL     1      -9.613  21.360  65.611  1.00  0.00     1.147 F  
HETATM   30  C   UNL     1      -9.449  20.180  66.273  1.00  0.00    -0.339 C  
ENDBRANCH  26  28
ENDBRANCH   4  26
BRANCH   4  31
HETATM   31  O   UNL     1     -10.200  18.666  67.399  1.00  0.00    -0.343 OA 
BRANCH  31  32
HETATM   32  C   UNL     1     -11.417  18.353  66.882  1.00  0.00     1.224 C  
HETATM   33  O   UNL     1     -12.472  18.866  67.206  1.00  0.00     3.242 OA 
BRANCH  32  34
HETATM   34  C   UNL     1     -11.294  17.310  65.800  1.00  0.00     0.922 C  
HETATM   35  C   UNL     1     -10.293  17.759  64.744  1.00  0.00     2.074 C  
ENDBRANCH  32  34
ENDBRANCH  31  32
ENDBRANCH   4  31
TORSDOF 5
ENDMDL
MODEL      112
REMARK 921   NORMALIZED FREE ENERGY PREDICTED BY IDOCK:   15.20 KCAL/MOL
REMARK 922        TOTAL FREE ENERGY PREDICTED BY IDOCK:   20.71 KCAL/MOL
REMARK 923 INTER-LIGAND FREE ENERGY PREDICTED BY IDOCK:   17.80 KCAL/MOL
REMARK 924 INTRA-LIGAND FREE ENERGY PREDICTED BY IDOCK:    2.91 KCAL/MOL
REMARK 927      BINDING AFFINITY PREDICTED BY RF-SCORE:    0.00 PKD
ROOT
HETATM    1  C   UNL     1      -9.243  16.414  67.634  1.00  0.00    -0.199 C  
HETATM    2  C   UNL     1      -9.423  17.383  66.603  1.00  0.00    -0.285 C  
HETATM    3  C   UNL     1      -8.215  16.534  66.645  1.00  0.00    -0.306 C  
HETATM    4  C   UNL     1      -8.453  14.834  67.817  1.00  0.00    -0.164 C  
HETATM    5  C   UNL     1      -7.476  16.982  65.156  1.00  0.00     3.054 C  
HETATM    6  C   UNL     1      -7.582  19.660  70.326  1.00  0.00     0.750 C  
HETATM    7  F   UNL     1      -9.802  19.945  71.112  1.00  0.00     0.555 F  
HETATM    8  C   UNL     1      -8.028  15.209  66.592  1.00  0.00     0.084 C  
HETATM    9  C   UNL     1      -5.255  19.401  69.270  1.00  0.00    -0.198 C  
HETATM   10  C   UNL     1      -8.887  19.008  70.733  1.00  0.00     3.490 C  
HETATM   11  C   UNL     1      -8.616  14.444  65.334  1.00  0.00     2.657 C  
HETATM   12  C   UNL     1      -6.437  18.662  70.019  1.00  0.00     0.039 C  
HETATM   13  C   UNL     1      -6.267  15.455  67.122  1.00  0.00     0.278 C  
HETATM   14  C   UNL     1      -5.845  18.338  71.386  1.00  0.00     0.661 C  
HETATM   15  C   UNL     1      -6.049  16.345  68.551  1.00  0.00    -0.123 C  
HETATM   16  C   UNL     1      -5.944  19.234  72.400  1.00  0.00     1.004 C  
HETATM   17  O   UNL     1      -6.820  21.326  73.176  1.00  0.00     4.314 OA 
HETATM   18  C   UNL     1      -6.702  20.536  72.250  1.00  0.00     1.384 C  
HETATM   19  C   UNL     1      -7.256  20.845  70.882  1.00  0.00     2.539 C  
HETATM   20  O   UNL     1      -5.946  15.431  69.647  1.00  0.00    -0.116 OA 
HETATM   21  C   UNL     1      -7.010  17.624  68.958  1.00  0.00    -0.233 C  
HETATM   22  C   UNL     1      -8.542  17.116  69.089  1.00  0.00     0.013 C  
HETATM   23  F   UNL     1      -7.039  18.537  67.885  1.00  0.00    -0.212 F  
HETATM   24  H   UNL     1      -5.825  15.929  70.446  1.00  0.00     0.000 HD 
HETATM   25  C   UNL     1      -9.476  18.240  69.567  1.00  0.00     0.424 C  
ENDROOT
BRANCH   4  26
HETATM   26  C   UNL     1      -7.587  13.450  68.004  1.00  0.00    -0.143 C  
HETATM   27  O   UNL     1      -6.796  13.174  68.905  1.00  0.00    -0.098 OA 
BRANCH  26  28
HETATM   28  S   UNL     1      -7.739  12.319  66.637  1.00  0.00     0.312 SA 
HETATM   29  F   UNL     1      -6.563  10.004  66.459  1.00  0.00    -0.067 F  
HETATM   30  C   UNL     1      -6.920  10.896  67.425  1.00  0.00    -0.084 C  
ENDBRANCH  26  28
ENDBRANCH   4  26
BRANCH   4  31
HETATM   31  O   UNL     1      -9.860  14.245  67.880  1.00  0.00    -0.218 OA 
BRANCH  31  32
HETATM   32  C   UNL     1     -10.869  14.503  68.752  1.00  0.00    -0.248 C  
HETATM   33  O   UNL     1     -10.868  15.388  69.587  1.00  0.00    -0.246 OA 
BRANCH  32  34
HETATM   34  C   UNL     1     -12.035  13.575  68.522  1.00  0.00    -0.379 C  
HETATM   35  C   UNL     1     -11.782  12.702  67.299  1.00  0.00    -0.435 C  
ENDBRANCH  32  34
ENDBRANCH  31  32
ENDBRANCH   4  31
TORSDOF 5
ENDMDL
MODEL      113
REMARK 921   NORMALIZED FREE ENERGY PREDICTED BY IDOCK:   15.50 KCAL/MOL
REMARK 922        TOTAL FREE ENERGY PREDICTED BY IDOCK:   21.09 KCAL/MOL
REMARK 923 INTER-LIGAND FREE ENERGY PREDICTED BY IDOCK:   16.29 KCAL/MOL
REMARK 924 INTRA-LIGAND FREE ENERGY PREDICTED BY IDOCK:    4.81 KCAL/MOL
REMARK 927      BINDING AFFINITY PREDICTED BY RF-SCORE:    0.00 PKD
ROOT
HETATM    1  C   UNL     1     -10.033  10.455  67.671  1.00  0.00    -0.205 C  
HETATM    2  C   UNL     1     -11.344  10.392  67.116  1.00  0.00     0.109 C  
HETATM    3  C   UNL     1     -10.996  11.411  68.126  1.00  0.00    -0.284 C  
HETATM    4  C   UNL     1      -8.948  11.703  68.318  1.00  0.00    -0.185 C  
HETATM    5  C   UNL     1     -12.440  12.350  68.122  1.00  0.00     0.817 C  
HETATM    6  C   UNL     1     -11.202   7.260  70.666  1.00  0.00    -0.300 C  
HETATM    7  F   UNL     1     -10.361   5.688  69.101  1.00  0.00    -0.224 F  
HETATM    8  C   UNL     1     -10.093  12.398  68.153  1.00  0.00    -0.224 C  
HETATM    9  C   UNL     1     -12.258   9.028  72.201  1.00  0.00    -0.427 C  
HETATM   10  C   UNL     1     -10.133   6.914  69.650  1.00  0.00    -0.184 C  
HETATM   11  C   UNL     1     -10.152  13.468  66.984  1.00  0.00    -0.244 C  
HETATM   12  C   UNL     1     -10.944   8.573  71.446  1.00  0.00    -0.329 C  
HETATM   13  C   UNL     1     -10.397  12.603  69.973  1.00  0.00     1.836 C  
HETATM   14  C   UNL     1     -10.008   8.160  72.576  1.00  0.00    -0.372 C  
HETATM   15  C   UNL     1     -10.230  11.195  70.906  1.00  0.00     3.329 C  
HETATM   16  C   UNL     1     -10.021   6.884  73.038  1.00  0.00    -0.212 C  
HETATM   17  O   UNL     1     -10.872   4.655  72.807  1.00  0.00    -0.209 OA 
HETATM   18  C   UNL     1     -10.888   5.812  72.412  1.00  0.00    -0.247 C  
HETATM   19  C   UNL     1     -11.822   6.251  71.313  1.00  0.00    -0.247 C  
HETATM   20  O   UNL     1      -8.898  11.149  71.429  1.00  0.00     5.514 OA 
HETATM   21  C   UNL     1     -10.682   9.705  70.359  1.00  0.00    -0.298 C  
HETATM   22  C   UNL     1      -9.833   9.348  69.026  1.00  0.00    -0.171 C  
HETATM   23  F   UNL     1     -12.018   9.765  69.911  1.00  0.00    -0.196 F  
HETATM   24  H   UNL     1      -8.805  10.361  71.951  1.00  0.00     0.000 HD 
HETATM   25  C   UNL     1     -10.133   7.927  68.523  1.00  0.00    -0.216 C  
ENDROOT
BRANCH   4  26
HETATM   26  C   UNL     1      -8.025  12.849  69.049  1.00  0.00     0.308 C  
HETATM   27  O   UNL     1      -6.943  13.297  68.669  1.00  0.00    -0.091 OA 
BRANCH  26  28
HETATM   28  S   UNL     1      -8.636  13.354  70.643  1.00  0.00     6.679 SA 
HETATM   29  F   UNL     1      -7.207  14.426  72.536  1.00  0.00     1.492 F  
HETATM   30  C   UNL     1      -7.149  14.254  71.185  1.00  0.00     1.673 C  
ENDBRANCH  26  28
ENDBRANCH   4  26
BRANCH   4  31
HETATM   31  O   UNL     1      -8.112  11.493  67.058  1.00  0.00    -0.148 OA 
BRANCH  31  32
HETATM   32  C   UNL     1      -7.159  10.560  66.795  1.00  0.00    -0.109 C  
HETATM   33  O   UNL     1      -6.396  10.085  67.615  1.00  0.00    -0.058 OA 
BRANCH  32  34
HETATM   34  C   UNL     1      -7.198  10.140  65.348  1.00  0.00    -0.144 C  
HETATM   35  C   UNL     1      -8.269   9.079  65.133  1.00  0.00    -0.147 C  
ENDBRANCH  32  34
ENDBRANCH  31  32
ENDBRANCH   4  31
TORSDOF 5
ENDMDL
MODEL      114
REMARK 921   NORMALIZED FREE ENERGY PREDICTED BY IDOCK:   16.61 KCAL/MOL
REMARK 922        TOTAL FREE ENERGY PREDICTED BY IDOCK:   22.53 KCAL/MOL
REMARK 923 INTER-LIGAND FREE ENERGY PREDICTED BY IDOCK:   16.18 KCAL/MOL
REMARK 924 INTRA-LIGAND FREE ENERGY PREDICTED BY IDOCK:    6.36 KCAL/MOL
REMARK 927      BINDING AFFINITY PREDICTED BY RF-SCORE:    0.00 PKD
ROOT
HETATM    1  C   UNL     1     -10.030  11.686  66.611  1.00  0.00    -0.230 C  
HETATM    2  C   UNL     1     -11.363  11.400  66.193  1.00  0.00    -0.115 C  
HETATM    3  C   UNL     1     -11.077  12.536  67.092  1.00  0.00    -0.321 C  
HETATM    4  C   UNL     1      -9.082  13.118  67.061  1.00  0.00    -0.231 C  
HETATM    5  C   UNL     1     -12.634  13.267  67.165  1.00  0.00     0.350 C  
HETATM    6  C   UNL     1     -10.465   8.616  69.918  1.00  0.00    -0.221 C  
HETATM    7  F   UNL     1      -9.548   7.051  68.390  1.00  0.00    -0.136 F  
HETATM    8  C   UNL     1     -10.325  13.636  66.963  1.00  0.00    -0.260 C  
HETATM    9  C   UNL     1     -11.623  10.344  71.425  1.00  0.00    -0.115 C  
HETATM   10  C   UNL     1      -9.450   8.338  68.828  1.00  0.00    -0.148 C  
HETATM   11  C   UNL     1     -10.639  14.589  65.735  1.00  0.00    -0.326 C  
HETATM   12  C   UNL     1     -10.329  10.012  70.578  1.00  0.00    -0.215 C  
HETATM   13  C   UNL     1     -10.494  13.944  68.785  1.00  0.00    -0.229 C  
HETATM   14  C   UNL     1      -9.248   9.822  71.636  1.00  0.00     1.636 C  
HETATM   15  C   UNL     1     -10.047  12.653  69.792  1.00  0.00     1.583 C  
HETATM   16  C   UNL     1      -9.038   8.599  72.183  1.00  0.00    -0.301 C  
HETATM   17  O   UNL     1      -9.579   6.263  72.189  1.00  0.00    -0.152 OA 
HETATM   18  C   UNL     1      -9.794   7.371  71.720  1.00  0.00    -0.167 C  
HETATM   19  C   UNL     1     -10.874   7.589  70.690  1.00  0.00    -0.251 C  
HETATM   20  O   UNL     1      -8.681  12.832  70.183  1.00  0.00     2.584 OA 
HETATM   21  C   UNL     1     -10.328  11.076  69.395  1.00  0.00    -0.104 C  
HETATM   22  C   UNL     1      -9.556  10.731  68.013  1.00  0.00    -0.172 C  
HETATM   23  F   UNL     1     -11.692  10.918  69.078  1.00  0.00    -0.297 F  
HETATM   24  H   UNL     1      -8.431  12.109  70.746  1.00  0.00     0.000 HD 
HETATM   25  C   UNL     1      -9.694   9.245  67.639  1.00  0.00    -0.195 C  
ENDROOT
BRANCH   4  26
HETATM   26  C   UNL     1      -8.271  14.435  67.618  1.00  0.00    -0.176 C  
HETATM   27  O   UNL     1      -7.129  14.477  68.075  1.00  0.00    -0.109 OA 
BRANCH  26  28
HETATM   28  S   UNL     1      -9.262  15.913  67.683  1.00  0.00    -0.208 SA 
HETATM   29  F   UNL     1     -11.078  16.432  69.475  1.00  0.00    -0.282 F  
HETATM   30  C   UNL     1      -9.984  15.632  69.332  1.00  0.00    -0.279 C  
ENDBRANCH  26  28
ENDBRANCH   4  26
BRANCH   4  31
HETATM   31  O   UNL     1      -8.338  12.922  65.743  1.00  0.00     1.066 OA 
BRANCH  31  32
HETATM   32  C   UNL     1      -7.007  12.780  65.511  1.00  0.00     5.447 C  
HETATM   33  O   UNL     1      -6.213  13.695  65.394  1.00  0.00     8.348 OA 
BRANCH  32  34
HETATM   34  C   UNL     1      -6.616  11.325  65.469  1.00  0.00     0.509 C  
HETATM   35  C   UNL     1      -5.501  11.047  66.468  1.00  0.00    -0.107 C  
ENDBRANCH  32  34
ENDBRANCH  31  32
ENDBRANCH   4  31
TORSDOF 5
ENDMDL
MODEL      115
REMARK 921   NORMALIZED FREE ENERGY PREDICTED BY IDOCK:   17.11 KCAL/MOL
REMARK 922        TOTAL FREE ENERGY PREDICTED BY IDOCK:   23.18 KCAL/MOL
REMARK 923 INTER-LIGAND FREE ENERGY PREDICTED BY IDOCK:   20.04 KCAL/MOL
REMARK 924 INTRA-LIGAND FREE ENERGY PREDICTED BY IDOCK:    3.14 KCAL/MOL
REMARK 927      BINDING AFFINITY PREDICTED BY RF-SCORE:    0.00 PKD
ROOT
HETATM    1  C   UNL     1     -10.264  10.068  70.445  1.00  0.00    -0.218 C  
HETATM    2  C   UNL     1     -10.810  11.230  71.066  1.00  0.00     2.270 C  
HETATM    3  C   UNL     1     -11.519  10.557  69.960  1.00  0.00    -0.393 C  
HETATM    4  C   UNL     1     -10.877   8.606  69.646  1.00  0.00    -0.157 C  
HETATM    5  C   UNL     1     -12.992  11.448  69.956  1.00  0.00     0.280 C  
HETATM    6  C   UNL     1      -7.744  12.737  67.786  1.00  0.00    -0.152 C  
HETATM    7  F   UNL     1      -6.049  12.535  69.433  1.00  0.00    -0.077 F  
HETATM    8  C   UNL     1     -12.010   9.321  69.807  1.00  0.00     0.501 C  
HETATM    9  C   UNL     1      -9.710  13.044  66.162  1.00  0.00    -0.255 C  
HETATM   10  C   UNL     1      -7.022  11.844  68.774  1.00  0.00    -0.104 C  
HETATM   11  C   UNL     1     -13.059   8.820  70.885  1.00  0.00     0.164 C  
HETATM   12  C   UNL     1      -8.769  11.999  66.887  1.00  0.00    -0.193 C  
HETATM   13  C   UNL     1     -12.229   9.651  67.994  1.00  0.00     3.596 C  
HETATM   14  C   UNL     1      -7.929  11.427  65.752  1.00  0.00     0.249 C  
HETATM   15  C   UNL     1     -10.841  10.183  67.174  1.00  0.00    -0.189 C  
HETATM   16  C   UNL     1      -6.764  12.026  65.399  1.00  0.00     2.968 C  
HETATM   17  O   UNL     1      -5.145  13.734  65.855  1.00  0.00     4.368 OA 
HETATM   18  C   UNL     1      -6.212  13.218  66.152  1.00  0.00     4.454 C  
HETATM   19  C   UNL     1      -7.074  13.780  67.255  1.00  0.00     0.054 C  
HETATM   20  O   UNL     1     -10.191   9.048  66.592  1.00  0.00    -0.269 OA 
HETATM   21  C   UNL     1      -9.730  11.190  67.864  1.00  0.00    -0.174 C  
HETATM   22  C   UNL     1      -9.110  10.474  69.179  1.00  0.00    -0.177 C  
HETATM   23  F   UNL     1     -10.391  12.327  68.369  1.00  0.00    -0.200 F  
HETATM   24  H   UNL     1      -9.415   9.346  66.134  1.00  0.00     0.000 HD 
HETATM   25  C   UNL     1      -7.992  11.318  69.812  1.00  0.00     0.712 C  
ENDROOT
BRANCH   4  26
HETATM   26  C   UNL     1     -11.465   7.339  68.778  1.00  0.00     0.523 C  
HETATM   27  O   UNL     1     -12.641   7.007  68.638  1.00  0.00     2.937 OA 
BRANCH  26  28
HETATM   28  S   UNL     1     -10.201   6.277  68.113  1.00  0.00    -0.191 SA 
HETATM   29  F   UNL     1     -10.308   5.066  65.812  1.00  0.00    -0.213 F  
HETATM   30  C   UNL     1     -10.883   6.135  66.430  1.00  0.00     0.054 C  
ENDBRANCH  26  28
ENDBRANCH   4  26
BRANCH   4  31
HETATM   31  O   UNL     1     -10.391   7.845  70.877  1.00  0.00    -0.199 OA 
BRANCH  31  32
HETATM   32  C   UNL     1      -9.439   8.183  71.786  1.00  0.00    -0.188 C  
HETATM   33  O   UNL     1      -8.350   8.656  71.519  1.00  0.00    -0.148 OA 
BRANCH  32  34
HETATM   34  C   UNL     1      -9.925   7.947  73.193  1.00  0.00    -0.358 C  
HETATM   35  C   UNL     1      -8.919   8.492  74.198  1.00  0.00     0.768 C  
ENDBRANCH  32  34
ENDBRANCH  31  32
ENDBRANCH   4  31
TORSDOF 5
ENDMDL
MODEL      116
REMARK 921   NORMALIZED FREE ENERGY PREDICTED BY IDOCK:   17.78 KCAL/MOL
REMARK 922        TOTAL FREE ENERGY PREDICTED BY IDOCK:   24.04 KCAL/MOL
REMARK 923 INTER-LIGAND FREE ENERGY PREDICTED BY IDOCK:   21.11 KCAL/MOL
REMARK 924 INTRA-LIGAND FREE ENERGY PREDICTED BY IDOCK:    2.93 KCAL/MOL
REMARK 927      BINDING AFFINITY PREDICTED BY RF-SCORE:    0.00 PKD
ROOT
HETATM    1  C   UNL     1      -9.781  13.462  67.700  1.00  0.00    -0.222 C  
HETATM    2  C   UNL     1      -9.333  12.860  66.488  1.00  0.00    -0.224 C  
HETATM    3  C   UNL     1      -8.369  13.384  67.476  1.00  0.00    -0.190 C  
HETATM    4  C   UNL     1      -9.194  13.633  69.367  1.00  0.00     0.876 C  
HETATM    5  C   UNL     1      -6.891  12.852  66.771  1.00  0.00     0.806 C  
HETATM    6  C   UNL     1     -10.317  17.385  65.494  1.00  0.00    -0.075 C  
HETATM    7  F   UNL     1     -12.557  16.702  65.118  1.00  0.00     1.787 F  
HETATM    8  C   UNL     1      -8.121  13.086  68.757  1.00  0.00     0.086 C  
HETATM    9  C   UNL     1      -7.827  17.939  65.792  1.00  0.00     0.035 C  
HETATM   10  C   UNL     1     -11.558  16.712  66.044  1.00  0.00     1.160 C  
HETATM   11  C   UNL     1      -7.762  11.579  69.094  1.00  0.00     0.030 C  
HETATM   12  C   UNL     1      -9.178  17.571  66.528  1.00  0.00    -0.286 C  
HETATM   13  C   UNL     1      -7.083  14.618  68.894  1.00  0.00    -0.117 C  
HETATM   14  C   UNL     1      -9.545  18.855  67.264  1.00  0.00    -0.346 C  
HETATM   15  C   UNL     1      -7.844  16.063  68.431  1.00  0.00    -0.149 C  
HETATM   16  C   UNL     1     -10.298  19.801  66.647  1.00  0.00    -0.614 C  
HETATM   17  O   UNL     1     -11.573  20.435  64.719  1.00  0.00     0.402 OA 
HETATM   18  C   UNL     1     -10.866  19.596  65.259  1.00  0.00     0.207 C  
HETATM   19  C   UNL     1     -10.468  18.330  64.543  1.00  0.00     3.848 C  
HETATM   20  O   UNL     1      -8.396  16.683  69.598  1.00  0.00     0.183 OA 
HETATM   21  C   UNL     1      -8.916  16.142  67.178  1.00  0.00    -0.200 C  
HETATM   22  C   UNL     1     -10.170  15.166  67.490  1.00  0.00    -0.238 C  
HETATM   23  F   UNL     1      -8.321  15.585  66.029  1.00  0.00    -0.261 F  
HETATM   24  H   UNL     1      -8.822  17.491  69.338  1.00  0.00     0.000 HD 
HETATM   25  C   UNL     1     -11.257  15.272  66.406  1.00  0.00    -0.224 C  
ENDROOT
BRANCH   4  26
HETATM   26  C   UNL     1      -8.559  13.907  70.859  1.00  0.00     5.329 C  
HETATM   27  O   UNL     1      -9.137  14.352  71.850  1.00  0.00     4.792 OA 
BRANCH  26  28
HETATM   28  S   UNL     1      -6.799  13.657  70.947  1.00  0.00     1.796 SA 
HETATM   29  F   UNL     1      -5.143  15.080  72.363  1.00  0.00    -0.198 F  
HETATM   30  C   UNL     1      -6.474  14.793  72.332  1.00  0.00     1.406 C  
ENDBRANCH  26  28
ENDBRANCH   4  26
BRANCH   4  31
HETATM   31  O   UNL     1     -10.304  12.660  69.757  1.00  0.00     0.716 OA 
BRANCH  31  32
HETATM   32  C   UNL     1     -11.382  12.852  70.562  1.00  0.00     0.825 C  
HETATM   33  O   UNL     1     -11.708  13.915  71.057  1.00  0.00    -0.177 OA 
BRANCH  32  34
HETATM   34  C   UNL     1     -12.168  11.577  70.728  1.00  0.00    -0.463 C  
HETATM   35  C   UNL     1     -13.600  11.889  71.140  1.00  0.00     0.812 C  
ENDBRANCH  32  34
ENDBRANCH  31  32
ENDBRANCH   4  31
TORSDOF 5
ENDMDL
MODEL      117
REMARK 921   NORMALIZED FREE ENERGY PREDICTED BY IDOCK:   23.03 KCAL/MOL
REMARK 922        TOTAL FREE ENERGY PREDICTED BY IDOCK:   30.83 KCAL/MOL
REMARK 923 INTER-LIGAND FREE ENERGY PREDICTED BY IDOCK:   29.41 KCAL/MOL
REMARK 924 INTRA-LIGAND FREE ENERGY PREDICTED BY IDOCK:    1.41 KCAL/MOL
REMARK 927      BINDING AFFINITY PREDICTED BY RF-SCORE:    0.00 PKD
ROOT
HETATM    1  C   UNL     1      -9.314  15.311  68.930  1.00  0.00    -0.213 C  
HETATM    2  C   UNL     1      -7.986  15.098  68.458  1.00  0.00    -0.142 C  
HETATM    3  C   UNL     1      -8.237  15.851  69.702  1.00  0.00     0.067 C  
HETATM    4  C   UNL     1     -10.127  15.509  70.496  1.00  0.00     0.260 C  
HETATM    5  C   UNL     1      -6.622  16.066  70.260  1.00  0.00     0.290 C  
HETATM    6  C   UNL     1      -9.662  18.896  66.177  1.00  0.00    -0.307 C  
HETATM    7  F   UNL     1     -10.573  17.399  64.578  1.00  0.00     0.308 F  
HETATM    8  C   UNL     1      -8.828  15.531  70.861  1.00  0.00     2.501 C  
HETATM    9  C   UNL     1      -8.490  20.389  67.908  1.00  0.00    -0.141 C  
HETATM   10  C   UNL     1     -10.564  17.709  65.905  1.00  0.00    -0.203 C  
HETATM   11  C   UNL     1      -8.253  14.278  71.645  1.00  0.00     5.902 C  
HETATM   12  C   UNL     1      -9.704  19.410  67.638  1.00  0.00    -0.428 C  
HETATM   13  C   UNL     1      -8.842  17.326  71.329  1.00  0.00     8.238 C  
HETATM   14  C   UNL     1     -10.919  20.330  67.677  1.00  0.00     0.246 C  
HETATM   15  C   UNL     1      -9.563  18.372  70.203  1.00  0.00     1.622 C  
HETATM   16  C   UNL     1     -11.343  20.946  66.545  1.00  0.00     3.308 C  
HETATM   17  O   UNL     1     -11.097  21.223  64.177  1.00  0.00     2.117 OA 
HETATM   18  C   UNL     1     -10.692  20.694  65.201  1.00  0.00     0.991 C  
HETATM   19  C   UNL     1      -9.477  19.800  65.193  1.00  0.00     1.355 C  
HETATM   20  O   UNL     1     -10.933  18.564  70.570  1.00  0.00     1.341 OA 
HETATM   21  C   UNL     1      -9.432  18.151  68.572  1.00  0.00    -0.329 C  
HETATM   22  C   UNL     1     -10.068  16.714  68.178  1.00  0.00    -0.267 C  
HETATM   23  F   UNL     1      -8.069  18.031  68.233  1.00  0.00    -0.252 F  
HETATM   24  H   UNL     1     -11.336  19.148  69.939  1.00  0.00     0.000 HD 
HETATM   25  C   UNL     1     -10.069  16.490  66.657  1.00  0.00    -0.299 C  
ENDROOT
BRANCH   4  26
HETATM   26  C   UNL     1     -10.831  15.840  71.944  1.00  0.00     0.553 C  
HETATM   27  O   UNL     1     -10.285  15.918  73.044  1.00  0.00     3.945 OA 
BRANCH  26  28
HETATM   28  S   UNL     1     -12.607  15.938  71.873  1.00  0.00    -0.391 SA 
HETATM   29  F   UNL     1     -14.158  16.639  73.842  1.00  0.00     0.035 F  
HETATM   30  C   UNL     1     -12.855  16.778  73.470  1.00  0.00     0.319 C  
ENDBRANCH  26  28
ENDBRANCH   4  26
BRANCH   4  31
HETATM   31  O   UNL     1     -10.725  14.125  70.253  1.00  0.00     0.253 OA 
BRANCH  31  32
HETATM   32  C   UNL     1     -11.665  13.733  69.353  1.00  0.00    -0.325 C  
HETATM   33  O   UNL     1     -12.147  14.440  68.488  1.00  0.00    -0.318 OA 
BRANCH  32  34
HETATM   34  C   UNL     1     -12.007  12.276  69.528  1.00  0.00    -0.333 C  
HETATM   35  C   UNL     1     -12.713  12.054  70.859  1.00  0.00    -0.291 C  
ENDBRANCH  32  34
ENDBRANCH  31  32
ENDBRANCH   4  31
TORSDOF 5
ENDMDL
MODEL      118
REMARK 921   NORMALIZED FREE ENERGY PREDICTED BY IDOCK:   25.45 KCAL/MOL
REMARK 922        TOTAL FREE ENERGY PREDICTED BY IDOCK:   33.96 KCAL/MOL
REMARK 923 INTER-LIGAND FREE ENERGY PREDICTED BY IDOCK:   12.38 KCAL/MOL
REMARK 924 INTRA-LIGAND FREE ENERGY PREDICTED BY IDOCK:   21.59 KCAL/MOL
REMARK 927      BINDING AFFINITY PREDICTED BY RF-SCORE:    0.00 PKD
ROOT
HETATM    1  C   UNL     1     -10.078   9.897  68.063  1.00  0.00    -0.202 C  
HETATM    2  C   UNL     1      -8.714   9.955  68.472  1.00  0.00    -0.121 C  
HETATM    3  C   UNL     1      -9.806  10.079  69.457  1.00  0.00    -0.249 C  
HETATM    4  C   UNL     1     -11.625   9.363  68.752  1.00  0.00     0.653 C  
HETATM    5  C   UNL     1      -8.899  10.081  70.920  1.00  0.00     1.011 C  
HETATM    6  C   UNL     1      -9.909  14.311  67.047  1.00  0.00    -0.254 C  
HETATM    7  F   UNL     1      -9.322  13.636  64.851  1.00  0.00     0.107 F  
HETATM    8  C   UNL     1     -10.805   9.265  69.820  1.00  0.00    -0.239 C  
HETATM    9  C   UNL     1     -10.361  14.934  69.498  1.00  0.00    -0.168 C  
HETATM   10  C   UNL     1     -10.125  13.335  65.910  1.00  0.00    -0.291 C  
HETATM   11  C   UNL     1     -10.412   7.815  70.326  1.00  0.00    -0.225 C  
HETATM   12  C   UNL     1     -10.884  14.133  68.238  1.00  0.00    -0.259 C  
HETATM   13  C   UNL     1     -11.596  10.673  70.735  1.00  0.00    -0.388 C  
HETATM   14  C   UNL     1     -12.132  14.902  67.819  1.00  0.00    -0.073 C  
HETATM   15  C   UNL     1     -11.859  12.082  69.825  1.00  0.00    -0.331 C  
HETATM   16  C   UNL     1     -12.032  15.938  66.948  1.00  0.00     0.933 C  
HETATM   17  O   UNL     1     -10.636  17.231  65.491  1.00  0.00    -0.580 OA 
HETATM   18  C   UNL     1     -10.717  16.320  66.302  1.00  0.00    -0.185 C  
HETATM   19  C   UNL     1      -9.495  15.560  66.751  1.00  0.00    -0.257 C  
HETATM   20  O   UNL     1     -13.194  12.049  69.309  1.00  0.00     1.361 OA 
HETATM   21  C   UNL     1     -10.807  12.601  68.664  1.00  0.00    -0.249 C  
HETATM   22  C   UNL     1     -10.675  11.462  67.520  1.00  0.00    -0.266 C  
HETATM   23  F   UNL     1      -9.515  12.686  69.219  1.00  0.00     0.228 F  
HETATM   24  H   UNL     1     -13.341  12.837  68.799  1.00  0.00     0.000 HD 
HETATM   25  C   UNL     1      -9.786  11.926  66.354  1.00  0.00    -0.234 C  
ENDROOT
BRANCH   4  26
HETATM   26  C   UNL     1     -13.062   9.004  69.466  1.00  0.00     3.533 C  
HETATM   27  O   UNL     1     -14.060   8.513  68.940  1.00  0.00     8.946 OA 
BRANCH  26  28
HETATM   28  S   UNL     1     -13.177   9.547  71.158  1.00  0.00    -0.199 SA 
HETATM   29  F   UNL     1     -12.739  11.972  71.996  1.00  0.00    -0.377 F  
HETATM   30  C   UNL     1     -13.056  11.335  70.833  1.00  0.00    -0.008 C  
ENDBRANCH  26  28
ENDBRANCH   4  26
BRANCH   4  31
HETATM   31  O   UNL     1     -11.560   8.206  67.757  1.00  0.00     1.082 OA 
BRANCH  31  32
HETATM   32  C   UNL     1     -10.477   7.568  67.241  1.00  0.00    -0.321 C  
HETATM   33  O   UNL     1      -9.370   8.056  67.108  1.00  0.00    -0.138 OA 
BRANCH  32  34
HETATM   34  C   UNL     1     -10.806   6.138  66.894  1.00  0.00    -0.411 C  
HETATM   35  C   UNL     1     -10.156   5.752  65.572  1.00  0.00     0.546 C  
ENDBRANCH  32  34
ENDBRANCH  31  32
ENDBRANCH   4  31
TORSDOF 5
ENDMDL
MODEL      119
REMARK 921   NORMALIZED FREE ENERGY PREDICTED BY IDOCK:   29.27 KCAL/MOL
REMARK 922        TOTAL FREE ENERGY PREDICTED BY IDOCK:   38.90 KCAL/MOL
REMARK 923 INTER-LIGAND FREE ENERGY PREDICTED BY IDOCK:   33.01 KCAL/MOL
REMARK 924 INTRA-LIGAND FREE ENERGY PREDICTED BY IDOCK:    5.88 KCAL/MOL
REMARK 927      BINDING AFFINITY PREDICTED BY RF-SCORE:    0.00 PKD
ROOT
HETATM    1  C   UNL     1      -8.554  13.271  68.131  1.00  0.00    -0.177 C  
HETATM    2  C   UNL     1      -7.312  12.739  67.677  1.00  0.00    -0.144 C  
HETATM    3  C   UNL     1      -8.422  12.983  66.735  1.00  0.00    -0.009 C  
HETATM    4  C   UNL     1      -9.851  14.294  67.482  1.00  0.00    -0.231 C  
HETATM    5  C   UNL     1      -7.636  12.645  65.241  1.00  0.00     4.481 C  
HETATM    6  C   UNL     1      -9.868   9.086  69.275  1.00  0.00    -0.179 C  
HETATM    7  F   UNL     1      -8.989   9.553  71.427  1.00  0.00    -0.203 F  
HETATM    8  C   UNL     1      -9.096  14.086  66.383  1.00  0.00    -0.120 C  
HETATM    9  C   UNL     1     -10.613   8.617  66.862  1.00  0.00    -0.270 C  
HETATM   10  C   UNL     1      -9.685  10.095  70.389  1.00  0.00     0.196 C  
HETATM   11  C   UNL     1      -8.250  15.303  65.820  1.00  0.00     1.795 C  
HETATM   12  C   UNL     1     -10.774   9.570  68.115  1.00  0.00    -0.247 C  
HETATM   13  C   UNL     1     -10.362  13.022  65.541  1.00  0.00    -0.304 C  
HETATM   14  C   UNL     1     -12.190   9.285  68.601  1.00  0.00     2.780 C  
HETATM   15  C   UNL     1     -11.053  11.805  66.502  1.00  0.00    -0.310 C  
HETATM   16  C   UNL     1     -12.414   8.292  69.498  1.00  0.00     2.482 C  
HETATM   17  O   UNL     1     -11.485   6.621  70.944  1.00  0.00    -0.306 OA 
HETATM   18  C   UNL     1     -11.284   7.491  70.109  1.00  0.00    -0.196 C  
HETATM   19  C   UNL     1      -9.896   7.776  69.594  1.00  0.00    -0.182 C  
HETATM   20  O   UNL     1     -12.271  12.305  67.064  1.00  0.00    -0.522 OA 
HETATM   21  C   UNL     1     -10.194  10.974  67.640  1.00  0.00    -0.182 C  
HETATM   22  C   UNL     1      -9.627  12.016  68.743  1.00  0.00     0.004 C  
HETATM   23  F   UNL     1      -9.035  10.440  67.042  1.00  0.00    -0.137 F  
HETATM   24  H   UNL     1     -12.657  11.624  67.602  1.00  0.00     0.000 HD 
HETATM   25  C   UNL     1      -8.902  11.293  69.890  1.00  0.00     1.442 C  
ENDROOT
BRANCH   4  26
HETATM   26  C   UNL     1     -11.107  15.115  66.809  1.00  0.00    -0.307 C  
HETATM   27  O   UNL     1     -11.255  15.423  65.627  1.00  0.00    -0.300 OA 
BRANCH  26  28
HETATM   28  S   UNL     1     -12.280  15.732  67.997  1.00  0.00     0.892 SA 
HETATM   29  F   UNL     1     -14.264  17.331  67.466  1.00  0.00     5.789 F  
HETATM   30  C   UNL     1     -13.452  16.457  66.807  1.00  0.00     7.328 C  
ENDBRANCH  26  28
ENDBRANCH   4  26
BRANCH   4  31
HETATM   31  O   UNL     1      -9.349  15.373  68.439  1.00  0.00    -0.185 OA 
BRANCH  31  32
HETATM   32  C   UNL     1      -8.861  15.253  69.701  1.00  0.00    -0.108 C  
HETATM   33  O   UNL     1      -8.297  16.134  70.323  1.00  0.00     1.033 OA 
BRANCH  32  34
HETATM   34  C   UNL     1      -9.155  13.887  70.268  1.00  0.00     2.888 C  
HETATM   35  C   UNL     1      -9.851  14.013  71.616  1.00  0.00     6.520 C  
ENDBRANCH  32  34
ENDBRANCH  31  32
ENDBRANCH   4  31
TORSDOF 5
ENDMDL
MODEL      120
REMARK 921   NORMALIZED FREE ENERGY PREDICTED BY IDOCK:   30.40 KCAL/MOL
REMARK 922        TOTAL FREE ENERGY PREDICTED BY IDOCK:   40.35 KCAL/MOL
REMARK 923 INTER-LIGAND FREE ENERGY PREDICTED BY IDOCK:   24.88 KCAL/MOL
REMARK 924 INTRA-LIGAND FREE ENERGY PREDICTED BY IDOCK:   15.47 KCAL/MOL
REMARK 927      BINDING AFFINITY PREDICTED BY RF-SCORE:    0.00 PKD
ROOT
HETATM    1  C   UNL     1      -9.569  15.941  69.448  1.00  0.00    -0.265 C  
HETATM    2  C   UNL     1     -10.742  16.146  70.231  1.00  0.00    -0.235 C  
HETATM    3  C   UNL     1     -10.023  14.857  70.266  1.00  0.00     0.342 C  
HETATM    4  C   UNL     1      -8.072  14.992  69.564  1.00  0.00    -0.122 C  
HETATM    5  C   UNL     1     -10.892  14.057  71.519  1.00  0.00     2.718 C  
HETATM    6  C   UNL     1     -12.183  14.882  65.900  1.00  0.00     0.082 C  
HETATM    7  F   UNL     1     -12.061  17.175  65.308  1.00  0.00     1.405 F  
HETATM    8  C   UNL     1      -8.776  14.516  70.613  1.00  0.00     2.483 C  
HETATM    9  C   UNL     1     -12.408  12.464  66.736  1.00  0.00     0.396 C  
HETATM   10  C   UNL     1     -11.335  16.133  65.801  1.00  0.00     0.299 C  
HETATM   11  C   UNL     1      -8.296  14.910  72.072  1.00  0.00     5.747 C  
HETATM   12  C   UNL     1     -11.402  13.609  66.313  1.00  0.00    -0.325 C  
HETATM   13  C   UNL     1      -9.042  12.843  69.856  1.00  0.00     2.954 C  
HETATM   14  C   UNL     1     -10.804  13.096  65.008  1.00  0.00    -0.331 C  
HETATM   15  C   UNL     1      -9.567  12.843  68.242  1.00  0.00    -0.212 C  
HETATM   16  C   UNL     1     -11.408  13.378  63.826  1.00  0.00    -0.206 C  
HETATM   17  O   UNL     1     -13.154  14.546  62.672  1.00  0.00     1.394 OA 
HETATM   18  C   UNL     1     -12.632  14.265  63.741  1.00  0.00     0.298 C  
HETATM   19  C   UNL     1     -13.218  14.739  65.047  1.00  0.00     0.773 C  
HETATM   20  O   UNL     1      -8.422  12.725  67.390  1.00  0.00    -0.172 OA 
HETATM   21  C   UNL     1     -10.611  13.974  67.646  1.00  0.00    -0.249 C  
HETATM   22  C   UNL     1      -9.949  15.443  67.802  1.00  0.00    -0.225 C  
HETATM   23  F   UNL     1     -11.755  14.020  68.467  1.00  0.00    -0.301 F  
HETATM   24  H   UNL     1      -8.715  12.726  66.487  1.00  0.00     0.000 HD 
HETATM   25  C   UNL     1     -10.829  16.535  67.171  1.00  0.00    -0.142 C  
ENDROOT
BRANCH   4  26
HETATM   26  C   UNL     1      -6.769  13.992  69.622  1.00  0.00    -0.064 C  
HETATM   27  O   UNL     1      -5.742  14.135  70.284  1.00  0.00    -0.113 OA 
BRANCH  26  28
HETATM   28  S   UNL     1      -6.847  12.644  68.462  1.00  0.00    -0.097 SA 
HETATM   29  F   UNL     1      -5.217  12.277  66.466  1.00  0.00    -0.016 F  
HETATM   30  C   UNL     1      -5.242  12.943  67.654  1.00  0.00    -0.090 C  
ENDBRANCH  26  28
ENDBRANCH   4  26
BRANCH   4  31
HETATM   31  O   UNL     1      -7.359  16.323  69.792  1.00  0.00    -0.064 OA 
BRANCH  31  32
HETATM   32  C   UNL     1      -7.774  17.422  70.476  1.00  0.00     3.550 C  
HETATM   33  O   UNL     1      -7.050  18.174  71.102  1.00  0.00     3.074 OA 
BRANCH  32  34
HETATM   34  C   UNL     1      -9.258  17.631  70.317  1.00  0.00     2.718 C  
HETATM   35  C   UNL     1      -9.545  18.477  69.085  1.00  0.00    -0.130 C  
ENDBRANCH  32  34
ENDBRANCH  31  32
ENDBRANCH   4  31
TORSDOF 5
ENDMDL
MODEL      121
REMARK 921   NORMALIZED FREE ENERGY PREDICTED BY IDOCK:   39.53 KCAL/MOL
REMARK 922        TOTAL FREE ENERGY PREDICTED BY IDOCK:   52.16 KCAL/MOL
REMARK 923 INTER-LIGAND FREE ENERGY PREDICTED BY IDOCK:   30.11 KCAL/MOL
REMARK 924 INTRA-LIGAND FREE ENERGY PREDICTED BY IDOCK:   22.04 KCAL/MOL
REMARK 927      BINDING AFFINITY PREDICTED BY RF-SCORE:    0.00 PKD
ROOT
HETATM    1  C   UNL     1      -7.886  14.314  69.132  1.00  0.00     0.018 C  
HETATM    2  C   UNL     1      -7.534  14.065  67.773  1.00  0.00    -0.169 C  
HETATM    3  C   UNL     1      -8.369  15.226  68.140  1.00  0.00    -0.149 C  
HETATM    4  C   UNL     1      -8.233  15.724  70.153  1.00  0.00     0.836 C  
HETATM    5  C   UNL     1      -8.472  16.022  66.617  1.00  0.00    -0.323 C  
HETATM    6  C   UNL     1     -11.341  11.410  68.717  1.00  0.00    -0.334 C  
HETATM    7  F   UNL     1      -9.849   9.744  69.508  1.00  0.00    -0.171 F  
HETATM    8  C   UNL     1      -8.161  16.288  68.929  1.00  0.00    -0.231 C  
HETATM    9  C   UNL     1     -12.814  13.246  67.690  1.00  0.00     1.566 C  
HETATM   10  C   UNL     1     -10.225  11.044  69.673  1.00  0.00     0.112 C  
HETATM   11  C   UNL     1      -6.905  17.198  68.601  1.00  0.00    -0.197 C  
HETATM   12  C   UNL     1     -11.932  12.826  68.934  1.00  0.00    -0.286 C  
HETATM   13  C   UNL     1      -9.973  16.681  68.847  1.00  0.00    -0.271 C  
HETATM   14  C   UNL     1     -12.953  12.639  70.050  1.00  0.00     0.719 C  
HETATM   15  C   UNL     1     -11.018  15.417  69.285  1.00  0.00    -0.261 C  
HETATM   16  C   UNL     1     -13.546  11.432  70.235  1.00  0.00     1.718 C  
HETATM   17  O   UNL     1     -13.679   9.123  69.605  1.00  0.00     2.515 OA 
HETATM   18  C   UNL     1     -13.169  10.218  69.413  1.00  0.00     1.900 C  
HETATM   19  C   UNL     1     -12.174  10.434  68.300  1.00  0.00     1.247 C  
HETATM   20  O   UNL     1     -11.346  15.557  70.672  1.00  0.00    -0.283 OA 
HETATM   21  C   UNL     1     -10.703  13.837  68.927  1.00  0.00    -0.227 C  
HETATM   22  C   UNL     1      -9.308  13.402  69.627  1.00  0.00     1.607 C  
HETATM   23  F   UNL     1     -10.448  13.721  67.546  1.00  0.00    -0.238 F  
HETATM   24  H   UNL     1     -11.930  14.850  70.917  1.00  0.00     0.000 HD 
HETATM   25  C   UNL     1      -9.008  11.908  69.416  1.00  0.00     0.933 C  
ENDROOT
BRANCH   4  26
HETATM   26  C   UNL     1      -8.698  17.030  71.037  1.00  0.00     6.417 C  
HETATM   27  O   UNL     1      -8.106  17.544  71.986  1.00  0.00    11.171 OA 
BRANCH  26  28
HETATM   28  S   UNL     1     -10.320  17.635  70.624  1.00  0.00     2.386 SA 
HETATM   29  F   UNL     1     -12.567  16.552  71.369  1.00  0.00    -0.214 F  
HETATM   30  C   UNL     1     -11.260  16.560  71.755  1.00  0.00     0.352 C  
ENDBRANCH  26  28
ENDBRANCH   4  26
BRANCH   4  31
HETATM   31  O   UNL     1      -6.896  15.441  70.833  1.00  0.00     0.536 OA 
BRANCH  31  32
HETATM   32  C   UNL     1      -6.075  14.364  70.718  1.00  0.00    -0.171 C  
HETATM   33  O   UNL     1      -6.037  13.424  71.491  1.00  0.00    -0.200 OA 
BRANCH  32  34
HETATM   34  C   UNL     1      -5.240  14.451  69.467  1.00  0.00    -0.090 C  
HETATM   35  C   UNL     1      -5.943  13.751  68.311  1.00  0.00    -0.108 C  
ENDBRANCH  32  34
ENDBRANCH  31  32
ENDBRANCH   4  31
TORSDOF 5
ENDMDL
MODEL      122
REMARK 921   NORMALIZED FREE ENERGY PREDICTED BY IDOCK:   48.23 KCAL/MOL
REMARK 922        TOTAL FREE ENERGY PREDICTED BY IDOCK:   63.40 KCAL/MOL
REMARK 923 INTER-LIGAND FREE ENERGY PREDICTED BY IDOCK:   55.79 KCAL/MOL
REMARK 924 INTRA-LIGAND FREE ENERGY PREDICTED BY IDOCK:    7.60 KCAL/MOL
REMARK 927      BINDING AFFINITY PREDICTED BY RF-SCORE:    0.00 PKD
ROOT
HETATM    1  C   UNL     1      -9.653  14.350  68.839  1.00  0.00    -0.123 C  
HETATM    2  C   UNL     1      -9.126  14.702  67.562  1.00  0.00    -0.192 C  
HETATM    3  C   UNL     1     -10.547  14.935  67.887  1.00  0.00    -0.254 C  
HETATM    4  C   UNL     1     -10.928  14.930  69.930  1.00  0.00    -0.232 C  
HETATM    5  C   UNL     1     -11.043  15.800  66.483  1.00  0.00    -0.079 C  
HETATM    6  C   UNL     1     -10.237  10.102  67.372  1.00  0.00    -0.267 C  
HETATM    7  F   UNL     1      -8.078   9.655  68.245  1.00  0.00    -0.100 F  
HETATM    8  C   UNL     1     -11.161  15.668  68.824  1.00  0.00    -0.332 C  
HETATM    9  C   UNL     1     -12.480  10.740  66.294  1.00  0.00     4.750 C  
HETATM   10  C   UNL     1      -9.237  10.330  68.486  1.00  0.00    -0.144 C  
HETATM   11  C   UNL     1     -10.817  17.215  68.875  1.00  0.00    -0.172 C  
HETATM   12  C   UNL     1     -11.637  10.713  67.633  1.00  0.00     0.020 C  
HETATM   13  C   UNL     1     -12.759  14.815  68.419  1.00  0.00     0.831 C  
HETATM   14  C   UNL     1     -12.350   9.668  68.482  1.00  0.00     2.908 C  
HETATM   15  C   UNL     1     -12.719  13.120  68.476  1.00  0.00     1.120 C  
HETATM   16  C   UNL     1     -11.995   8.361  68.394  1.00  0.00     2.905 C  
HETATM   17  O   UNL     1     -10.503   6.726  67.474  1.00  0.00    -0.181 OA 
HETATM   18  C   UNL     1     -10.844   7.898  67.526  1.00  0.00    -0.082 C  
HETATM   19  C   UNL     1     -10.171   8.947  66.677  1.00  0.00    -0.338 C  
HETATM   20  O   UNL     1     -13.158  12.696  69.772  1.00  0.00     0.815 OA 
HETATM   21  C   UNL     1     -11.403  12.243  68.001  1.00  0.00    -0.293 C  
HETATM   22  C   UNL     1     -10.132  12.658  68.915  1.00  0.00     0.047 C  
HETATM   23  F   UNL     1     -11.036  12.636  66.699  1.00  0.00    -0.254 F  
HETATM   24  H   UNL     1     -13.135  11.747  69.804  1.00  0.00     0.000 HD 
HETATM   25  C   UNL     1      -8.895  11.802  68.592  1.00  0.00    -0.062 C  
ENDROOT
BRANCH   4  26
HETATM   26  C   UNL     1     -12.210  15.390  70.850  1.00  0.00    -0.373 C  
HETATM   27  O   UNL     1     -12.357  15.237  72.062  1.00  0.00    -0.316 OA 
BRANCH  26  28
HETATM   28  S   UNL     1     -13.573  16.041  69.908  1.00  0.00     3.137 SA 
HETATM   29  F   UNL     1     -14.280  18.544  69.813  1.00  0.00    17.596 F  
HETATM   30  C   UNL     1     -13.177  17.806  70.122  1.00  0.00    15.173 C  
ENDBRANCH  26  28
ENDBRANCH   4  26
BRANCH   4  31
HETATM   31  O   UNL     1      -9.799  15.424  70.832  1.00  0.00     0.513 OA 
BRANCH  31  32
HETATM   32  C   UNL     1      -8.682  16.129  70.514  1.00  0.00     2.360 C  
HETATM   33  O   UNL     1      -8.661  17.161  69.870  1.00  0.00     0.941 OA 
BRANCH  32  34
HETATM   34  C   UNL     1      -7.452  15.494  71.112  1.00  0.00     2.603 C  
HETATM   35  C   UNL     1      -7.643  13.988  71.239  1.00  0.00     3.869 C  
ENDBRANCH  32  34
ENDBRANCH  31  32
ENDBRANCH   4  31
TORSDOF 5
ENDMDL
MODEL      123
REMARK 921   NORMALIZED FREE ENERGY PREDICTED BY IDOCK:   49.23 KCAL/MOL
REMARK 922        TOTAL FREE ENERGY PREDICTED BY IDOCK:   64.69 KCAL/MOL
REMARK 923 INTER-LIGAND FREE ENERGY PREDICTED BY IDOCK:   59.41 KCAL/MOL
REMARK 924 INTRA-LIGAND FREE ENERGY PREDICTED BY IDOCK:    5.28 KCAL/MOL
REMARK 927      BINDING AFFINITY PREDICTED BY RF-SCORE:    0.00 PKD
ROOT
HETATM    1  C   UNL     1      -9.091  15.371  69.156  1.00  0.00    -0.243 C  
HETATM    2  C   UNL     1      -8.163  14.716  68.294  1.00  0.00    -0.146 C  
HETATM    3  C   UNL     1      -7.703  15.689  69.305  1.00  0.00    -0.223 C  
HETATM    4  C   UNL     1      -9.101  16.029  70.805  1.00  0.00     2.646 C  
HETATM    5  C   UNL     1      -5.998  15.513  69.144  1.00  0.00    -0.108 C  
HETATM    6  C   UNL     1      -9.857  18.442  65.912  1.00  0.00    -0.021 C  
HETATM    7  F   UNL     1     -11.641  17.046  65.210  1.00  0.00     0.186 F  
HETATM    8  C   UNL     1      -7.794  15.731  70.640  1.00  0.00     2.003 C  
HETATM    9  C   UNL     1      -7.787  19.781  66.635  1.00  0.00    -0.320 C  
HETATM   10  C   UNL     1     -11.005  17.538  66.311  1.00  0.00     0.257 C  
HETATM   11  C   UNL     1      -7.203  14.501  71.446  1.00  0.00     2.132 C  
HETATM   12  C   UNL     1      -9.168  19.163  67.099  1.00  0.00    -0.340 C  
HETATM   13  C   UNL     1      -7.249  17.505  70.602  1.00  0.00     3.051 C  
HETATM   14  C   UNL     1     -10.040  20.388  67.351  1.00  0.00    -0.500 C  
HETATM   15  C   UNL     1      -8.157  18.530  69.599  1.00  0.00     0.725 C  
HETATM   16  C   UNL     1     -10.773  20.921  66.341  1.00  0.00     1.553 C  
HETATM   17  O   UNL     1     -11.512  20.752  64.067  1.00  0.00     1.371 OA 
HETATM   18  C   UNL     1     -10.823  20.291  64.965  1.00  0.00     0.634 C  
HETATM   19  C   UNL     1      -9.933  19.095  64.734  1.00  0.00     3.300 C  
HETATM   20  O   UNL     1      -9.171  19.161  70.388  1.00  0.00     1.342 OA 
HETATM   21  C   UNL     1      -8.780  18.036  68.153  1.00  0.00    -0.272 C  
HETATM   22  C   UNL     1      -9.796  16.800  68.407  1.00  0.00    -0.253 C  
HETATM   23  F   UNL     1      -7.747  17.479  67.373  1.00  0.00    -0.187 F  
HETATM   24  H   UNL     1      -9.679  19.734  69.827  1.00  0.00     0.000 HD 
HETATM   25  C   UNL     1     -10.491  16.358  67.109  1.00  0.00    -0.297 C  
ENDROOT
BRANCH   4  26
HETATM   26  C   UNL     1      -9.038  16.764  72.274  1.00  0.00    12.295 C  
HETATM   27  O   UNL     1      -9.843  17.565  72.748  1.00  0.00     7.753 OA 
BRANCH  26  28
HETATM   28  S   UNL     1      -7.536  16.442  73.174  1.00  0.00    14.647 SA 
HETATM   29  F   UNL     1      -5.265  17.658  72.799  1.00  0.00     0.831 F  
HETATM   30  C   UNL     1      -6.589  17.871  72.558  1.00  0.00     5.073 C  
ENDBRANCH  26  28
ENDBRANCH   4  26
BRANCH   4  31
HETATM   31  O   UNL     1     -10.008  14.855  71.166  1.00  0.00     0.929 OA 
BRANCH  31  32
HETATM   32  C   UNL     1     -11.308  14.632  70.840  1.00  0.00    -0.095 C  
HETATM   33  O   UNL     1     -11.931  15.235  69.985  1.00  0.00    -0.300 OA 
BRANCH  32  34
HETATM   34  C   UNL     1     -11.880  13.492  71.643  1.00  0.00     0.874 C  
HETATM   35  C   UNL     1     -11.932  13.859  73.120  1.00  0.00     1.113 C  
ENDBRANCH  32  34
ENDBRANCH  31  32
ENDBRANCH   4  31
TORSDOF 5
ENDMDL
MODEL      124
REMARK 921   NORMALIZED FREE ENERGY PREDICTED BY IDOCK:   66.21 KCAL/MOL
REMARK 922        TOTAL FREE ENERGY PREDICTED BY IDOCK:   86.63 KCAL/MOL
REMARK 923 INTER-LIGAND FREE ENERGY PREDICTED BY IDOCK:   56.39 KCAL/MOL
REMARK 924 INTRA-LIGAND FREE ENERGY PREDICTED BY IDOCK:   30.24 KCAL/MOL
REMARK 927      BINDING AFFINITY PREDICTED BY RF-SCORE:    0.00 PKD
ROOT
HETATM    1  C   UNL     1     -11.846  12.759  70.703  1.00  0.00    -0.026 C  
HETATM    2  C   UNL     1     -12.288  12.075  71.874  1.00  0.00     0.443 C  
HETATM    3  C   UNL     1     -11.344  13.206  71.967  1.00  0.00     4.174 C  
HETATM    4  C   UNL     1     -11.332  14.401  70.267  1.00  0.00    -0.132 C  
HETATM    5  C   UNL     1     -11.258  13.391  73.677  1.00  0.00     7.246 C  
HETATM    6  C   UNL     1      -8.665   9.584  70.113  1.00  0.00    -0.258 C  
HETATM    7  F   UNL     1     -10.243   8.461  68.744  1.00  0.00    -0.188 F  
HETATM    8  C   UNL     1     -11.423  14.494  71.611  1.00  0.00     0.169 C  
HETATM    9  C   UNL     1      -7.104  10.784  71.763  1.00  0.00     3.889 C  
HETATM   10  C   UNL     1      -9.755   9.692  69.066  1.00  0.00    -0.169 C  
HETATM   11  C   UNL     1     -12.616  15.342  72.219  1.00  0.00    -0.436 C  
HETATM   12  C   UNL     1      -7.951  10.922  70.433  1.00  0.00     1.696 C  
HETATM   13  C   UNL     1      -9.592  14.658  71.866  1.00  0.00     4.795 C  
HETATM   14  C   UNL     1      -6.890  11.050  69.346  1.00  0.00    -0.119 C  
HETATM   15  C   UNL     1      -8.632  13.542  71.022  1.00  0.00     7.782 C  
HETATM   16  C   UNL     1      -6.388   9.939  68.750  1.00  0.00    -0.045 C  
HETATM   17  O   UNL     1      -6.477   7.556  68.508  1.00  0.00    -0.042 OA 
HETATM   18  C   UNL     1      -6.906   8.552  69.071  1.00  0.00    -0.056 C  
HETATM   19  C   UNL     1      -7.937   8.450  70.167  1.00  0.00    -0.102 C  
HETATM   20  O   UNL     1      -8.220  14.136  69.786  1.00  0.00    -0.070 OA 
HETATM   21  C   UNL     1      -9.092  11.975  70.780  1.00  0.00     8.076 C  
HETATM   22  C   UNL     1     -10.478  11.953  69.942  1.00  0.00     0.932 C  
HETATM   23  F   UNL     1      -9.428  11.398  72.021  1.00  0.00     9.078 F  
HETATM   24  H   UNL     1      -7.683  13.511  69.314  1.00  0.00     0.000 HD 
HETATM   25  C   UNL     1     -10.910  10.519  69.594  1.00  0.00    -0.320 C  
ENDROOT
BRANCH   4  26
HETATM   26  C   UNL     1     -10.717  15.886  69.924  1.00  0.00    -0.334 C  
HETATM   27  O   UNL     1     -10.775  16.902  70.616  1.00  0.00     0.169 OA 
BRANCH  26  28
HETATM   28  S   UNL     1     -10.032  16.018  68.286  1.00  0.00    -0.224 SA 
HETATM   29  F   UNL     1     -10.313  18.059  66.694  1.00  0.00    -0.324 F  
HETATM   30  C   UNL     1     -10.396  17.784  68.026  1.00  0.00    -0.393 C  
ENDBRANCH  26  28
ENDBRANCH   4  26
BRANCH   4  31
HETATM   31  O   UNL     1     -12.650  14.508  69.504  1.00  0.00    -0.200 OA 
BRANCH  31  32
HETATM   32  C   UNL     1     -13.223  13.633  68.637  1.00  0.00     3.067 C  
HETATM   33  O   UNL     1     -14.078  13.913  67.817  1.00  0.00     7.802 OA 
BRANCH  32  34
HETATM   34  C   UNL     1     -12.623  12.257  68.780  1.00  0.00     0.893 C  
HETATM   35  C   UNL     1     -11.792  12.173  70.053  1.00  0.00    -0.383 C  
ENDBRANCH  32  34
ENDBRANCH  31  32
ENDBRANCH   4  31
TORSDOF 5
ENDMDL
MODEL      125
REMARK 921   NORMALIZED FREE ENERGY PREDICTED BY IDOCK:   71.72 KCAL/MOL
REMARK 922        TOTAL FREE ENERGY PREDICTED BY IDOCK:   93.76 KCAL/MOL
REMARK 923 INTER-LIGAND FREE ENERGY PREDICTED BY IDOCK:   91.17 KCAL/MOL
REMARK 924 INTRA-LIGAND FREE ENERGY PREDICTED BY IDOCK:    2.59 KCAL/MOL
REMARK 927      BINDING AFFINITY PREDICTED BY RF-SCORE:    0.00 PKD
ROOT
HETATM    1  C   UNL     1      -9.976   5.142  67.240  1.00  0.00    -0.218 C  
HETATM    2  C   UNL     1     -10.368   4.066  66.391  1.00  0.00     0.334 C  
HETATM    3  C   UNL     1      -9.004   4.626  66.326  1.00  0.00    -0.118 C  
HETATM    4  C   UNL     1      -8.487   5.715  68.019  1.00  0.00    -0.102 C  
HETATM    5  C   UNL     1      -8.271   3.518  65.230  1.00  0.00    -0.097 C  
HETATM    6  C   UNL     1     -11.786   8.065  64.286  1.00  0.00    19.556 C  
HETATM    7  F   UNL     1     -13.776   7.905  65.566  1.00  0.00    13.036 F  
HETATM    8  C   UNL     1      -8.016   4.732  67.223  1.00  0.00    -0.102 C  
HETATM    9  C   UNL     1      -9.646   8.016  62.866  1.00  0.00     3.065 C  
HETATM   10  C   UNL     1     -12.418   7.970  65.659  1.00  0.00    14.288 C  
HETATM   11  C   UNL     1      -7.515   3.394  67.911  1.00  0.00    -0.058 C  
HETATM   12  C   UNL     1     -10.253   8.290  64.301  1.00  0.00     5.490 C  
HETATM   13  C   UNL     1      -7.124   5.890  66.079  1.00  0.00    -0.074 C  
HETATM   14  C   UNL     1     -10.097   9.796  64.473  1.00  0.00     0.412 C  
HETATM   15  C   UNL     1      -8.019   7.233  65.553  1.00  0.00    -0.122 C  
HETATM   16  C   UNL     1     -11.076  10.635  64.050  1.00  0.00     0.838 C  
HETATM   17  O   UNL     1     -13.273  10.878  63.124  1.00  0.00     1.356 OA 
HETATM   18  C   UNL     1     -12.378  10.122  63.472  1.00  0.00     7.079 C  
HETATM   19  C   UNL     1     -12.498   8.630  63.290  1.00  0.00    21.552 C  
HETATM   20  O   UNL     1      -7.738   8.337  66.421  1.00  0.00    -0.089 OA 
HETATM   21  C   UNL     1      -9.636   7.155  65.231  1.00  0.00     1.245 C  
HETATM   22  C   UNL     1     -10.424   6.709  66.574  1.00  0.00    -0.117 C  
HETATM   23  F   UNL     1      -9.873   6.102  64.325  1.00  0.00     1.336 F  
HETATM   24  H   UNL     1      -8.238   9.088  66.127  1.00  0.00     0.000 HD 
HETATM   25  C   UNL     1     -11.948   6.716  66.369  1.00  0.00     3.365 C  
ENDROOT
BRANCH   4  26
HETATM   26  C   UNL     1      -7.069   6.309  68.602  1.00  0.00    -0.082 C  
HETATM   27  O   UNL     1      -5.946   5.818  68.488  1.00  0.00    -0.018 OA 
BRANCH  26  28
HETATM   28  S   UNL     1      -7.264   7.746  69.634  1.00  0.00    -0.076 SA 
HETATM   29  F   UNL     1      -5.320   9.179  70.605  1.00  0.00    -0.026 F  
HETATM   30  C   UNL     1      -5.530   8.301  69.584  1.00  0.00    -0.026 C  
ENDBRANCH  26  28
ENDBRANCH   4  26
BRANCH   4  31
HETATM   31  O   UNL     1      -9.113   5.261  69.335  1.00  0.00    -0.101 OA 
BRANCH  31  32
HETATM   32  C   UNL     1      -8.573   4.530  70.345  1.00  0.00    -0.078 C  
HETATM   33  O   UNL     1      -8.092   3.418  70.227  1.00  0.00    -0.046 OA 
BRANCH  32  34
HETATM   34  C   UNL     1      -8.598   5.297  71.642  1.00  0.00    -0.135 C  
HETATM   35  C   UNL     1      -8.212   4.388  72.801  1.00  0.00    -0.098 C  
ENDBRANCH  32  34
ENDBRANCH  31  32
ENDBRANCH   4  31
TORSDOF 5
ENDMDL
MODEL      126
REMARK 921   NORMALIZED FREE ENERGY PREDICTED BY IDOCK:   72.80 KCAL/MOL
REMARK 922        TOTAL FREE ENERGY PREDICTED BY IDOCK:   95.15 KCAL/MOL
REMARK 923 INTER-LIGAND FREE ENERGY PREDICTED BY IDOCK:   81.01 KCAL/MOL
REMARK 924 INTRA-LIGAND FREE ENERGY PREDICTED BY IDOCK:   14.14 KCAL/MOL
REMARK 927      BINDING AFFINITY PREDICTED BY RF-SCORE:    0.00 PKD
ROOT
HETATM    1  C   UNL     1      -9.454  14.674  67.166  1.00  0.00    -0.234 C  
HETATM    2  C   UNL     1      -9.189  14.102  68.445  1.00  0.00    -0.203 C  
HETATM    3  C   UNL     1     -10.333  13.645  67.631  1.00  0.00    -0.239 C  
HETATM    4  C   UNL     1     -10.159  14.151  65.623  1.00  0.00    -0.328 C  
HETATM    5  C   UNL     1     -10.876  12.319  68.586  1.00  0.00    -0.268 C  
HETATM    6  C   UNL     1     -11.692  18.053  69.196  1.00  0.00     3.478 C  
HETATM    7  F   UNL     1      -9.632  19.229  69.190  1.00  0.00    -0.414 F  
HETATM    8  C   UNL     1     -10.425  13.091  66.416  1.00  0.00    -0.285 C  
HETATM    9  C   UNL     1     -13.820  16.620  69.324  1.00  0.00     6.669 C  
HETATM   10  C   UNL     1     -10.420  18.400  68.450  1.00  0.00    -0.249 C  
HETATM   11  C   UNL     1      -9.614  11.752  66.166  1.00  0.00    -0.250 C  
HETATM   12  C   UNL     1     -12.714  17.231  68.371  1.00  0.00     4.485 C  
HETATM   13  C   UNL     1     -12.257  13.388  66.440  1.00  0.00    -0.435 C  
HETATM   14  C   UNL     1     -13.476  18.279  67.567  1.00  0.00     9.199 C  
HETATM   15  C   UNL     1     -12.736  14.987  66.746  1.00  0.00     1.229 C  
HETATM   16  C   UNL     1     -13.582  19.549  68.032  1.00  0.00     8.350 C  
HETATM   17  O   UNL     1     -12.964  21.152  69.703  1.00  0.00     4.266 OA 
HETATM   18  C   UNL     1     -12.896  19.998  69.304  1.00  0.00    11.003 C  
HETATM   19  C   UNL     1     -12.170  18.938  70.094  1.00  0.00    12.762 C  
HETATM   20  O   UNL     1     -12.938  15.652  65.494  1.00  0.00     1.378 OA 
HETATM   21  C   UNL     1     -11.928  15.973  67.795  1.00  0.00     0.507 C  
HETATM   22  C   UNL     1     -10.401  16.153  67.284  1.00  0.00    -0.287 C  
HETATM   23  F   UNL     1     -11.803  15.319  69.037  1.00  0.00    -0.302 F  
HETATM   24  H   UNL     1     -13.205  16.546  65.666  1.00  0.00     0.000 HD 
HETATM   25  C   UNL     1      -9.620  17.145  68.163  1.00  0.00    -0.270 C  
ENDROOT
BRANCH   4  26
HETATM   26  C   UNL     1     -10.953  13.688  64.260  1.00  0.00    -0.300 C  
HETATM   27  O   UNL     1     -11.198  12.542  63.886  1.00  0.00    -0.369 OA 
BRANCH  26  28
HETATM   28  S   UNL     1     -11.344  15.037  63.165  1.00  0.00     3.973 SA 
HETATM   29  F   UNL     1     -13.161  16.850  63.597  1.00  0.00     2.706 F  
HETATM   30  C   UNL     1     -12.418  15.958  64.312  1.00  0.00     0.506 C  
ENDBRANCH  26  28
ENDBRANCH   4  26
BRANCH   4  31
HETATM   31  O   UNL     1      -8.742  14.220  65.061  1.00  0.00     2.283 OA 
BRANCH  31  32
HETATM   32  C   UNL     1      -7.551  14.257  65.714  1.00  0.00     5.002 C  
HETATM   33  O   UNL     1      -6.671  15.077  65.526  1.00  0.00     6.302 OA 
BRANCH  32  34
HETATM   34  C   UNL     1      -7.470  13.170  66.756  1.00  0.00     0.598 C  
HETATM   35  C   UNL     1      -6.819  11.924  66.171  1.00  0.00     0.747 C  
ENDBRANCH  32  34
ENDBRANCH  31  32
ENDBRANCH   4  31
TORSDOF 5
ENDMDL
