MODEL        1
REMARK 921   NORMALIZED FREE ENERGY PREDICTED BY IDOCK:   -8.70 KCAL/MOL
REMARK 922        TOTAL FREE ENERGY PREDICTED BY IDOCK:   -9.75 KCAL/MOL
REMARK 923 INTER-LIGAND FREE ENERGY PREDICTED BY IDOCK:   -9.72 KCAL/MOL
REMARK 924 INTRA-LIGAND FREE ENERGY PREDICTED BY IDOCK:   -0.03 KCAL/MOL
REMARK 927      BINDING AFFINITY PREDICTED BY RF-SCORE:    0.00 PKD
ROOT
HETATM    1  C   UNL     1      -6.949  15.927  67.741  1.00  0.00    -0.170 C  
HETATM    2  C   UNL     1      -7.896  17.064  68.142  1.00  0.00    -0.196 C  
HETATM    3  C   UNL     1      -9.139  16.664  68.933  1.00  0.00    -0.238 C  
HETATM    4  C   UNL     1     -10.207  16.437  67.873  1.00  0.00    -0.268 C  
HETATM    5  C   UNL     1      -9.996  15.085  67.120  1.00  0.00    -0.237 C  
HETATM    6  C   UNL     1      -9.878  13.908  68.091  1.00  0.00    -0.240 C  
HETATM    7  C   UNL     1      -9.594  12.650  67.313  1.00  0.00    -0.203 C  
HETATM    8  C   UNL     1     -10.829  12.298  66.538  1.00  0.00    -0.297 C  
HETATM    9  F   UNL     1      -8.543  12.885  66.480  1.00  0.00    -0.159 F  
HETATM   10  C   UNL     1     -10.992  10.985  66.257  1.00  0.00    -0.184 C  
HETATM   11  C   UNL     1     -10.129  10.643  65.072  1.00  0.00    -0.321 C  
HETATM   12  O   UNL     1      -9.635   9.533  64.951  1.00  0.00    -0.246 OA 
HETATM   13  C   UNL     1      -9.978  11.710  64.021  1.00  0.00    -0.328 C  
HETATM   14  C   UNL     1     -10.496  12.944  64.207  1.00  0.00    -0.430 C  
HETATM   15  C   UNL     1     -11.247  13.358  65.485  1.00  0.00    -0.303 C  
HETATM   16  C   UNL     1     -12.760  13.147  65.175  1.00  0.00    -0.468 C  
HETATM   17  C   UNL     1     -11.067  14.876  66.033  1.00  0.00    -0.334 C  
HETATM   18  F   UNL     1     -12.273  15.198  66.632  1.00  0.00    -0.125 F  
HETATM   19  C   UNL     1     -10.790  15.993  64.990  1.00  0.00    -0.404 C  
HETATM   20  C   UNL     1     -10.780  17.424  65.593  1.00  0.00    -0.113 C  
HETATM   21  O   UNL     1     -11.760  15.971  63.936  1.00  0.00    -1.248 OA 
HETATM   22  C   UNL     1     -10.047  17.695  66.958  1.00  0.00    -0.330 C  
HETATM   23  H   UNL     1     -11.590  16.654  63.297  1.00  0.00     0.000 HD 
HETATM   24  C   UNL     1      -8.452  17.945  66.953  1.00  0.00    -0.244 C  
HETATM   25  C   UNL     1     -10.786  18.916  67.573  1.00  0.00    -0.509 C  
HETATM   26  H   UNL     1      -8.310  18.009  64.977  1.00  0.00     0.000 HD 
HETATM   27  O   UNL     1      -7.976  17.480  65.692  1.00  0.00    -0.512 OA 
ENDROOT
BRANCH  24  28
HETATM   28  C   UNL     1      -7.844  19.361  67.336  1.00  0.00    -0.255 C  
HETATM   29  O   UNL     1      -7.955  20.385  66.680  1.00  0.00    -0.274 OA 
BRANCH  28  30
HETATM   30  S   UNL     1      -7.169  19.461  68.978  1.00  0.00    -0.344 SA 
HETATM   31  C   UNL     1      -5.921  20.742  68.686  1.00  0.00    -0.346 C  
HETATM   32  F   UNL     1      -5.371  21.103  69.880  1.00  0.00    -0.393 F  
ENDBRANCH  28  30
ENDBRANCH  24  28
TORSDOF 2
ENDMDL
MODEL        2
REMARK 921   NORMALIZED FREE ENERGY PREDICTED BY IDOCK:   -7.26 KCAL/MOL
REMARK 922        TOTAL FREE ENERGY PREDICTED BY IDOCK:   -8.14 KCAL/MOL
REMARK 923 INTER-LIGAND FREE ENERGY PREDICTED BY IDOCK:   -7.79 KCAL/MOL
REMARK 924 INTRA-LIGAND FREE ENERGY PREDICTED BY IDOCK:   -0.35 KCAL/MOL
REMARK 927      BINDING AFFINITY PREDICTED BY RF-SCORE:    0.00 PKD
ROOT
HETATM    1  C   UNL     1     -11.683  15.904  64.800  1.00  0.00    -0.039 C  
HETATM    2  C   UNL     1     -11.861  14.619  65.614  1.00  0.00    -0.273 C  
HETATM    3  C   UNL     1     -12.033  14.790  67.122  1.00  0.00    -0.224 C  
HETATM    4  C   UNL     1     -10.620  14.692  67.679  1.00  0.00    -0.256 C  
HETATM    5  C   UNL     1      -9.802  15.995  67.413  1.00  0.00    -0.236 C  
HETATM    6  C   UNL     1     -10.540  17.240  67.913  1.00  0.00    -0.384 C  
HETATM    7  C   UNL     1      -9.743  18.467  67.555  1.00  0.00    -0.297 C  
HETATM    8  C   UNL     1      -8.504  18.474  68.400  1.00  0.00    -0.352 C  
HETATM    9  F   UNL     1      -9.433  18.409  66.230  1.00  0.00    -0.298 F  
HETATM   10  C   UNL     1      -7.975  19.692  68.657  1.00  0.00    -0.335 C  
HETATM   11  C   UNL     1      -7.180  20.126  67.455  1.00  0.00    -0.285 C  
HETATM   12  O   UNL     1      -7.085  21.306  67.156  1.00  0.00    -0.491 OA 
HETATM   13  C   UNL     1      -6.456  19.043  66.702  1.00  0.00    -0.202 C  
HETATM   14  C   UNL     1      -6.621  17.743  67.028  1.00  0.00    -0.192 C  
HETATM   15  C   UNL     1      -7.556  17.270  68.155  1.00  0.00    -0.211 C  
HETATM   16  C   UNL     1      -6.653  17.114  69.417  1.00  0.00    -0.220 C  
HETATM   17  C   UNL     1      -8.366  15.876  67.958  1.00  0.00    -0.160 C  
HETATM   18  F   UNL     1      -8.494  15.340  69.229  1.00  0.00    -0.182 F  
HETATM   19  C   UNL     1      -7.706  14.774  67.086  1.00  0.00    -0.116 C  
HETATM   20  C   UNL     1      -8.486  13.431  67.079  1.00  0.00    -0.137 C  
HETATM   21  O   UNL     1      -6.369  14.499  67.522  1.00  0.00    -0.292 OA 
HETATM   22  C   UNL     1     -10.053  13.435  66.940  1.00  0.00    -0.255 C  
HETATM   23  H   UNL     1      -5.965  13.824  66.988  1.00  0.00     0.000 HD 
HETATM   24  C   UNL     1     -10.708  13.548  65.468  1.00  0.00    -0.290 C  
HETATM   25  C   UNL     1     -10.520  12.130  67.643  1.00  0.00    -0.225 C  
HETATM   26  H   UNL     1      -8.980  13.367  64.515  1.00  0.00     0.000 HD 
HETATM   27  O   UNL     1      -9.673  14.010  64.602  1.00  0.00    -0.016 OA 
ENDROOT
BRANCH  24  28
HETATM   28  C   UNL     1     -11.518  12.337  64.837  1.00  0.00    -0.332 C  
HETATM   29  O   UNL     1     -12.706  12.112  65.002  1.00  0.00    -0.498 OA 
BRANCH  28  30
HETATM   30  S   UNL     1     -10.630  11.411  63.605  1.00  0.00    -0.410 SA 
HETATM   31  C   UNL     1      -9.730  10.284  64.702  1.00  0.00    -0.333 C  
HETATM   32  F   UNL     1      -9.086   9.351  63.944  1.00  0.00    -0.251 F  
ENDBRANCH  28  30
ENDBRANCH  24  28
TORSDOF 2
ENDMDL
MODEL        3
REMARK 921   NORMALIZED FREE ENERGY PREDICTED BY IDOCK:   -7.16 KCAL/MOL
REMARK 922        TOTAL FREE ENERGY PREDICTED BY IDOCK:   -8.03 KCAL/MOL
REMARK 923 INTER-LIGAND FREE ENERGY PREDICTED BY IDOCK:   -7.67 KCAL/MOL
REMARK 924 INTRA-LIGAND FREE ENERGY PREDICTED BY IDOCK:   -0.36 KCAL/MOL
REMARK 927      BINDING AFFINITY PREDICTED BY RF-SCORE:    0.00 PKD
ROOT
HETATM    1  C   UNL     1      -7.870  15.672  69.537  1.00  0.00    -0.180 C  
HETATM    2  C   UNL     1      -8.713  16.906  69.199  1.00  0.00    -0.060 C  
HETATM    3  C   UNL     1     -10.219  16.779  69.420  1.00  0.00    -0.225 C  
HETATM    4  C   UNL     1     -10.761  16.307  68.078  1.00  0.00    -0.331 C  
HETATM    5  C   UNL     1     -10.459  14.795  67.832  1.00  0.00    -0.246 C  
HETATM    6  C   UNL     1     -10.940  13.923  68.994  1.00  0.00    -0.281 C  
HETATM    7  C   UNL     1     -10.548  12.492  68.737  1.00  0.00    -0.175 C  
HETATM    8  C   UNL     1     -11.378  11.984  67.595  1.00  0.00    -0.375 C  
HETATM    9  F   UNL     1      -9.221  12.457  68.432  1.00  0.00    -0.191 F  
HETATM   10  C   UNL     1     -11.603  10.650  67.580  1.00  0.00     0.020 C  
HETATM   11  C   UNL     1     -10.383   9.970  67.020  1.00  0.00    -0.243 C  
HETATM   12  O   UNL     1     -10.058   8.853  67.391  1.00  0.00    -0.191 OA 
HETATM   13  C   UNL     1      -9.643  10.705  65.934  1.00  0.00    -0.253 C  
HETATM   14  C   UNL     1      -9.999  11.960  65.580  1.00  0.00    -0.266 C  
HETATM   15  C   UNL     1     -11.147  12.731  66.255  1.00  0.00    -0.321 C  
HETATM   16  C   UNL     1     -12.401  12.494  65.359  1.00  0.00    -0.426 C  
HETATM   17  C   UNL     1     -10.989  14.334  66.460  1.00  0.00    -0.316 C  
HETATM   18  F   UNL     1     -12.272  14.847  66.366  1.00  0.00    -0.263 F  
HETATM   19  C   UNL     1     -10.132  15.114  65.427  1.00  0.00    -0.350 C  
HETATM   20  C   UNL     1     -10.162  16.654  65.624  1.00  0.00    -0.285 C  
HETATM   21  O   UNL     1     -10.558  14.838  64.087  1.00  0.00    -0.370 OA 
HETATM   22  C   UNL     1     -10.042  17.263  67.070  1.00  0.00    -0.303 C  
HETATM   23  H   UNL     1     -10.034  15.316  63.454  1.00  0.00     0.000 HD 
HETATM   24  C   UNL     1      -8.576  17.448  67.721  1.00  0.00    -0.227 C  
HETATM   25  C   UNL     1     -10.778  18.629  66.992  1.00  0.00    -0.400 C  
HETATM   26  H   UNL     1      -7.606  16.966  66.061  1.00  0.00     0.000 HD 
HETATM   27  O   UNL     1      -7.689  16.641  66.950  1.00  0.00    -0.180 OA 
ENDROOT
BRANCH  24  28
HETATM   28  C   UNL     1      -7.980  18.893  67.999  1.00  0.00    -0.286 C  
HETATM   29  O   UNL     1      -8.245  19.600  68.958  1.00  0.00    -0.309 OA 
BRANCH  28  30
HETATM   30  S   UNL     1      -6.641  19.363  66.928  1.00  0.00    -0.193 SA 
HETATM   31  C   UNL     1      -7.611  19.971  65.523  1.00  0.00    -0.123 C  
HETATM   32  F   UNL     1      -6.767  20.545  64.619  1.00  0.00    -0.321 F  
ENDBRANCH  28  30
ENDBRANCH  24  28
TORSDOF 2
ENDMDL
MODEL        4
REMARK 921   NORMALIZED FREE ENERGY PREDICTED BY IDOCK:   -7.11 KCAL/MOL
REMARK 922        TOTAL FREE ENERGY PREDICTED BY IDOCK:   -7.97 KCAL/MOL
REMARK 923 INTER-LIGAND FREE ENERGY PREDICTED BY IDOCK:   -7.63 KCAL/MOL
REMARK 924 INTRA-LIGAND FREE ENERGY PREDICTED BY IDOCK:   -0.33 KCAL/MOL
REMARK 927      BINDING AFFINITY PREDICTED BY RF-SCORE:    0.00 PKD
ROOT
HETATM    1  C   UNL     1     -12.200  14.161  66.415  1.00  0.00    -0.473 C  
HETATM    2  C   UNL     1     -11.593  13.039  67.263  1.00  0.00    -0.409 C  
HETATM    3  C   UNL     1     -11.357  13.356  68.738  1.00  0.00    -0.332 C  
HETATM    4  C   UNL     1      -9.927  13.876  68.790  1.00  0.00    -0.139 C  
HETATM    5  C   UNL     1      -9.823  15.335  68.244  1.00  0.00    -0.218 C  
HETATM    6  C   UNL     1     -10.810  16.274  68.942  1.00  0.00    -0.317 C  
HETATM    7  C   UNL     1     -10.721  17.642  68.317  1.00  0.00    -0.280 C  
HETATM    8  C   UNL     1      -9.397  18.236  68.697  1.00  0.00    -0.320 C  
HETATM    9  F   UNL     1     -10.828  17.507  66.966  1.00  0.00    -0.306 F  
HETATM   10  C   UNL     1      -9.351  19.588  68.742  1.00  0.00    -0.423 C  
HETATM   11  C   UNL     1      -9.199  20.103  67.336  1.00  0.00    -0.374 C  
HETATM   12  O   UNL     1      -9.681  21.175  67.003  1.00  0.00    -0.196 OA 
HETATM   13  C   UNL     1      -8.366  19.269  66.401  1.00  0.00    -0.330 C  
HETATM   14  C   UNL     1      -7.888  18.065  66.785  1.00  0.00    -0.260 C  
HETATM   15  C   UNL     1      -8.168  17.451  68.169  1.00  0.00    -0.238 C  
HETATM   16  C   UNL     1      -6.945  17.833  69.057  1.00  0.00    -0.236 C  
HETATM   17  C   UNL     1      -8.368  15.843  68.278  1.00  0.00    -0.165 C  
HETATM   18  F   UNL     1      -7.881  15.493  69.526  1.00  0.00    -0.193 F  
HETATM   19  C   UNL     1      -7.618  14.950  67.253  1.00  0.00    -0.181 C  
HETATM   20  C   UNL     1      -7.756  13.429  67.530  1.00  0.00    -0.182 C  
HETATM   21  O   UNL     1      -6.220  15.262  67.220  1.00  0.00    -0.321 OA 
HETATM   22  C   UNL     1      -9.155  12.826  67.925  1.00  0.00    -0.204 C  
HETATM   23  H   UNL     1      -5.760  14.715  66.593  1.00  0.00     0.000 HD 
HETATM   24  C   UNL     1     -10.209  12.467  66.756  1.00  0.00    -0.219 C  
HETATM   25  C   UNL     1      -8.824  11.562  68.765  1.00  0.00    -0.047 C  
HETATM   26  H   UNL     1      -8.929  12.804  65.281  1.00  0.00     0.000 HD 
HETATM   27  O   UNL     1      -9.761  13.147  65.586  1.00  0.00    -0.208 OA 
ENDROOT
BRANCH  24  28
HETATM   28  C   UNL     1     -10.614  10.962  66.453  1.00  0.00    -0.229 C  
HETATM   29  O   UNL     1     -11.527  10.349  66.984  1.00  0.00    -0.189 OA 
BRANCH  28  30
HETATM   30  S   UNL     1      -9.799  10.241  65.047  1.00  0.00    -0.326 SA 
HETATM   31  C   UNL     1      -8.884   8.929  65.900  1.00  0.00    -0.179 C  
HETATM   32  F   UNL     1      -8.294   8.126  64.970  1.00  0.00    -0.140 F  
ENDBRANCH  28  30
ENDBRANCH  24  28
TORSDOF 2
ENDMDL
MODEL        5
REMARK 921   NORMALIZED FREE ENERGY PREDICTED BY IDOCK:   -6.94 KCAL/MOL
REMARK 922        TOTAL FREE ENERGY PREDICTED BY IDOCK:   -7.78 KCAL/MOL
REMARK 923 INTER-LIGAND FREE ENERGY PREDICTED BY IDOCK:   -7.44 KCAL/MOL
REMARK 924 INTRA-LIGAND FREE ENERGY PREDICTED BY IDOCK:   -0.34 KCAL/MOL
REMARK 927      BINDING AFFINITY PREDICTED BY RF-SCORE:    0.00 PKD
ROOT
HETATM    1  C   UNL     1     -11.810  14.932  69.802  1.00  0.00    -0.356 C  
HETATM    2  C   UNL     1     -11.424  15.575  68.465  1.00  0.00    -0.369 C  
HETATM    3  C   UNL     1     -11.773  14.783  67.207  1.00  0.00    -0.366 C  
HETATM    4  C   UNL     1     -10.528  13.955  66.922  1.00  0.00    -0.276 C  
HETATM    5  C   UNL     1     -10.403  12.745  67.901  1.00  0.00    -0.228 C  
HETATM    6  C   UNL     1     -11.676  11.896  67.919  1.00  0.00    -0.368 C  
HETATM    7  C   UNL     1     -11.526  10.797  68.938  1.00  0.00    -0.293 C  
HETATM    8  C   UNL     1     -10.506   9.826  68.422  1.00  0.00    -0.250 C  
HETATM    9  F   UNL     1     -11.124  11.352  70.115  1.00  0.00    -0.278 F  
HETATM   10  C   UNL     1     -10.635   8.552  68.858  1.00  0.00    -0.166 C  
HETATM   11  C   UNL     1     -10.048   8.462  70.241  1.00  0.00    -0.189 C  
HETATM   12  O   UNL     1     -10.497   7.682  71.066  1.00  0.00    -0.210 OA 
HETATM   13  C   UNL     1      -8.843   9.321  70.516  1.00  0.00    -0.285 C  
HETATM   14  C   UNL     1      -8.401  10.209  69.599  1.00  0.00    -0.174 C  
HETATM   15  C   UNL     1      -9.087  10.426  68.238  1.00  0.00    -0.145 C  
HETATM   16  C   UNL     1      -8.318   9.522  67.227  1.00  0.00    -0.125 C  
HETATM   17  C   UNL     1      -9.127  11.927  67.621  1.00  0.00    -0.179 C  
HETATM   18  F   UNL     1      -9.085  11.763  66.246  1.00  0.00    -0.201 F  
HETATM   19  C   UNL     1      -7.960  12.887  67.979  1.00  0.00    -0.158 C  
HETATM   20  C   UNL     1      -8.012  14.244  67.225  1.00  0.00    -0.191 C  
HETATM   21  O   UNL     1      -6.690  12.285  67.703  1.00  0.00    -0.097 OA 
HETATM   22  C   UNL     1      -9.381  15.007  67.076  1.00  0.00    -0.237 C  
HETATM   23  H   UNL     1      -5.975  12.872  67.923  1.00  0.00     0.000 HD 
HETATM   24  C   UNL     1      -9.895  15.935  68.293  1.00  0.00    -0.217 C  
HETATM   25  C   UNL     1      -9.231  15.847  65.778  1.00  0.00    -0.241 C  
HETATM   26  H   UNL     1      -8.217  15.770  69.336  1.00  0.00     0.000 HD 
HETATM   27  O   UNL     1      -9.136  15.553  69.439  1.00  0.00    -0.259 OA 
ENDROOT
BRANCH  24  28
HETATM   28  C   UNL     1      -9.987  17.512  68.137  1.00  0.00    -0.321 C  
HETATM   29  O   UNL     1     -11.008  18.149  67.931  1.00  0.00    -0.298 OA 
BRANCH  28  30
HETATM   30  S   UNL     1      -8.496  18.389  68.551  1.00  0.00    -0.303 SA 
HETATM   31  C   UNL     1      -8.674  19.789  67.413  1.00  0.00    -0.326 C  
HETATM   32  F   UNL     1      -7.694  20.699  67.676  1.00  0.00    -0.339 F  
ENDBRANCH  28  30
ENDBRANCH  24  28
TORSDOF 2
ENDMDL
MODEL        6
REMARK 921   NORMALIZED FREE ENERGY PREDICTED BY IDOCK:   -6.80 KCAL/MOL
REMARK 922        TOTAL FREE ENERGY PREDICTED BY IDOCK:   -7.63 KCAL/MOL
REMARK 923 INTER-LIGAND FREE ENERGY PREDICTED BY IDOCK:   -7.68 KCAL/MOL
REMARK 924 INTRA-LIGAND FREE ENERGY PREDICTED BY IDOCK:    0.05 KCAL/MOL
REMARK 927      BINDING AFFINITY PREDICTED BY RF-SCORE:    0.00 PKD
ROOT
HETATM    1  C   UNL     1     -11.060  14.563  68.853  1.00  0.00    -0.273 C  
HETATM    2  C   UNL     1     -11.241  14.502  67.332  1.00  0.00    -0.337 C  
HETATM    3  C   UNL     1     -12.250  13.481  66.811  1.00  0.00    -0.392 C  
HETATM    4  C   UNL     1     -11.424  12.231  66.547  1.00  0.00    -0.438 C  
HETATM    5  C   UNL     1     -11.050  11.495  67.872  1.00  0.00    -0.317 C  
HETATM    6  C   UNL     1     -12.285  11.207  68.729  1.00  0.00    -0.080 C  
HETATM    7  C   UNL     1     -11.854  10.574  70.026  1.00  0.00    -0.308 C  
HETATM    8  C   UNL     1     -11.352   9.193  69.721  1.00  0.00     0.011 C  
HETATM    9  F   UNL     1     -10.872  11.342  70.576  1.00  0.00    -0.014 F  
HETATM   10  C   UNL     1     -11.461   8.293  70.725  1.00  0.00    -0.268 C  
HETATM   11  C   UNL     1     -10.323   8.514  71.684  1.00  0.00    -0.263 C  
HETATM   12  O   UNL     1     -10.454   8.294  72.878  1.00  0.00    -0.314 OA 
HETATM   13  C   UNL     1      -9.011   8.941  71.084  1.00  0.00    -0.305 C  
HETATM   14  C   UNL     1      -8.911   9.223  69.766  1.00  0.00    -0.174 C  
HETATM   15  C   UNL     1     -10.105   9.156  68.798  1.00  0.00    -0.212 C  
HETATM   16  C   UNL     1     -10.042   7.741  68.146  1.00  0.00    -0.220 C  
HETATM   17  C   UNL     1     -10.192  10.245  67.597  1.00  0.00    -0.205 C  
HETATM   18  F   UNL     1     -10.817   9.590  66.548  1.00  0.00    -0.214 F  
HETATM   19  C   UNL     1      -8.859  10.802  67.028  1.00  0.00    -0.135 C  
HETATM   20  C   UNL     1      -9.042  11.721  65.790  1.00  0.00    -0.088 C  
HETATM   21  O   UNL     1      -7.971   9.741  66.655  1.00  0.00    -0.111 OA 
HETATM   22  C   UNL     1     -10.188  12.800  65.776  1.00  0.00    -0.302 C  
HETATM   23  H   UNL     1      -7.155  10.082  66.308  1.00  0.00     0.000 HD 
HETATM   24  C   UNL     1      -9.930  14.222  66.496  1.00  0.00    -0.281 C  
HETATM   25  C   UNL     1     -10.527  13.005  64.274  1.00  0.00    -0.424 C  
HETATM   26  H   UNL     1      -8.009  13.877  66.841  1.00  0.00     0.000 HD 
HETATM   27  O   UNL     1      -8.797  14.045  67.344  1.00  0.00    -0.185 OA 
ENDROOT
BRANCH  24  28
HETATM   28  C   UNL     1      -9.838  15.563  65.650  1.00  0.00    -0.342 C  
HETATM   29  O   UNL     1     -10.630  15.920  64.793  1.00  0.00    -0.562 OA 
BRANCH  28  30
HETATM   30  S   UNL     1      -8.601  16.712  66.210  1.00  0.00    -0.301 SA 
HETATM   31  C   UNL     1      -9.663  18.159  66.462  1.00  0.00    -0.344 C  
HETATM   32  F   UNL     1      -8.933  19.144  67.058  1.00  0.00    -0.281 F  
ENDBRANCH  28  30
ENDBRANCH  24  28
TORSDOF 2
ENDMDL
MODEL        7
REMARK 921   NORMALIZED FREE ENERGY PREDICTED BY IDOCK:   -6.78 KCAL/MOL
REMARK 922        TOTAL FREE ENERGY PREDICTED BY IDOCK:   -7.61 KCAL/MOL
REMARK 923 INTER-LIGAND FREE ENERGY PREDICTED BY IDOCK:   -8.12 KCAL/MOL
REMARK 924 INTRA-LIGAND FREE ENERGY PREDICTED BY IDOCK:    0.51 KCAL/MOL
REMARK 927      BINDING AFFINITY PREDICTED BY RF-SCORE:    0.00 PKD
ROOT
HETATM    1  C   UNL     1     -10.259  14.981  68.712  1.00  0.00    -0.235 C  
HETATM    2  C   UNL     1     -11.092  15.230  67.450  1.00  0.00    -0.326 C  
HETATM    3  C   UNL     1     -12.272  14.289  67.221  1.00  0.00    -0.287 C  
HETATM    4  C   UNL     1     -11.703  13.168  66.364  1.00  0.00    -0.429 C  
HETATM    5  C   UNL     1     -10.818  12.191  67.202  1.00  0.00    -0.286 C  
HETATM    6  C   UNL     1     -11.563  11.665  68.432  1.00  0.00    -0.376 C  
HETATM    7  C   UNL     1     -10.635  10.798  69.241  1.00  0.00    -0.229 C  
HETATM    8  C   UNL     1     -10.382   9.541  68.463  1.00  0.00    -0.234 C  
HETATM    9  F   UNL     1      -9.479  11.485  69.454  1.00  0.00     0.020 F  
HETATM   10  C   UNL     1     -10.080   8.446  69.198  1.00  0.00    -0.206 C  
HETATM   11  C   UNL     1      -8.627   8.521  69.584  1.00  0.00    -0.131 C  
HETATM   12  O   UNL     1      -8.230   8.049  70.638  1.00  0.00    -0.108 OA 
HETATM   13  C   UNL     1      -7.694   9.133  68.575  1.00  0.00    -0.093 C  
HETATM   14  C   UNL     1      -8.170   9.691  67.439  1.00  0.00    -0.114 C  
HETATM   15  C   UNL     1      -9.670   9.764  67.103  1.00  0.00    -0.223 C  
HETATM   16  C   UNL     1      -9.963   8.523  66.206  1.00  0.00    -0.251 C  
HETATM   17  C   UNL     1     -10.226  11.074  66.321  1.00  0.00    -0.245 C  
HETATM   18  F   UNL     1     -11.276  10.621  65.541  1.00  0.00    -0.055 F  
HETATM   19  C   UNL     1      -9.255  11.809  65.358  1.00  0.00    -0.013 C  
HETATM   20  C   UNL     1      -9.921  12.955  64.551  1.00  0.00    -0.160 C  
HETATM   21  O   UNL     1      -8.669  10.898  64.419  1.00  0.00    -0.326 OA 
HETATM   22  C   UNL     1     -10.906  13.951  65.270  1.00  0.00    -0.337 C  
HETATM   23  H   UNL     1      -8.074  11.348  63.830  1.00  0.00     0.000 HD 
HETATM   24  C   UNL     1     -10.295  15.202  66.086  1.00  0.00    -0.301 C  
HETATM   25  C   UNL     1     -11.861  14.448  64.149  1.00  0.00    -0.316 C  
HETATM   26  H   UNL     1      -8.435  14.895  65.473  1.00  0.00     0.000 HD 
HETATM   27  O   UNL     1      -8.914  14.912  66.293  1.00  0.00    -0.258 OA 
ENDROOT
BRANCH  24  28
HETATM   28  C   UNL     1     -10.523  16.693  65.590  1.00  0.00    -0.297 C  
HETATM   29  O   UNL     1     -11.116  17.024  64.575  1.00  0.00    -1.098 OA 
BRANCH  28  30
HETATM   30  S   UNL     1     -10.075  17.946  66.770  1.00  0.00    -0.365 SA 
HETATM   31  C   UNL     1     -10.729  19.394  65.898  1.00  0.00    -0.407 C  
HETATM   32  F   UNL     1     -10.636  20.482  66.715  1.00  0.00    -0.430 F  
ENDBRANCH  28  30
ENDBRANCH  24  28
TORSDOF 2
ENDMDL
MODEL        8
REMARK 921   NORMALIZED FREE ENERGY PREDICTED BY IDOCK:   -6.64 KCAL/MOL
REMARK 922        TOTAL FREE ENERGY PREDICTED BY IDOCK:   -7.45 KCAL/MOL
REMARK 923 INTER-LIGAND FREE ENERGY PREDICTED BY IDOCK:   -7.14 KCAL/MOL
REMARK 924 INTRA-LIGAND FREE ENERGY PREDICTED BY IDOCK:   -0.31 KCAL/MOL
REMARK 927      BINDING AFFINITY PREDICTED BY RF-SCORE:    0.00 PKD
ROOT
HETATM    1  C   UNL     1     -11.458  14.707  69.850  1.00  0.00    -0.320 C  
HETATM    2  C   UNL     1     -11.340  14.834  68.327  1.00  0.00    -0.319 C  
HETATM    3  C   UNL     1     -12.156  13.844  67.499  1.00  0.00    -0.366 C  
HETATM    4  C   UNL     1     -11.208  12.678  67.259  1.00  0.00    -0.346 C  
HETATM    5  C   UNL     1     -11.043  11.794  68.536  1.00  0.00    -0.288 C  
HETATM    6  C   UNL     1     -12.396  11.341  69.091  1.00  0.00    -0.115 C  
HETATM    7  C   UNL     1     -12.176  10.566  70.364  1.00  0.00    -0.328 C  
HETATM    8  C   UNL     1     -11.529   9.262  70.004  1.00  0.00    -0.077 C  
HETATM    9  F   UNL     1     -11.375  11.301  71.184  1.00  0.00     0.028 F  
HETATM   10  C   UNL     1     -11.765   8.235  70.853  1.00  0.00    -0.256 C  
HETATM   11  C   UNL     1     -10.849   8.382  72.039  1.00  0.00    -0.320 C  
HETATM   12  O   UNL     1     -11.191   8.004  73.149  1.00  0.00    -0.336 OA 
HETATM   13  C   UNL     1      -9.480   8.944  71.765  1.00  0.00    -0.334 C  
HETATM   14  C   UNL     1      -9.150   9.399  70.537  1.00  0.00    -0.308 C  
HETATM   15  C   UNL     1     -10.130   9.401  69.349  1.00  0.00    -0.204 C  
HETATM   16  C   UNL     1      -9.843   8.088  68.561  1.00  0.00    -0.185 C  
HETATM   17  C   UNL     1     -10.062  10.631  68.291  1.00  0.00    -0.157 C  
HETATM   18  F   UNL     1     -10.427  10.089  67.070  1.00  0.00    -0.262 F  
HETATM   19  C   UNL     1      -8.688  11.319  68.068  1.00  0.00    -0.144 C  
HETATM   20  C   UNL     1      -8.696  12.380  66.935  1.00  0.00    -0.191 C  
HETATM   21  O   UNL     1      -7.672  10.357  67.757  1.00  0.00    -0.089 OA 
HETATM   22  C   UNL     1      -9.891  13.399  66.822  1.00  0.00    -0.265 C  
HETATM   23  H   UNL     1      -6.830  10.778  67.621  1.00  0.00     0.000 HD 
HETATM   24  C   UNL     1      -9.876  14.726  67.741  1.00  0.00    -0.214 C  
HETATM   25  C   UNL     1      -9.950  13.780  65.317  1.00  0.00    -0.245 C  
HETATM   26  H   UNL     1      -8.038  14.428  68.418  1.00  0.00     0.000 HD 
HETATM   27  O   UNL     1      -8.917  14.493  68.770  1.00  0.00    -0.188 OA 
ENDROOT
BRANCH  24  28
HETATM   28  C   UNL     1      -9.719  16.167  67.094  1.00  0.00    -0.233 C  
HETATM   29  O   UNL     1     -10.629  16.856  66.659  1.00  0.00    -0.282 OA 
BRANCH  28  30
HETATM   30  S   UNL     1      -8.103  16.888  67.268  1.00  0.00    -0.193 SA 
HETATM   31  C   UNL     1      -8.529  18.257  68.378  1.00  0.00    -0.303 C  
HETATM   32  F   UNL     1      -7.380  18.870  68.783  1.00  0.00    -0.297 F  
ENDBRANCH  28  30
ENDBRANCH  24  28
TORSDOF 2
ENDMDL
MODEL        9
REMARK 921   NORMALIZED FREE ENERGY PREDICTED BY IDOCK:   -6.63 KCAL/MOL
REMARK 922        TOTAL FREE ENERGY PREDICTED BY IDOCK:   -7.43 KCAL/MOL
REMARK 923 INTER-LIGAND FREE ENERGY PREDICTED BY IDOCK:   -7.35 KCAL/MOL
REMARK 924 INTRA-LIGAND FREE ENERGY PREDICTED BY IDOCK:   -0.08 KCAL/MOL
REMARK 927      BINDING AFFINITY PREDICTED BY RF-SCORE:    0.00 PKD
ROOT
HETATM    1  C   UNL     1     -11.731  15.482  69.244  1.00  0.00    -0.380 C  
HETATM    2  C   UNL     1     -10.972  16.196  68.120  1.00  0.00    -0.341 C  
HETATM    3  C   UNL     1     -11.012  15.532  66.746  1.00  0.00    -0.257 C  
HETATM    4  C   UNL     1      -9.779  14.639  66.720  1.00  0.00    -0.267 C  
HETATM    5  C   UNL     1      -9.979  13.351  67.579  1.00  0.00    -0.230 C  
HETATM    6  C   UNL     1     -11.253  12.598  67.185  1.00  0.00    -0.348 C  
HETATM    7  C   UNL     1     -11.434  11.416  68.100  1.00  0.00    -0.305 C  
HETATM    8  C   UNL     1     -10.363  10.416  67.780  1.00  0.00    -0.245 C  
HETATM    9  F   UNL     1     -11.333  11.848  69.388  1.00  0.00    -0.274 F  
HETATM   10  C   UNL     1     -10.667   9.125  68.045  1.00  0.00    -0.205 C  
HETATM   11  C   UNL     1     -10.475   8.886  69.519  1.00  0.00    -0.226 C  
HETATM   12  O   UNL     1     -11.166   8.080  70.122  1.00  0.00    -0.238 OA 
HETATM   13  C   UNL     1      -9.346   9.631  70.178  1.00  0.00    -0.294 C  
HETATM   14  C   UNL     1      -8.631  10.553  69.495  1.00  0.00    -0.047 C  
HETATM   15  C   UNL     1      -8.919  10.924  68.030  1.00  0.00    -0.145 C  
HETATM   16  C   UNL     1      -7.955  10.047  67.174  1.00  0.00    -0.109 C  
HETATM   17  C   UNL     1      -8.718  12.467  67.566  1.00  0.00    -0.179 C  
HETATM   18  F   UNL     1      -8.320  12.407  66.242  1.00  0.00    -0.049 F  
HETATM   19  C   UNL     1      -7.642  13.309  68.305  1.00  0.00    -0.139 C  
HETATM   20  C   UNL     1      -7.424  14.720  67.694  1.00  0.00    -0.203 C  
HETATM   21  O   UNL     1      -6.376  12.638  68.315  1.00  0.00    -0.061 OA 
HETATM   22  C   UNL     1      -8.664  15.590  67.266  1.00  0.00    -0.214 C  
HETATM   23  H   UNL     1      -5.717  13.154  68.767  1.00  0.00     0.000 HD 
HETATM   24  C   UNL     1      -9.436  16.456  68.388  1.00  0.00    -0.220 C  
HETATM   25  C   UNL     1      -8.132  16.515  66.136  1.00  0.00    -0.242 C  
HETATM   26  H   UNL     1      -8.107  16.089  69.811  1.00  0.00     0.000 HD 
HETATM   27  O   UNL     1      -9.030  15.933  69.651  1.00  0.00    -0.204 OA 
ENDROOT
BRANCH  24  28
HETATM   28  C   UNL     1      -9.405  18.043  68.362  1.00  0.00    -0.300 C  
HETATM   29  O   UNL     1      -8.465  18.743  68.704  1.00  0.00    -0.338 OA 
BRANCH  28  30
HETATM   30  S   UNL     1     -10.781  18.800  67.527  1.00  0.00    -0.340 SA 
HETATM   31  C   UNL     1      -9.866  19.698  66.245  1.00  0.00    -0.447 C  
HETATM   32  F   UNL     1     -10.756  20.240  65.366  1.00  0.00    -0.503 F  
ENDBRANCH  28  30
ENDBRANCH  24  28
TORSDOF 2
ENDMDL
MODEL       10
REMARK 921   NORMALIZED FREE ENERGY PREDICTED BY IDOCK:   -6.54 KCAL/MOL
REMARK 922        TOTAL FREE ENERGY PREDICTED BY IDOCK:   -7.34 KCAL/MOL
REMARK 923 INTER-LIGAND FREE ENERGY PREDICTED BY IDOCK:   -7.02 KCAL/MOL
REMARK 924 INTRA-LIGAND FREE ENERGY PREDICTED BY IDOCK:   -0.31 KCAL/MOL
REMARK 927      BINDING AFFINITY PREDICTED BY RF-SCORE:    0.00 PKD
ROOT
HETATM    1  C   UNL     1      -8.060  10.807  69.373  1.00  0.00    -0.053 C  
HETATM    2  C   UNL     1      -7.985   9.967  68.093  1.00  0.00    -0.100 C  
HETATM    3  C   UNL     1      -7.339  10.635  66.881  1.00  0.00    -0.114 C  
HETATM    4  C   UNL     1      -8.501  11.275  66.136  1.00  0.00    -0.135 C  
HETATM    5  C   UNL     1      -8.999  12.573  66.848  1.00  0.00    -0.212 C  
HETATM    6  C   UNL     1      -7.854  13.558  67.098  1.00  0.00    -0.025 C  
HETATM    7  C   UNL     1      -8.380  14.747  67.858  1.00  0.00    -0.149 C  
HETATM    8  C   UNL     1      -9.271  15.526  66.936  1.00  0.00    -0.257 C  
HETATM    9  F   UNL     1      -9.070  14.297  68.942  1.00  0.00    -0.184 F  
HETATM   10  C   UNL     1      -9.370  16.850  67.196  1.00  0.00    -0.241 C  
HETATM   11  C   UNL     1     -10.345  17.039  68.326  1.00  0.00    -0.347 C  
HETATM   12  O   UNL     1     -10.219  17.959  69.120  1.00  0.00    -0.354 OA 
HETATM   13  C   UNL     1     -11.511  16.088  68.375  1.00  0.00    -0.331 C  
HETATM   14  C   UNL     1     -11.595  15.051  67.513  1.00  0.00    -0.315 C  
HETATM   15  C   UNL     1     -10.523  14.750  66.450  1.00  0.00    -0.294 C  
HETATM   16  C   UNL     1     -11.023  15.431  65.140  1.00  0.00    -0.430 C  
HETATM   17  C   UNL     1     -10.192  13.200  66.100  1.00  0.00    -0.290 C  
HETATM   18  F   UNL     1      -9.838  13.191  64.761  1.00  0.00    -0.255 F  
HETATM   19  C   UNL     1     -11.338  12.163  66.253  1.00  0.00    -0.357 C  
HETATM   20  C   UNL     1     -10.966  10.740  65.756  1.00  0.00     0.021 C  
HETATM   21  O   UNL     1     -12.511  12.579  65.543  1.00  0.00    -0.646 OA 
HETATM   22  C   UNL     1      -9.562  10.126  66.115  1.00  0.00    -0.256 C  
HETATM   23  H   UNL     1     -13.213  11.945  65.636  1.00  0.00     0.000 HD 
HETATM   24  C   UNL     1      -9.364   9.417  67.552  1.00  0.00    -0.127 C  
HETATM   25  C   UNL     1      -9.258   9.123  64.968  1.00  0.00    -0.180 C  
HETATM   26  H   UNL     1     -11.282   9.515  68.041  1.00  0.00     0.000 HD 
HETATM   27  O   UNL     1     -10.453   9.846  68.366  1.00  0.00    -0.189 OA 
ENDROOT
BRANCH  24  28
HETATM   28  C   UNL     1      -9.113   7.853  67.665  1.00  0.00    -0.133 C  
HETATM   29  O   UNL     1      -8.038   7.318  67.887  1.00  0.00    -0.117 OA 
BRANCH  28  30
HETATM   30  S   UNL     1     -10.591   6.865  67.711  1.00  0.00    -0.257 SA 
HETATM   31  C   UNL     1     -10.758   6.702  69.509  1.00  0.00    -0.260 C  
HETATM   32  F   UNL     1     -11.948   6.097  69.788  1.00  0.00    -0.435 F  
ENDBRANCH  28  30
ENDBRANCH  24  28
TORSDOF 2
ENDMDL
MODEL       11
REMARK 921   NORMALIZED FREE ENERGY PREDICTED BY IDOCK:   -6.50 KCAL/MOL
REMARK 922        TOTAL FREE ENERGY PREDICTED BY IDOCK:   -7.30 KCAL/MOL
REMARK 923 INTER-LIGAND FREE ENERGY PREDICTED BY IDOCK:   -7.26 KCAL/MOL
REMARK 924 INTRA-LIGAND FREE ENERGY PREDICTED BY IDOCK:   -0.04 KCAL/MOL
REMARK 927      BINDING AFFINITY PREDICTED BY RF-SCORE:    0.00 PKD
ROOT
HETATM    1  C   UNL     1      -9.916   9.991  65.290  1.00  0.00    -0.368 C  
HETATM    2  C   UNL     1      -9.523  11.370  65.829  1.00  0.00    -0.256 C  
HETATM    3  C   UNL     1      -8.288  11.421  66.725  1.00  0.00    -0.163 C  
HETATM    4  C   UNL     1      -8.837  11.264  68.136  1.00  0.00    -0.159 C  
HETATM    5  C   UNL     1      -9.250   9.788  68.435  1.00  0.00    -0.130 C  
HETATM    6  C   UNL     1      -8.110   8.809  68.140  1.00  0.00    -0.107 C  
HETATM    7  C   UNL     1      -8.594   7.401  68.366  1.00  0.00    -0.124 C  
HETATM    8  C   UNL     1      -8.797   7.215  69.841  1.00  0.00    -0.142 C  
HETATM    9  F   UNL     1      -9.761   7.231  67.686  1.00  0.00    -0.137 F  
HETATM   10  C   UNL     1      -8.667   5.948  70.297  1.00  0.00    -0.142 C  
HETATM   11  C   UNL     1      -9.945   5.207  70.009  1.00  0.00    -0.256 C  
HETATM   12  O   UNL     1      -9.940   4.009  69.773  1.00  0.00    -0.180 OA 
HETATM   13  C   UNL     1     -11.219   6.003  70.105  1.00  0.00    -0.412 C  
HETATM   14  C   UNL     1     -11.189   7.337  70.320  1.00  0.00    -0.287 C  
HETATM   15  C   UNL     1      -9.881   8.137  70.459  1.00  0.00    -0.194 C  
HETATM   16  C   UNL     1      -9.604   8.233  71.990  1.00  0.00    -0.316 C  
HETATM   17  C   UNL     1      -9.827   9.644  69.856  1.00  0.00    -0.239 C  
HETATM   18  F   UNL     1      -8.960  10.341  70.681  1.00  0.00     0.090 F  
HETATM   19  C   UNL     1     -11.148  10.459  69.827  1.00  0.00    -0.295 C  
HETATM   20  C   UNL     1     -10.965  11.932  69.372  1.00  0.00    -0.156 C  
HETATM   21  O   UNL     1     -11.776  10.476  71.115  1.00  0.00    -0.329 OA 
HETATM   22  C   UNL     1     -10.038  12.265  68.144  1.00  0.00    -0.211 C  
HETATM   23  H   UNL     1     -12.585  10.974  71.097  1.00  0.00     0.000 HD 
HETATM   24  C   UNL     1     -10.639  12.129  66.652  1.00  0.00    -0.235 C  
HETATM   25  C   UNL     1      -9.541  13.714  68.400  1.00  0.00    -0.203 C  
HETATM   26  H   UNL     1     -12.497  11.803  67.260  1.00  0.00     0.000 HD 
HETATM   27  O   UNL     1     -11.826  11.347  66.765  1.00  0.00    -0.443 OA 
ENDROOT
BRANCH  24  28
HETATM   28  C   UNL     1     -10.852  13.408  65.735  1.00  0.00    -0.275 C  
HETATM   29  O   UNL     1      -9.988  14.210  65.420  1.00  0.00    -0.336 OA 
BRANCH  28  30
HETATM   30  S   UNL     1     -12.437  13.491  64.932  1.00  0.00    -0.359 SA 
HETATM   31  C   UNL     1     -12.099  12.380  63.540  1.00  0.00    -0.558 C  
HETATM   32  F   UNL     1     -13.259  12.164  62.857  1.00  0.00    -0.334 F  
ENDBRANCH  28  30
ENDBRANCH  24  28
TORSDOF 2
ENDMDL
MODEL       12
REMARK 921   NORMALIZED FREE ENERGY PREDICTED BY IDOCK:   -6.45 KCAL/MOL
REMARK 922        TOTAL FREE ENERGY PREDICTED BY IDOCK:   -7.23 KCAL/MOL
REMARK 923 INTER-LIGAND FREE ENERGY PREDICTED BY IDOCK:   -7.74 KCAL/MOL
REMARK 924 INTRA-LIGAND FREE ENERGY PREDICTED BY IDOCK:    0.51 KCAL/MOL
REMARK 927      BINDING AFFINITY PREDICTED BY RF-SCORE:    0.00 PKD
ROOT
HETATM    1  C   UNL     1     -10.380  14.286  68.912  1.00  0.00    -0.218 C  
HETATM    2  C   UNL     1     -11.114  14.542  67.591  1.00  0.00    -0.314 C  
HETATM    3  C   UNL     1     -12.273  13.602  67.267  1.00  0.00    -0.317 C  
HETATM    4  C   UNL     1     -11.640  12.485  66.450  1.00  0.00    -0.449 C  
HETATM    5  C   UNL     1     -10.822  11.504  67.349  1.00  0.00    -0.294 C  
HETATM    6  C   UNL     1     -11.659  10.971  68.515  1.00  0.00    -0.380 C  
HETATM    7  C   UNL     1     -10.795  10.100  69.388  1.00  0.00    -0.241 C  
HETATM    8  C   UNL     1     -10.482   8.847  68.625  1.00  0.00    -0.223 C  
HETATM    9  F   UNL     1      -9.658  10.786  69.692  1.00  0.00    -0.181 F  
HETATM   10  C   UNL     1     -10.237   7.748  69.375  1.00  0.00    -0.208 C  
HETATM   11  C   UNL     1      -8.818   7.821  69.872  1.00  0.00    -0.142 C  
HETATM   12  O   UNL     1      -8.503   7.344  70.950  1.00  0.00    -0.121 OA 
HETATM   13  C   UNL     1      -7.810   8.439  68.940  1.00  0.00    -0.113 C  
HETATM   14  C   UNL     1      -8.198   9.002  67.774  1.00  0.00    -0.109 C  
HETATM   15  C   UNL     1      -9.668   9.077  67.324  1.00  0.00    -0.232 C  
HETATM   16  C   UNL     1      -9.892   7.841  66.401  1.00  0.00    -0.198 C  
HETATM   17  C   UNL     1     -10.164  10.392  66.510  1.00  0.00    -0.229 C  
HETATM   18  F   UNL     1     -11.151   9.943  65.649  1.00  0.00     0.202 F  
HETATM   19  C   UNL     1      -9.122  11.131  65.628  1.00  0.00    -0.205 C  
HETATM   20  C   UNL     1      -9.725  12.282  64.778  1.00  0.00    -0.033 C  
HETATM   21  O   UNL     1      -8.466  10.226  64.731  1.00  0.00    -0.163 OA 
HETATM   22  C   UNL     1     -10.762  13.274  65.424  1.00  0.00    -0.308 C  
HETATM   23  H   UNL     1      -7.827  10.678  64.191  1.00  0.00     0.000 HD 
HETATM   24  C   UNL     1     -10.215  14.521  66.291  1.00  0.00    -0.297 C  
HETATM   25  C   UNL     1     -11.629  13.777  64.236  1.00  0.00    -0.395 C  
HETATM   26  H   UNL     1      -8.314  14.217  65.821  1.00  0.00     0.000 HD 
HETATM   27  O   UNL     1      -8.854  14.230  66.602  1.00  0.00    -0.223 OA 
ENDROOT
BRANCH  24  28
HETATM   28  C   UNL     1     -10.405  16.015  65.787  1.00  0.00    -0.378 C  
HETATM   29  O   UNL     1     -10.797  16.349  64.680  1.00  0.00    -0.717 OA 
BRANCH  28  30
HETATM   30  S   UNL     1     -10.258  17.252  67.056  1.00  0.00    -0.319 SA 
HETATM   31  C   UNL     1     -10.468  18.729  66.027  1.00  0.00    -0.432 C  
HETATM   32  F   UNL     1     -10.551  19.824  66.837  1.00  0.00    -0.502 F  
ENDBRANCH  28  30
ENDBRANCH  24  28
TORSDOF 2
ENDMDL
MODEL       13
REMARK 921   NORMALIZED FREE ENERGY PREDICTED BY IDOCK:   -6.43 KCAL/MOL
REMARK 922        TOTAL FREE ENERGY PREDICTED BY IDOCK:   -7.22 KCAL/MOL
REMARK 923 INTER-LIGAND FREE ENERGY PREDICTED BY IDOCK:   -7.15 KCAL/MOL
REMARK 924 INTRA-LIGAND FREE ENERGY PREDICTED BY IDOCK:   -0.06 KCAL/MOL
REMARK 927      BINDING AFFINITY PREDICTED BY RF-SCORE:    0.00 PKD
ROOT
HETATM    1  C   UNL     1      -7.756  10.170  63.870  1.00  0.00    -0.140 C  
HETATM    2  C   UNL     1      -7.951   9.164  65.009  1.00  0.00    -0.120 C  
HETATM    3  C   UNL     1      -9.395   8.842  65.389  1.00  0.00    -0.158 C  
HETATM    4  C   UNL     1      -9.726   9.833  66.495  1.00  0.00    -0.267 C  
HETATM    5  C   UNL     1      -9.974  11.268  65.931  1.00  0.00    -0.277 C  
HETATM    6  C   UNL     1     -11.024  11.266  64.817  1.00  0.00    -0.262 C  
HETATM    7  C   UNL     1     -11.159  12.658  64.258  1.00  0.00    -0.362 C  
HETATM    8  C   UNL     1     -11.810  13.514  65.305  1.00  0.00    -0.373 C  
HETATM    9  F   UNL     1      -9.916  13.121  63.950  1.00  0.00    -0.374 F  
HETATM   10  C   UNL     1     -12.517  14.570  64.842  1.00  0.00    -0.321 C  
HETATM   11  C   UNL     1     -11.552  15.677  64.512  1.00  0.00    -0.262 C  
HETATM   12  O   UNL     1     -11.782  16.463  63.605  1.00  0.00    -0.933 OA 
HETATM   13  C   UNL     1     -10.344  15.804  65.401  1.00  0.00    -0.417 C  
HETATM   14  C   UNL     1     -10.094  14.890  66.364  1.00  0.00    -0.296 C  
HETATM   15  C   UNL     1     -10.987  13.662  66.612  1.00  0.00    -0.295 C  
HETATM   16  C   UNL     1     -11.973  14.078  67.746  1.00  0.00    -0.392 C  
HETATM   17  C   UNL     1     -10.284  12.269  67.061  1.00  0.00    -0.215 C  
HETATM   18  F   UNL     1     -11.206  11.635  67.876  1.00  0.00    -0.241 F  
HETATM   19  C   UNL     1      -8.967  12.355  67.880  1.00  0.00    -0.184 C  
HETATM   20  C   UNL     1      -8.454  10.980  68.385  1.00  0.00    -0.144 C  
HETATM   21  O   UNL     1      -9.121  13.209  69.020  1.00  0.00    -0.353 OA 
HETATM   22  C   UNL     1      -8.471   9.734  67.424  1.00  0.00    -0.121 C  
HETATM   23  H   UNL     1      -8.315  13.262  69.521  1.00  0.00     0.000 HD 
HETATM   24  C   UNL     1      -7.257   9.535  66.379  1.00  0.00    -0.089 C  
HETATM   25  C   UNL     1      -8.585   8.503  68.366  1.00  0.00    -0.139 C  
HETATM   26  H   UNL     1      -6.167  11.014  67.124  1.00  0.00     0.000 HD 
HETATM   27  O   UNL     1      -6.584  10.790  66.300  1.00  0.00    -0.116 OA 
ENDROOT
BRANCH  24  28
HETATM   28  C   UNL     1      -6.242   8.323  66.525  1.00  0.00    -0.054 C  
HETATM   29  O   UNL     1      -5.491   8.132  67.468  1.00  0.00    -0.035 OA 
BRANCH  28  30
HETATM   30  S   UNL     1      -6.434   7.042  65.306  1.00  0.00    -0.044 SA 
HETATM   31  C   UNL     1      -7.388   5.860  66.296  1.00  0.00    -0.081 C  
HETATM   32  F   UNL     1      -7.795   4.837  65.491  1.00  0.00    -0.089 F  
ENDBRANCH  28  30
ENDBRANCH  24  28
TORSDOF 2
ENDMDL
MODEL       14
REMARK 921   NORMALIZED FREE ENERGY PREDICTED BY IDOCK:   -6.38 KCAL/MOL
REMARK 922        TOTAL FREE ENERGY PREDICTED BY IDOCK:   -7.15 KCAL/MOL
REMARK 923 INTER-LIGAND FREE ENERGY PREDICTED BY IDOCK:   -7.11 KCAL/MOL
REMARK 924 INTRA-LIGAND FREE ENERGY PREDICTED BY IDOCK:   -0.05 KCAL/MOL
REMARK 927      BINDING AFFINITY PREDICTED BY RF-SCORE:    0.00 PKD
ROOT
HETATM    1  C   UNL     1      -7.227  15.900  66.957  1.00  0.00    -0.232 C  
HETATM    2  C   UNL     1      -8.319  16.421  67.897  1.00  0.00    -0.174 C  
HETATM    3  C   UNL     1      -8.575  15.601  69.159  1.00  0.00    -0.251 C  
HETATM    4  C   UNL     1      -9.679  14.631  68.764  1.00  0.00    -0.217 C  
HETATM    5  C   UNL     1      -9.137  13.471  67.870  1.00  0.00    -0.204 C  
HETATM    6  C   UNL     1      -7.944  12.765  68.518  1.00  0.00    -0.095 C  
HETATM    7  C   UNL     1      -7.415  11.716  67.576  1.00  0.00    -0.123 C  
HETATM    8  C   UNL     1      -8.430  10.614  67.495  1.00  0.00    -0.121 C  
HETATM    9  F   UNL     1      -7.218  12.291  66.357  1.00  0.00     0.089 F  
HETATM   10  C   UNL     1      -7.943   9.387  67.198  1.00  0.00    -0.102 C  
HETATM   11  C   UNL     1      -7.720   9.315  65.711  1.00  0.00    -0.098 C  
HETATM   12  O   UNL     1      -6.820   8.635  65.242  1.00  0.00    -0.070 OA 
HETATM   13  C   UNL     1      -8.705  10.055  64.847  1.00  0.00    -0.201 C  
HETATM   14  C   UNL     1      -9.659  10.838  65.397  1.00  0.00    -0.272 C  
HETATM   15  C   UNL     1      -9.801  11.049  66.915  1.00  0.00    -0.222 C  
HETATM   16  C   UNL     1     -10.866  10.013  67.389  1.00  0.00    -0.313 C  
HETATM   17  C   UNL     1     -10.266  12.508  67.455  1.00  0.00    -0.213 C  
HETATM   18  F   UNL     1     -10.988  12.263  68.610  1.00  0.00    -0.215 F  
HETATM   19  C   UNL     1     -11.188  13.358  66.538  1.00  0.00    -0.307 C  
HETATM   20  C   UNL     1     -11.694  14.667  67.202  1.00  0.00    -0.392 C  
HETATM   21  O   UNL     1     -12.336  12.609  66.121  1.00  0.00    -0.570 OA 
HETATM   22  C   UNL     1     -10.700  15.562  68.032  1.00  0.00    -0.283 C  
HETATM   23  H   UNL     1     -12.900  13.129  65.560  1.00  0.00     0.000 HD 
HETATM   24  C   UNL     1      -9.750  16.607  67.251  1.00  0.00    -0.245 C  
HETATM   25  C   UNL     1     -11.596  16.306  69.060  1.00  0.00    -0.231 C  
HETATM   26  H   UNL     1     -10.618  16.323  65.492  1.00  0.00     0.000 HD 
HETATM   27  O   UNL     1      -9.759  16.212  65.880  1.00  0.00    -0.319 OA 
ENDROOT
BRANCH  24  28
HETATM   28  C   UNL     1      -9.941  18.173  67.422  1.00  0.00    -0.323 C  
HETATM   29  O   UNL     1     -10.924  18.812  67.083  1.00  0.00    -0.380 OA 
BRANCH  28  30
HETATM   30  S   UNL     1      -8.699  18.970  68.415  1.00  0.00    -0.355 SA 
HETATM   31  C   UNL     1      -8.129  20.199  67.210  1.00  0.00    -0.330 C  
HETATM   32  F   UNL     1      -7.260  21.051  67.826  1.00  0.00    -0.338 F  
ENDBRANCH  28  30
ENDBRANCH  24  28
TORSDOF 2
ENDMDL
MODEL       15
REMARK 921   NORMALIZED FREE ENERGY PREDICTED BY IDOCK:   -6.35 KCAL/MOL
REMARK 922        TOTAL FREE ENERGY PREDICTED BY IDOCK:   -7.12 KCAL/MOL
REMARK 923 INTER-LIGAND FREE ENERGY PREDICTED BY IDOCK:   -7.08 KCAL/MOL
REMARK 924 INTRA-LIGAND FREE ENERGY PREDICTED BY IDOCK:   -0.04 KCAL/MOL
REMARK 927      BINDING AFFINITY PREDICTED BY RF-SCORE:    0.00 PKD
ROOT
HETATM    1  C   UNL     1     -11.317  10.225  69.827  1.00  0.00    -0.334 C  
HETATM    2  C   UNL     1      -9.940   9.566  69.960  1.00  0.00    -0.274 C  
HETATM    3  C   UNL     1      -8.733  10.451  69.661  1.00  0.00    -0.056 C  
HETATM    4  C   UNL     1      -8.457  10.231  68.181  1.00  0.00    -0.123 C  
HETATM    5  C   UNL     1      -9.491  10.979  67.282  1.00  0.00    -0.179 C  
HETATM    6  C   UNL     1      -9.586  12.464  67.643  1.00  0.00    -0.193 C  
HETATM    7  C   UNL     1     -10.654  13.112  66.802  1.00  0.00    -0.263 C  
HETATM    8  C   UNL     1     -10.161  13.161  65.386  1.00  0.00    -0.260 C  
HETATM    9  F   UNL     1     -11.791  12.368  66.899  1.00  0.00    -0.405 F  
HETATM   10  C   UNL     1     -10.663  14.159  64.623  1.00  0.00    -0.408 C  
HETATM   11  C   UNL     1     -12.032  13.751  64.151  1.00  0.00    -0.432 C  
HETATM   12  O   UNL     1     -12.908  14.581  63.964  1.00  0.00    -0.672 OA 
HETATM   13  C   UNL     1     -12.232  12.289  63.852  1.00  0.00    -0.608 C  
HETATM   14  C   UNL     1     -11.260  11.389  64.116  1.00  0.00    -0.327 C  
HETATM   15  C   UNL     1      -9.909  11.769  64.748  1.00  0.00    -0.238 C  
HETATM   16  C   UNL     1      -8.924  11.966  63.556  1.00  0.00     0.491 C  
HETATM   17  C   UNL     1      -9.218  10.730  65.786  1.00  0.00    -0.189 C  
HETATM   18  F   UNL     1      -7.853  10.897  65.624  1.00  0.00    -0.155 F  
HETATM   19  C   UNL     1      -9.497   9.215  65.585  1.00  0.00    -0.240 C  
HETATM   20  C   UNL     1      -8.678   8.297  66.533  1.00  0.00    -0.157 C  
HETATM   21  O   UNL     1      -9.218   8.811  64.239  1.00  0.00    -0.342 OA 
HETATM   22  C   UNL     1      -8.528   8.674  68.054  1.00  0.00    -0.127 C  
HETATM   23  H   UNL     1      -9.388   7.884  64.116  1.00  0.00     0.000 HD 
HETATM   24  C   UNL     1      -9.709   8.275  69.078  1.00  0.00    -0.167 C  
HETATM   25  C   UNL     1      -7.185   8.027  68.495  1.00  0.00    -0.085 C  
HETATM   26  H   UNL     1     -10.714   7.202  67.748  1.00  0.00     0.000 HD 
HETATM   27  O   UNL     1     -10.852   7.977  68.278  1.00  0.00    -0.072 OA 
ENDROOT
BRANCH  24  28
HETATM   28  C   UNL     1      -9.477   7.189  70.213  1.00  0.00    -0.162 C  
HETATM   29  O   UNL     1      -8.554   7.180  71.012  1.00  0.00    -0.131 OA 
BRANCH  28  30
HETATM   30  S   UNL     1     -10.833   6.063  70.454  1.00  0.00    -0.325 SA 
HETATM   31  C   UNL     1     -11.634   6.890  71.854  1.00  0.00    -0.286 C  
HETATM   32  F   UNL     1     -12.819   6.269  72.114  1.00  0.00    -0.365 F  
ENDBRANCH  28  30
ENDBRANCH  24  28
TORSDOF 2
ENDMDL
MODEL       16
REMARK 921   NORMALIZED FREE ENERGY PREDICTED BY IDOCK:   -6.29 KCAL/MOL
REMARK 922        TOTAL FREE ENERGY PREDICTED BY IDOCK:   -7.06 KCAL/MOL
REMARK 923 INTER-LIGAND FREE ENERGY PREDICTED BY IDOCK:   -7.18 KCAL/MOL
REMARK 924 INTRA-LIGAND FREE ENERGY PREDICTED BY IDOCK:    0.12 KCAL/MOL
REMARK 927      BINDING AFFINITY PREDICTED BY RF-SCORE:    0.00 PKD
ROOT
HETATM    1  C   UNL     1     -12.268  14.159  66.797  1.00  0.00    -0.429 C  
HETATM    2  C   UNL     1     -11.104  15.109  66.495  1.00  0.00    -0.305 C  
HETATM    3  C   UNL     1     -10.134  14.666  65.402  1.00  0.00    -0.403 C  
HETATM    4  C   UNL     1      -9.042  13.911  66.146  1.00  0.00     0.066 C  
HETATM    5  C   UNL     1      -9.520  12.491  66.587  1.00  0.00    -0.242 C  
HETATM    6  C   UNL     1     -10.085  11.691  65.410  1.00  0.00    -0.299 C  
HETATM    7  C   UNL     1     -10.604  10.369  65.912  1.00  0.00    -0.044 C  
HETATM    8  C   UNL     1      -9.425   9.537  66.323  1.00  0.00    -0.267 C  
HETATM    9  F   UNL     1     -11.431  10.602  66.968  1.00  0.00    -0.299 F  
HETATM   10  C   UNL     1      -9.597   8.197  66.250  1.00  0.00    -0.248 C  
HETATM   11  C   UNL     1     -10.360   7.751  67.469  1.00  0.00    -0.264 C  
HETATM   12  O   UNL     1     -11.122   6.799  67.421  1.00  0.00    -0.328 OA 
HETATM   13  C   UNL     1     -10.071   8.488  68.748  1.00  0.00    -0.210 C  
HETATM   14  C   UNL     1      -9.260   9.569  68.759  1.00  0.00    -0.140 C  
HETATM   15  C   UNL     1      -8.596  10.135  67.490  1.00  0.00    -0.118 C  
HETATM   16  C   UNL     1      -7.174   9.498  67.436  1.00  0.00    -0.087 C  
HETATM   17  C   UNL     1      -8.417  11.744  67.361  1.00  0.00    -0.158 C  
HETATM   18  F   UNL     1      -7.258  11.929  66.627  1.00  0.00    -0.131 F  
HETATM   19  C   UNL     1      -8.237  12.558  68.670  1.00  0.00     0.001 C  
HETATM   20  C   UNL     1      -7.927  14.061  68.434  1.00  0.00    -0.143 C  
HETATM   21  O   UNL     1      -7.182  12.018  69.476  1.00  0.00    -0.333 OA 
HETATM   22  C   UNL     1      -8.727  14.866  67.343  1.00  0.00    -0.208 C  
HETATM   23  H   UNL     1      -7.072  12.517  70.278  1.00  0.00     0.000 HD 
HETATM   24  C   UNL     1     -10.176  15.469  67.723  1.00  0.00    -0.243 C  
HETATM   25  C   UNL     1      -7.765  16.002  66.898  1.00  0.00    -0.279 C  
HETATM   26  H   UNL     1     -10.036  15.012  69.646  1.00  0.00     0.000 HD 
HETATM   27  O   UNL     1     -10.594  14.796  68.908  1.00  0.00    -0.236 OA 
ENDROOT
BRANCH  24  28
HETATM   28  C   UNL     1     -10.412  17.037  67.811  1.00  0.00    -0.349 C  
HETATM   29  O   UNL     1     -10.278  17.722  68.813  1.00  0.00    -0.366 OA 
BRANCH  28  30
HETATM   30  S   UNL     1     -10.647  17.843  66.244  1.00  0.00    -0.146 SA 
HETATM   31  C   UNL     1     -10.284  19.545  66.751  1.00  0.00    -0.435 C  
HETATM   32  F   UNL     1     -10.248  20.338  65.643  1.00  0.00    -0.537 F  
ENDBRANCH  28  30
ENDBRANCH  24  28
TORSDOF 2
ENDMDL
MODEL       17
REMARK 921   NORMALIZED FREE ENERGY PREDICTED BY IDOCK:   -6.26 KCAL/MOL
REMARK 922        TOTAL FREE ENERGY PREDICTED BY IDOCK:   -7.03 KCAL/MOL
REMARK 923 INTER-LIGAND FREE ENERGY PREDICTED BY IDOCK:   -6.94 KCAL/MOL
REMARK 924 INTRA-LIGAND FREE ENERGY PREDICTED BY IDOCK:   -0.08 KCAL/MOL
REMARK 927      BINDING AFFINITY PREDICTED BY RF-SCORE:    0.00 PKD
ROOT
HETATM    1  C   UNL     1      -9.832  11.015  65.086  1.00  0.00    -0.319 C  
HETATM    2  C   UNL     1      -9.832  12.270  65.965  1.00  0.00    -0.263 C  
HETATM    3  C   UNL     1      -8.746  12.347  67.036  1.00  0.00    -0.207 C  
HETATM    4  C   UNL     1      -9.390  11.741  68.274  1.00  0.00    -0.193 C  
HETATM    5  C   UNL     1      -9.476  10.185  68.178  1.00  0.00    -0.151 C  
HETATM    6  C   UNL     1      -8.114   9.560  67.863  1.00  0.00    -0.106 C  
HETATM    7  C   UNL     1      -8.277   8.071  67.701  1.00  0.00    -0.124 C  
HETATM    8  C   UNL     1      -8.587   7.492  69.050  1.00  0.00    -0.136 C  
HETATM    9  F   UNL     1      -9.293   7.841  66.823  1.00  0.00    -0.162 F  
HETATM   10  C   UNL     1      -8.214   6.205  69.236  1.00  0.00    -0.116 C  
HETATM   11  C   UNL     1      -9.245   5.315  68.597  1.00  0.00    -0.116 C  
HETATM   12  O   UNL     1      -8.935   4.238  68.112  1.00  0.00    -0.109 OA 
HETATM   13  C   UNL     1     -10.672   5.788  68.659  1.00  0.00    -0.303 C  
HETATM   14  C   UNL     1     -10.978   7.006  69.159  1.00  0.00    -0.193 C  
HETATM   15  C   UNL     1      -9.916   7.995  69.672  1.00  0.00    -0.188 C  
HETATM   16  C   UNL     1      -9.834   7.767  71.212  1.00  0.00    -0.194 C  
HETATM   17  C   UNL     1     -10.151   9.583  69.425  1.00  0.00    -0.198 C  
HETATM   18  F   UNL     1      -9.565  10.216  70.508  1.00  0.00    -0.221 F  
HETATM   19  C   UNL     1     -11.616  10.095  69.363  1.00  0.00    -0.087 C  
HETATM   20  C   UNL     1     -11.735  11.641  69.271  1.00  0.00    -0.396 C  
HETATM   21  O   UNL     1     -12.364   9.668  70.508  1.00  0.00    -0.461 OA 
HETATM   22  C   UNL     1     -10.786  12.445  68.307  1.00  0.00    -0.250 C  
HETATM   23  H   UNL     1     -13.260   9.982  70.470  1.00  0.00     0.000 HD 
HETATM   24  C   UNL     1     -11.175  12.561  66.745  1.00  0.00    -0.296 C  
HETATM   25  C   UNL     1     -10.671  13.857  68.945  1.00  0.00    -0.256 C  
HETATM   26  H   UNL     1     -12.959  11.727  66.966  1.00  0.00     0.000 HD 
HETATM   27  O   UNL     1     -12.152  11.552  66.497  1.00  0.00    -0.252 OA 
ENDROOT
BRANCH  24  28
HETATM   28  C   UNL     1     -11.582  13.956  66.104  1.00  0.00    -0.359 C  
HETATM   29  O   UNL     1     -12.614  14.569  66.328  1.00  0.00    -0.274 OA 
BRANCH  28  30
HETATM   30  S   UNL     1     -10.288  14.758  65.186  1.00  0.00    -0.394 SA 
HETATM   31  C   UNL     1      -9.847  16.038  66.391  1.00  0.00    -0.288 C  
HETATM   32  F   UNL     1      -8.735  16.694  65.952  1.00  0.00    -0.332 F  
ENDBRANCH  28  30
ENDBRANCH  24  28
TORSDOF 2
ENDMDL
MODEL       18
REMARK 921   NORMALIZED FREE ENERGY PREDICTED BY IDOCK:   -6.24 KCAL/MOL
REMARK 922        TOTAL FREE ENERGY PREDICTED BY IDOCK:   -7.00 KCAL/MOL
REMARK 923 INTER-LIGAND FREE ENERGY PREDICTED BY IDOCK:   -6.68 KCAL/MOL
REMARK 924 INTRA-LIGAND FREE ENERGY PREDICTED BY IDOCK:   -0.32 KCAL/MOL
REMARK 927      BINDING AFFINITY PREDICTED BY RF-SCORE:    0.00 PKD
ROOT
HETATM    1  C   UNL     1     -12.918   7.242  71.004  1.00  0.00    -0.233 C  
HETATM    2  C   UNL     1     -11.778   6.958  71.988  1.00  0.00    -0.336 C  
HETATM    3  C   UNL     1     -11.155   8.174  72.671  1.00  0.00    -0.450 C  
HETATM    4  C   UNL     1      -9.991   8.560  71.769  1.00  0.00    -0.345 C  
HETATM    5  C   UNL     1     -10.479   9.279  70.472  1.00  0.00    -0.312 C  
HETATM    6  C   UNL     1     -11.391  10.467  70.790  1.00  0.00    -0.370 C  
HETATM    7  C   UNL     1     -11.894  11.065  69.502  1.00  0.00    -0.333 C  
HETATM    8  C   UNL     1     -10.735  11.729  68.818  1.00  0.00    -0.255 C  
HETATM    9  F   UNL     1     -12.409  10.066  68.734  1.00  0.00     0.257 F  
HETATM   10  C   UNL     1     -11.048  12.763  68.004  1.00  0.00    -0.284 C  
HETATM   11  C   UNL     1     -11.526  12.204  66.691  1.00  0.00    -0.365 C  
HETATM   12  O   UNL     1     -12.365  12.790  66.024  1.00  0.00    -0.547 OA 
HETATM   13  C   UNL     1     -10.862  10.939  66.218  1.00  0.00    -0.191 C  
HETATM   14  C   UNL     1      -9.973  10.288  67.001  1.00  0.00    -0.249 C  
HETATM   15  C   UNL     1      -9.592  10.762  68.414  1.00  0.00    -0.177 C  
HETATM   16  C   UNL     1      -8.295  11.609  68.241  1.00  0.00    -0.159 C  
HETATM   17  C   UNL     1      -9.297   9.644  69.554  1.00  0.00    -0.200 C  
HETATM   18  F   UNL     1      -8.341  10.205  70.385  1.00  0.00    -0.177 F  
HETATM   19  C   UNL     1      -8.722   8.276  69.094  1.00  0.00    -0.143 C  
HETATM   20  C   UNL     1      -8.337   7.333  70.265  1.00  0.00    -0.135 C  
HETATM   21  O   UNL     1      -7.558   8.452  68.276  1.00  0.00    -0.094 OA 
HETATM   22  C   UNL     1      -9.301   7.183  71.501  1.00  0.00    -0.156 C  
HETATM   23  H   UNL     1      -7.207   7.615  67.994  1.00  0.00     0.000 HD 
HETATM   24  C   UNL     1     -10.546   6.161  71.401  1.00  0.00    -0.243 C  
HETATM   25  C   UNL     1      -8.374   6.796  72.686  1.00  0.00    -0.114 C  
HETATM   26  H   UNL     1      -9.982   5.395  69.663  1.00  0.00     0.000 HD 
HETATM   27  O   UNL     1     -10.722   5.874  70.016  1.00  0.00    -0.268 OA 
ENDROOT
BRANCH  24  28
HETATM   28  C   UNL     1     -10.602   4.849  72.294  1.00  0.00    -0.185 C  
HETATM   29  O   UNL     1     -11.357   4.659  73.234  1.00  0.00    -0.312 OA 
BRANCH  28  30
HETATM   30  S   UNL     1      -9.640   3.487  71.675  1.00  0.00    -0.165 SA 
HETATM   31  C   UNL     1      -9.092   2.795  73.258  1.00  0.00    -0.085 C  
HETATM   32  F   UNL     1      -8.450   1.615  73.026  1.00  0.00    -0.053 F  
ENDBRANCH  28  30
ENDBRANCH  24  28
TORSDOF 2
ENDMDL
MODEL       19
REMARK 921   NORMALIZED FREE ENERGY PREDICTED BY IDOCK:   -6.17 KCAL/MOL
REMARK 922        TOTAL FREE ENERGY PREDICTED BY IDOCK:   -6.92 KCAL/MOL
REMARK 923 INTER-LIGAND FREE ENERGY PREDICTED BY IDOCK:   -6.58 KCAL/MOL
REMARK 924 INTRA-LIGAND FREE ENERGY PREDICTED BY IDOCK:   -0.34 KCAL/MOL
REMARK 927      BINDING AFFINITY PREDICTED BY RF-SCORE:    0.00 PKD
ROOT
HETATM    1  C   UNL     1      -7.404  10.333  70.185  1.00  0.00    -0.115 C  
HETATM    2  C   UNL     1      -7.887   9.293  69.168  1.00  0.00    -0.086 C  
HETATM    3  C   UNL     1      -7.481   9.527  67.715  1.00  0.00    -0.084 C  
HETATM    4  C   UNL     1      -8.635  10.324  67.123  1.00  0.00    -0.126 C  
HETATM    5  C   UNL     1      -8.606  11.814  67.589  1.00  0.00    -0.153 C  
HETATM    6  C   UNL     1      -7.248  12.467  67.321  1.00  0.00    -0.125 C  
HETATM    7  C   UNL     1      -7.255  13.871  67.865  1.00  0.00    -0.158 C  
HETATM    8  C   UNL     1      -8.175  14.692  67.010  1.00  0.00    -0.188 C  
HETATM    9  F   UNL     1      -7.690  13.832  69.155  1.00  0.00    -0.103 F  
HETATM   10  C   UNL     1      -7.898  16.015  66.953  1.00  0.00    -0.284 C  
HETATM   11  C   UNL     1      -8.442  16.667  68.196  1.00  0.00    -0.198 C  
HETATM   12  O   UNL     1      -7.893  17.641  68.688  1.00  0.00    -0.276 OA 
HETATM   13  C   UNL     1      -9.726  16.105  68.742  1.00  0.00    -0.233 C  
HETATM   14  C   UNL     1     -10.283  14.998  68.204  1.00  0.00    -0.221 C  
HETATM   15  C   UNL     1      -9.654  14.225  67.031  1.00  0.00    -0.260 C  
HETATM   16  C   UNL     1     -10.342  14.775  65.745  1.00  0.00    -0.358 C  
HETATM   17  C   UNL     1      -9.791  12.607  67.005  1.00  0.00    -0.225 C  
HETATM   18  F   UNL     1      -9.845  12.262  65.665  1.00  0.00    -0.243 F  
HETATM   19  C   UNL     1     -11.047  11.978  67.667  1.00  0.00    -0.264 C  
HETATM   20  C   UNL     1     -11.160  10.443  67.462  1.00  0.00    -0.336 C  
HETATM   21  O   UNL     1     -12.251  12.573  67.165  1.00  0.00    -0.474 OA 
HETATM   22  C   UNL     1      -9.886   9.534  67.629  1.00  0.00    -0.206 C  
HETATM   23  H   UNL     1     -13.020  12.188  67.570  1.00  0.00     0.000 HD 
HETATM   24  C   UNL     1      -9.449   9.064  69.110  1.00  0.00    -0.153 C  
HETATM   25  C   UNL     1     -10.154   8.299  66.724  1.00  0.00    -0.373 C  
HETATM   26  H   UNL     1     -11.076   9.780  69.987  1.00  0.00     0.000 HD 
HETATM   27  O   UNL     1     -10.136   9.918  70.022  1.00  0.00    -0.240 OA 
ENDROOT
BRANCH  24  28
HETATM   28  C   UNL     1      -9.532   7.538  69.543  1.00  0.00    -0.156 C  
HETATM   29  O   UNL     1      -8.593   6.760  69.594  1.00  0.00    -0.131 OA 
BRANCH  28  30
HETATM   30  S   UNL     1     -11.095   7.046  70.234  1.00  0.00    -0.296 SA 
HETATM   31  C   UNL     1     -10.490   6.254  71.748  1.00  0.00    -0.211 C  
HETATM   32  F   UNL     1     -11.557   5.932  72.534  1.00  0.00    -0.309 F  
ENDBRANCH  28  30
ENDBRANCH  24  28
TORSDOF 2
ENDMDL
MODEL       20
REMARK 921   NORMALIZED FREE ENERGY PREDICTED BY IDOCK:   -6.10 KCAL/MOL
REMARK 922        TOTAL FREE ENERGY PREDICTED BY IDOCK:   -6.84 KCAL/MOL
REMARK 923 INTER-LIGAND FREE ENERGY PREDICTED BY IDOCK:   -6.48 KCAL/MOL
REMARK 924 INTRA-LIGAND FREE ENERGY PREDICTED BY IDOCK:   -0.37 KCAL/MOL
REMARK 927      BINDING AFFINITY PREDICTED BY RF-SCORE:    0.00 PKD
ROOT
HETATM    1  C   UNL     1      -6.578  11.188  69.718  1.00  0.00    -0.138 C  
HETATM    2  C   UNL     1      -6.879   9.894  68.954  1.00  0.00    -0.057 C  
HETATM    3  C   UNL     1      -7.115  10.033  67.452  1.00  0.00    -0.084 C  
HETATM    4  C   UNL     1      -8.620  10.209  67.318  1.00  0.00    -0.125 C  
HETATM    5  C   UNL     1      -9.074  11.644  67.733  1.00  0.00    -0.175 C  
HETATM    6  C   UNL     1      -8.291  12.725  66.983  1.00  0.00    -0.123 C  
HETATM    7  C   UNL     1      -8.713  14.082  67.485  1.00  0.00    -0.198 C  
HETATM    8  C   UNL     1     -10.118  14.328  67.021  1.00  0.00    -0.260 C  
HETATM    9  F   UNL     1      -8.639  14.081  68.845  1.00  0.00    -0.155 F  
HETATM   10  C   UNL     1     -10.464  15.626  66.858  1.00  0.00    -0.307 C  
HETATM   11  C   UNL     1     -10.790  16.202  68.210  1.00  0.00    -0.326 C  
HETATM   12  O   UNL     1     -10.576  17.378  68.462  1.00  0.00    -0.364 OA 
HETATM   13  C   UNL     1     -11.456  15.276  69.192  1.00  0.00    -0.330 C  
HETATM   14  C   UNL     1     -11.634  13.969  68.901  1.00  0.00    -0.351 C  
HETATM   15  C   UNL     1     -11.162  13.328  67.583  1.00  0.00    -0.307 C  
HETATM   16  C   UNL     1     -12.399  13.352  66.634  1.00  0.00    -0.324 C  
HETATM   17  C   UNL     1     -10.602  11.805  67.618  1.00  0.00    -0.205 C  
HETATM   18  F   UNL     1     -10.942  11.257  66.393  1.00  0.00    -0.310 F  
HETATM   19  C   UNL     1     -11.178  10.848  68.697  1.00  0.00    -0.267 C  
HETATM   20  C   UNL     1     -10.690   9.380  68.556  1.00  0.00    -0.203 C  
HETATM   21  O   UNL     1     -12.611  10.835  68.667  1.00  0.00    -0.669 OA 
HETATM   22  C   UNL     1      -9.175   9.083  68.251  1.00  0.00    -0.139 C  
HETATM   23  H   UNL     1     -12.964  10.249  69.327  1.00  0.00     0.000 HD 
HETATM   24  C   UNL     1      -8.121   9.064  69.473  1.00  0.00    -0.105 C  
HETATM   25  C   UNL     1      -9.177   7.714  67.514  1.00  0.00    -0.145 C  
HETATM   26  H   UNL     1      -9.508   9.216  70.880  1.00  0.00     0.000 HD 
HETATM   27  O   UNL     1      -8.762   9.714  70.568  1.00  0.00    -0.218 OA 
ENDROOT
BRANCH  24  28
HETATM   28  C   UNL     1      -7.403   7.719  69.915  1.00  0.00    -0.079 C  
HETATM   29  O   UNL     1      -6.397   7.248  69.407  1.00  0.00    -0.034 OA 
BRANCH  28  30
HETATM   30  S   UNL     1      -8.010   7.015  71.431  1.00  0.00    -0.104 SA 
HETATM   31  C   UNL     1      -9.503   6.214  70.784  1.00  0.00    -0.168 C  
HETATM   32  F   UNL     1     -10.060   5.458  71.772  1.00  0.00    -0.206 F  
ENDBRANCH  28  30
ENDBRANCH  24  28
TORSDOF 2
ENDMDL
MODEL       21
REMARK 921   NORMALIZED FREE ENERGY PREDICTED BY IDOCK:   -5.98 KCAL/MOL
REMARK 922        TOTAL FREE ENERGY PREDICTED BY IDOCK:   -6.71 KCAL/MOL
REMARK 923 INTER-LIGAND FREE ENERGY PREDICTED BY IDOCK:   -6.60 KCAL/MOL
REMARK 924 INTRA-LIGAND FREE ENERGY PREDICTED BY IDOCK:   -0.11 KCAL/MOL
REMARK 927      BINDING AFFINITY PREDICTED BY RF-SCORE:    0.00 PKD
ROOT
HETATM    1  C   UNL     1      -9.575  13.963  68.519  1.00  0.00    -0.185 C  
HETATM    2  C   UNL     1     -10.030  13.960  67.056  1.00  0.00    -0.258 C  
HETATM    3  C   UNL     1      -8.959  14.266  66.012  1.00  0.00     0.259 C  
HETATM    4  C   UNL     1      -9.044  15.772  65.811  1.00  0.00    -0.187 C  
HETATM    5  C   UNL     1      -8.402  16.551  67.002  1.00  0.00    -0.220 C  
HETATM    6  C   UNL     1      -6.973  16.081  67.284  1.00  0.00    -0.240 C  
HETATM    7  C   UNL     1      -6.440  16.807  68.490  1.00  0.00    -0.155 C  
HETATM    8  C   UNL     1      -6.230  18.243  68.109  1.00  0.00    -0.183 C  
HETATM    9  F   UNL     1      -7.349  16.695  69.499  1.00  0.00    -0.238 F  
HETATM   10  C   UNL     1      -5.272  18.901  68.801  1.00  0.00    -0.193 C  
HETATM   11  C   UNL     1      -5.849  19.318  70.128  1.00  0.00    -0.254 C  
HETATM   12  O   UNL     1      -5.147  19.393  71.124  1.00  0.00    -0.221 OA 
HETATM   13  C   UNL     1      -7.302  19.708  70.136  1.00  0.00     0.385 C  
HETATM   14  C   UNL     1      -8.064  19.569  69.028  1.00  0.00    -0.255 C  
HETATM   15  C   UNL     1      -7.527  18.993  67.705  1.00  0.00    -0.271 C  
HETATM   16  C   UNL     1      -7.113  20.225  66.845  1.00  0.00    -0.303 C  
HETATM   17  C   UNL     1      -8.516  18.075  66.802  1.00  0.00    -0.257 C  
HETATM   18  F   UNL     1      -8.138  18.306  65.490  1.00  0.00    -0.024 F  
HETATM   19  C   UNL     1     -10.039  18.367  66.873  1.00  0.00    -0.367 C  
HETATM   20  C   UNL     1     -10.883  17.539  65.867  1.00  0.00     0.014 C  
HETATM   21  O   UNL     1     -10.313  19.753  66.634  1.00  0.00    -0.428 OA 
HETATM   22  C   UNL     1     -10.584  16.006  65.666  1.00  0.00    -0.392 C  
HETATM   23  H   UNL     1     -11.246  19.932  66.677  1.00  0.00     0.000 HD 
HETATM   24  C   UNL     1     -11.216  14.944  66.704  1.00  0.00    -0.340 C  
HETATM   25  C   UNL     1     -11.050  15.694  64.217  1.00  0.00    -0.001 C  
HETATM   26  H   UNL     1     -12.341  16.285  67.634  1.00  0.00     0.000 HD 
HETATM   27  O   UNL     1     -11.629  15.693  67.845  1.00  0.00    -0.305 OA 
ENDROOT
BRANCH  24  28
HETATM   28  C   UNL     1     -12.323  13.905  66.240  1.00  0.00    -0.449 C  
HETATM   29  O   UNL     1     -13.438  14.188  65.829  1.00  0.00    -0.440 OA 
BRANCH  28  30
HETATM   30  S   UNL     1     -11.754  12.227  66.094  1.00  0.00    -0.315 SA 
HETATM   31  C   UNL     1     -11.668  12.121  64.286  1.00  0.00    -0.373 C  
HETATM   32  F   UNL     1     -11.087  10.937  63.940  1.00  0.00    -0.402 F  
ENDBRANCH  28  30
ENDBRANCH  24  28
TORSDOF 2
ENDMDL
MODEL       22
REMARK 921   NORMALIZED FREE ENERGY PREDICTED BY IDOCK:   -5.90 KCAL/MOL
REMARK 922        TOTAL FREE ENERGY PREDICTED BY IDOCK:   -6.62 KCAL/MOL
REMARK 923 INTER-LIGAND FREE ENERGY PREDICTED BY IDOCK:   -6.32 KCAL/MOL
REMARK 924 INTRA-LIGAND FREE ENERGY PREDICTED BY IDOCK:   -0.30 KCAL/MOL
REMARK 927      BINDING AFFINITY PREDICTED BY RF-SCORE:    0.00 PKD
ROOT
HETATM    1  C   UNL     1     -12.302  13.966  66.728  1.00  0.00    -0.370 C  
HETATM    2  C   UNL     1     -11.184  14.885  66.224  1.00  0.00    -0.331 C  
HETATM    3  C   UNL     1     -10.234  14.291  65.187  1.00  0.00    -0.414 C  
HETATM    4  C   UNL     1      -9.092  13.709  66.007  1.00  0.00     0.205 C  
HETATM    5  C   UNL     1      -9.502  12.372  66.702  1.00  0.00    -0.232 C  
HETATM    6  C   UNL     1     -10.074  11.365  65.702  1.00  0.00    -0.293 C  
HETATM    7  C   UNL     1     -10.527  10.133  66.441  1.00  0.00    -0.140 C  
HETATM    8  C   UNL     1      -9.306   9.421  66.943  1.00  0.00    -0.188 C  
HETATM    9  F   UNL     1     -11.329  10.519  67.472  1.00  0.00    -0.363 F  
HETATM   10  C   UNL     1      -9.431   8.084  67.107  1.00  0.00    -0.207 C  
HETATM   11  C   UNL     1     -10.137   7.831  68.412  1.00  0.00    -0.192 C  
HETATM   12  O   UNL     1     -10.865   6.861  68.556  1.00  0.00    -0.215 OA 
HETATM   13  C   UNL     1      -9.836   8.786  69.535  1.00  0.00    -0.180 C  
HETATM   14  C   UNL     1      -9.065   9.877  69.330  1.00  0.00    -0.196 C  
HETATM   15  C   UNL     1      -8.463  10.236  67.959  1.00  0.00    -0.118 C  
HETATM   16  C   UNL     1      -7.021   9.644  67.961  1.00  0.00    -0.078 C  
HETATM   17  C   UNL     1      -8.348  11.804  67.550  1.00  0.00    -0.154 C  
HETATM   18  F   UNL     1      -7.221  11.896  66.752  1.00  0.00    -0.140 F  
HETATM   19  C   UNL     1      -8.156  12.837  68.693  1.00  0.00    -0.007 C  
HETATM   20  C   UNL     1      -7.910  14.286  68.193  1.00  0.00    -0.139 C  
HETATM   21  O   UNL     1      -7.058  12.476  69.539  1.00  0.00    -0.325 OA 
HETATM   22  C   UNL     1      -8.774  14.865  67.011  1.00  0.00    -0.263 C  
HETATM   23  H   UNL     1      -6.940  13.108  70.239  1.00  0.00     0.000 HD 
HETATM   24  C   UNL     1     -10.231  15.480  67.337  1.00  0.00    -0.255 C  
HETATM   25  C   UNL     1      -7.870  15.937  66.342  1.00  0.00    -0.041 C  
HETATM   26  H   UNL     1     -10.014  15.365  69.303  1.00  0.00     0.000 HD 
HETATM   27  O   UNL     1     -10.586  15.008  68.635  1.00  0.00    -0.225 OA 
ENDROOT
BRANCH  24  28
HETATM   28  C   UNL     1     -10.523  17.031  67.165  1.00  0.00    -0.291 C  
HETATM   29  O   UNL     1     -11.005  17.560  66.176  1.00  0.00    -0.035 OA 
BRANCH  28  30
HETATM   30  S   UNL     1     -10.344  17.990  68.652  1.00  0.00    -0.242 SA 
HETATM   31  C   UNL     1     -10.283  19.642  67.909  1.00  0.00    -0.448 C  
HETATM   32  F   UNL     1     -10.308  20.575  68.903  1.00  0.00    -0.442 F  
ENDBRANCH  28  30
ENDBRANCH  24  28
TORSDOF 2
ENDMDL
MODEL       23
REMARK 921   NORMALIZED FREE ENERGY PREDICTED BY IDOCK:   -5.88 KCAL/MOL
REMARK 922        TOTAL FREE ENERGY PREDICTED BY IDOCK:   -6.60 KCAL/MOL
REMARK 923 INTER-LIGAND FREE ENERGY PREDICTED BY IDOCK:   -6.65 KCAL/MOL
REMARK 924 INTRA-LIGAND FREE ENERGY PREDICTED BY IDOCK:    0.04 KCAL/MOL
REMARK 927      BINDING AFFINITY PREDICTED BY RF-SCORE:    0.00 PKD
ROOT
HETATM    1  C   UNL     1     -11.106  14.033  69.820  1.00  0.00    -0.101 C  
HETATM    2  C   UNL     1     -11.119  14.014  68.288  1.00  0.00    -0.275 C  
HETATM    3  C   UNL     1     -12.092  13.037  67.631  1.00  0.00    -0.262 C  
HETATM    4  C   UNL     1     -11.275  11.770  67.424  1.00  0.00    -0.357 C  
HETATM    5  C   UNL     1     -11.069  10.991  68.761  1.00  0.00    -0.293 C  
HETATM    6  C   UNL     1     -12.398  10.718  69.469  1.00  0.00    -0.208 C  
HETATM    7  C   UNL     1     -12.129  10.040  70.787  1.00  0.00    -0.327 C  
HETATM    8  C   UNL     1     -11.634   8.654  70.500  1.00  0.00    -0.158 C  
HETATM    9  F   UNL     1     -11.194  10.765  71.462  1.00  0.00     0.079 F  
HETATM   10  C   UNL     1     -11.877   7.733  71.461  1.00  0.00    -0.324 C  
HETATM   11  C   UNL     1     -10.846   7.896  72.545  1.00  0.00    -0.341 C  
HETATM   12  O   UNL     1     -11.114   7.650  73.711  1.00  0.00    -0.142 OA 
HETATM   13  C   UNL     1      -9.465   8.298  72.104  1.00  0.00    -0.328 C  
HETATM   14  C   UNL     1      -9.213   8.610  70.814  1.00  0.00    -0.223 C  
HETATM   15  C   UNL     1     -10.294   8.602  69.719  1.00  0.00    -0.212 C  
HETATM   16  C   UNL     1     -10.197   7.203  69.038  1.00  0.00    -0.191 C  
HETATM   17  C   UNL     1     -10.220   9.723  68.546  1.00  0.00    -0.186 C  
HETATM   18  F   UNL     1     -10.742   9.113  67.418  1.00  0.00    -0.320 F  
HETATM   19  C   UNL     1      -8.818  10.254  68.143  1.00  0.00    -0.123 C  
HETATM   20  C   UNL     1      -8.839  11.209  66.918  1.00  0.00    -0.157 C  
HETATM   21  O   UNL     1      -7.922   9.178  67.840  1.00  0.00    -0.100 OA 
HETATM   22  C   UNL     1      -9.946  12.322  66.810  1.00  0.00    -0.217 C  
HETATM   23  H   UNL     1      -7.064   9.503  67.593  1.00  0.00     0.000 HD 
HETATM   24  C   UNL     1      -9.732  13.717  67.592  1.00  0.00    -0.227 C  
HETATM   25  C   UNL     1     -10.112  12.574  65.285  1.00  0.00    -0.275 C  
HETATM   26  H   UNL     1      -7.871  13.307  68.137  1.00  0.00     0.000 HD 
HETATM   27  O   UNL     1      -8.705  13.486  68.554  1.00  0.00    -0.160 OA 
ENDROOT
BRANCH  24  28
HETATM   28  C   UNL     1      -9.511  15.075  66.800  1.00  0.00    -0.246 C  
HETATM   29  O   UNL     1      -8.455  15.458  66.323  1.00  0.00    -0.225 OA 
BRANCH  28  30
HETATM   30  S   UNL     1     -11.006  15.948  66.390  1.00  0.00    -0.027 SA 
HETATM   31  C   UNL     1     -10.919  15.811  64.585  1.00  0.00    -0.314 C  
HETATM   32  F   UNL     1     -12.079  16.287  64.050  1.00  0.00    -0.407 F  
ENDBRANCH  28  30
ENDBRANCH  24  28
TORSDOF 2
ENDMDL
MODEL       24
REMARK 921   NORMALIZED FREE ENERGY PREDICTED BY IDOCK:   -5.88 KCAL/MOL
REMARK 922        TOTAL FREE ENERGY PREDICTED BY IDOCK:   -6.60 KCAL/MOL
REMARK 923 INTER-LIGAND FREE ENERGY PREDICTED BY IDOCK:   -6.58 KCAL/MOL
REMARK 924 INTRA-LIGAND FREE ENERGY PREDICTED BY IDOCK:   -0.01 KCAL/MOL
REMARK 927      BINDING AFFINITY PREDICTED BY RF-SCORE:    0.00 PKD
ROOT
HETATM    1  C   UNL     1     -10.904   7.824  68.820  1.00  0.00    -0.006 C  
HETATM    2  C   UNL     1      -9.641   7.865  69.688  1.00  0.00    -0.164 C  
HETATM    3  C   UNL     1      -9.496   9.066  70.619  1.00  0.00    -0.286 C  
HETATM    4  C   UNL     1      -8.711  10.085  69.805  1.00  0.00    -0.198 C  
HETATM    5  C   UNL     1      -9.601  10.769  68.720  1.00  0.00    -0.194 C  
HETATM    6  C   UNL     1     -10.876  11.363  69.325  1.00  0.00    -0.242 C  
HETATM    7  C   UNL     1     -11.729  11.933  68.222  1.00  0.00    -0.321 C  
HETATM    8  C   UNL     1     -11.037  13.150  67.685  1.00  0.00    -0.295 C  
HETATM    9  F   UNL     1     -11.875  10.985  67.255  1.00  0.00    -0.264 F  
HETATM   10  C   UNL     1     -11.841  14.091  67.139  1.00  0.00    -0.444 C  
HETATM   11  C   UNL     1     -12.198  13.656  65.743  1.00  0.00    -0.464 C  
HETATM   12  O   UNL     1     -13.277  13.947  65.249  1.00  0.00    -0.774 OA 
HETATM   13  C   UNL     1     -11.134  12.919  64.976  1.00  0.00    -0.320 C  
HETATM   14  C   UNL     1      -9.970  12.569  65.566  1.00  0.00    -0.248 C  
HETATM   15  C   UNL     1      -9.653  12.867  67.043  1.00  0.00    -0.231 C  
HETATM   16  C   UNL     1      -8.850  14.203  67.041  1.00  0.00    -0.237 C  
HETATM   17  C   UNL     1      -8.791  11.780  67.886  1.00  0.00    -0.165 C  
HETATM   18  F   UNL     1      -8.061  12.517  68.803  1.00  0.00    -0.121 F  
HETATM   19  C   UNL     1      -7.764  10.912  67.109  1.00  0.00    -0.123 C  
HETATM   20  C   UNL     1      -6.889  10.011  68.022  1.00  0.00    -0.068 C  
HETATM   21  O   UNL     1      -6.881  11.728  66.329  1.00  0.00    -0.368 OA 
HETATM   22  C   UNL     1      -7.552   9.220  69.210  1.00  0.00    -0.080 C  
HETATM   23  H   UNL     1      -6.253  11.197  65.853  1.00  0.00     0.000 HD 
HETATM   24  C   UNL     1      -8.269   7.806  68.905  1.00  0.00    -0.127 C  
HETATM   25  C   UNL     1      -6.414   9.038  70.253  1.00  0.00    -0.043 C  
HETATM   26  H   UNL     1      -7.650   7.720  67.024  1.00  0.00     0.000 HD 
HETATM   27  O   UNL     1      -8.474   7.755  67.495  1.00  0.00    -0.119 OA 
ENDROOT
BRANCH  24  28
HETATM   28  C   UNL     1      -7.674   6.447  69.471  1.00  0.00    -0.100 C  
HETATM   29  O   UNL     1      -6.590   5.968  69.179  1.00  0.00    -0.047 OA 
BRANCH  28  30
HETATM   30  S   UNL     1      -8.593   5.737  70.818  1.00  0.00    -0.130 SA 
HETATM   31  C   UNL     1      -9.379   4.370  69.924  1.00  0.00    -0.155 C  
HETATM   32  F   UNL     1     -10.027   3.571  70.820  1.00  0.00    -0.249 F  
ENDBRANCH  28  30
ENDBRANCH  24  28
TORSDOF 2
ENDMDL
MODEL       25
REMARK 921   NORMALIZED FREE ENERGY PREDICTED BY IDOCK:   -5.84 KCAL/MOL
REMARK 922        TOTAL FREE ENERGY PREDICTED BY IDOCK:   -6.55 KCAL/MOL
REMARK 923 INTER-LIGAND FREE ENERGY PREDICTED BY IDOCK:   -6.34 KCAL/MOL
REMARK 924 INTRA-LIGAND FREE ENERGY PREDICTED BY IDOCK:   -0.21 KCAL/MOL
REMARK 927      BINDING AFFINITY PREDICTED BY RF-SCORE:    0.00 PKD
ROOT
HETATM    1  C   UNL     1     -11.214   7.190  69.726  1.00  0.00    -0.206 C  
HETATM    2  C   UNL     1     -10.007   7.301  70.664  1.00  0.00    -0.187 C  
HETATM    3  C   UNL     1      -9.848   8.624  71.409  1.00  0.00    -0.327 C  
HETATM    4  C   UNL     1      -8.952   9.462  70.508  1.00  0.00    -0.303 C  
HETATM    5  C   UNL     1      -9.731  10.013  69.272  1.00  0.00    -0.227 C  
HETATM    6  C   UNL     1     -11.002  10.758  69.687  1.00  0.00    -0.320 C  
HETATM    7  C   UNL     1     -11.749  11.192  68.453  1.00  0.00    -0.279 C  
HETATM    8  C   UNL     1     -10.951  12.274  67.787  1.00  0.00    -0.274 C  
HETATM    9  F   UNL     1     -11.892  10.113  67.634  1.00  0.00    -0.050 F  
HETATM   10  C   UNL     1     -11.662  13.157  67.049  1.00  0.00    -0.431 C  
HETATM   11  C   UNL     1     -11.958  12.529  65.714  1.00  0.00    -0.420 C  
HETATM   12  O   UNL     1     -12.983  12.794  65.106  1.00  0.00    -0.768 OA 
HETATM   13  C   UNL     1     -10.895  11.628  65.144  1.00  0.00    -0.346 C  
HETATM   14  C   UNL     1      -9.794  11.316  65.862  1.00  0.00    -0.272 C  
HETATM   15  C   UNL     1      -9.550  11.824  67.294  1.00  0.00    -0.182 C  
HETATM   16  C   UNL     1      -8.669  13.101  67.146  1.00  0.00    -0.214 C  
HETATM   17  C   UNL     1      -8.810  10.839  68.352  1.00  0.00    -0.146 C  
HETATM   18  F   UNL     1      -8.094  11.672  69.195  1.00  0.00    -0.089 F  
HETATM   19  C   UNL     1      -7.792   9.810  67.791  1.00  0.00    -0.094 C  
HETATM   20  C   UNL     1      -7.032   9.018  68.889  1.00  0.00    -0.065 C  
HETATM   21  O   UNL     1      -6.815  10.448  66.959  1.00  0.00    -0.080 OA 
HETATM   22  C   UNL     1      -7.814   8.457  70.135  1.00  0.00    -0.102 C  
HETATM   23  H   UNL     1      -6.191   9.818  66.616  1.00  0.00     0.000 HD 
HETATM   24  C   UNL     1      -8.596   7.051  69.998  1.00  0.00    -0.141 C  
HETATM   25  C   UNL     1      -6.756   8.382  71.271  1.00  0.00    -0.059 C  
HETATM   26  H   UNL     1      -7.868   6.641  68.201  1.00  0.00     0.000 HD 
HETATM   27  O   UNL     1      -8.716   6.791  68.601  1.00  0.00    -0.125 OA 
ENDROOT
BRANCH  24  28
HETATM   28  C   UNL     1      -8.121   5.768  70.804  1.00  0.00    -0.118 C  
HETATM   29  O   UNL     1      -8.173   5.629  72.016  1.00  0.00    -0.113 OA 
BRANCH  28  30
HETATM   30  S   UNL     1      -7.721   4.361  69.794  1.00  0.00    -0.053 SA 
HETATM   31  C   UNL     1      -9.333   3.533  69.823  1.00  0.00    -0.174 C  
HETATM   32  F   UNL     1      -9.304   2.479  68.958  1.00  0.00    -0.176 F  
ENDBRANCH  28  30
ENDBRANCH  24  28
TORSDOF 2
ENDMDL
MODEL       26
REMARK 921   NORMALIZED FREE ENERGY PREDICTED BY IDOCK:   -5.84 KCAL/MOL
REMARK 922        TOTAL FREE ENERGY PREDICTED BY IDOCK:   -6.55 KCAL/MOL
REMARK 923 INTER-LIGAND FREE ENERGY PREDICTED BY IDOCK:   -6.29 KCAL/MOL
REMARK 924 INTRA-LIGAND FREE ENERGY PREDICTED BY IDOCK:   -0.26 KCAL/MOL
REMARK 927      BINDING AFFINITY PREDICTED BY RF-SCORE:    0.00 PKD
ROOT
HETATM    1  C   UNL     1     -10.771   7.803  69.023  1.00  0.00    -0.119 C  
HETATM    2  C   UNL     1      -9.498   7.913  69.871  1.00  0.00    -0.160 C  
HETATM    3  C   UNL     1      -9.382   9.148  70.761  1.00  0.00    -0.325 C  
HETATM    4  C   UNL     1      -8.642  10.165  69.905  1.00  0.00    -0.100 C  
HETATM    5  C   UNL     1      -9.569  10.784  68.811  1.00  0.00    -0.194 C  
HETATM    6  C   UNL     1     -10.855  11.355  69.414  1.00  0.00    -0.214 C  
HETATM    7  C   UNL     1     -11.741  11.861  68.307  1.00  0.00    -0.321 C  
HETATM    8  C   UNL     1     -11.097  13.082  67.721  1.00  0.00    -0.291 C  
HETATM    9  F   UNL     1     -11.868  10.878  67.373  1.00  0.00    -0.271 F  
HETATM   10  C   UNL     1     -11.939  13.978  67.157  1.00  0.00    -0.465 C  
HETATM   11  C   UNL     1     -12.300  13.486  65.781  1.00  0.00    -0.468 C  
HETATM   12  O   UNL     1     -13.394  13.726  65.293  1.00  0.00    -0.710 OA 
HETATM   13  C   UNL     1     -11.222  12.761  65.022  1.00  0.00    -0.333 C  
HETATM   14  C   UNL     1     -10.039  12.468  65.607  1.00  0.00    -0.285 C  
HETATM   15  C   UNL     1      -9.713  12.825  67.068  1.00  0.00    -0.224 C  
HETATM   16  C   UNL     1      -8.955  14.186  67.013  1.00  0.00    -0.251 C  
HETATM   17  C   UNL     1      -8.804  11.794  67.934  1.00  0.00    -0.165 C  
HETATM   18  F   UNL     1      -8.087  12.584  68.816  1.00  0.00    -0.121 F  
HETATM   19  C   UNL     1      -7.759  10.936  67.170  1.00  0.00    -0.123 C  
HETATM   20  C   UNL     1      -6.843  10.094  68.099  1.00  0.00    -0.066 C  
HETATM   21  O   UNL     1      -6.914  11.755  66.352  1.00  0.00    -0.372 OA 
HETATM   22  C   UNL     1      -7.463   9.320  69.321  1.00  0.00    -0.075 C  
HETATM   23  H   UNL     1      -6.275  11.230  65.884  1.00  0.00     0.000 HD 
HETATM   24  C   UNL     1      -8.136   7.874  69.071  1.00  0.00    -0.124 C  
HETATM   25  C   UNL     1      -6.306   9.209  70.353  1.00  0.00    -0.048 C  
HETATM   26  H   UNL     1      -7.539   7.748  67.185  1.00  0.00     0.000 HD 
HETATM   27  O   UNL     1      -8.358   7.771  67.666  1.00  0.00    -0.119 OA 
ENDROOT
BRANCH  24  28
HETATM   28  C   UNL     1      -7.488   6.555  69.671  1.00  0.00    -0.093 C  
HETATM   29  O   UNL     1      -7.668   6.122  70.798  1.00  0.00    -0.097 OA 
BRANCH  28  30
HETATM   30  S   UNL     1      -6.641   5.536  68.484  1.00  0.00    -0.053 SA 
HETATM   31  C   UNL     1      -7.392   3.941  68.904  1.00  0.00    -0.054 C  
HETATM   32  F   UNL     1      -6.996   3.012  67.988  1.00  0.00    -0.046 F  
ENDBRANCH  28  30
ENDBRANCH  24  28
TORSDOF 2
ENDMDL
MODEL       27
REMARK 921   NORMALIZED FREE ENERGY PREDICTED BY IDOCK:   -5.82 KCAL/MOL
REMARK 922        TOTAL FREE ENERGY PREDICTED BY IDOCK:   -6.53 KCAL/MOL
REMARK 923 INTER-LIGAND FREE ENERGY PREDICTED BY IDOCK:   -6.19 KCAL/MOL
REMARK 924 INTRA-LIGAND FREE ENERGY PREDICTED BY IDOCK:   -0.34 KCAL/MOL
REMARK 927      BINDING AFFINITY PREDICTED BY RF-SCORE:    0.00 PKD
ROOT
HETATM    1  C   UNL     1      -7.221   8.445  66.731  1.00  0.00    -0.078 C  
HETATM    2  C   UNL     1      -8.330   7.467  67.134  1.00  0.00    -0.118 C  
HETATM    3  C   UNL     1      -9.663   7.615  66.404  1.00  0.00    -0.197 C  
HETATM    4  C   UNL     1     -10.473   8.558  67.281  1.00  0.00    -0.366 C  
HETATM    5  C   UNL     1      -9.992  10.037  67.138  1.00  0.00    -0.251 C  
HETATM    6  C   UNL     1      -9.961  10.484  65.674  1.00  0.00    -0.332 C  
HETATM    7  C   UNL     1      -9.412  11.884  65.594  1.00  0.00    -0.166 C  
HETATM    8  C   UNL     1     -10.430  12.813  66.187  1.00  0.00    -0.284 C  
HETATM    9  F   UNL     1      -8.242  11.930  66.290  1.00  0.00    -0.133 F  
HETATM   10  C   UNL     1     -10.411  14.082  65.717  1.00  0.00    -0.330 C  
HETATM   11  C   UNL     1      -9.301  14.827  66.410  1.00  0.00    -0.291 C  
HETATM   12  O   UNL     1      -8.692  15.720  65.843  1.00  0.00    -0.260 OA 
HETATM   13  C   UNL     1      -9.044  14.463  67.848  1.00  0.00    -0.187 C  
HETATM   14  C   UNL     1      -9.702  13.438  68.432  1.00  0.00    -0.201 C  
HETATM   15  C   UNL     1     -10.726  12.563  67.689  1.00  0.00    -0.242 C  
HETATM   16  C   UNL     1     -12.121  13.183  68.005  1.00  0.00    -0.240 C  
HETATM   17  C   UNL     1     -10.802  10.981  68.048  1.00  0.00    -0.229 C  
HETATM   18  F   UNL     1     -12.127  10.623  67.868  1.00  0.00    -0.167 F  
HETATM   19  C   UNL     1     -10.427  10.549  69.492  1.00  0.00    -0.235 C  
HETATM   20  C   UNL     1     -10.671   9.042  69.777  1.00  0.00    -0.233 C  
HETATM   21  O   UNL     1     -11.162  11.301  70.465  1.00  0.00    -0.420 OA 
HETATM   22  C   UNL     1     -10.252   7.964  68.710  1.00  0.00    -0.218 C  
HETATM   23  H   UNL     1     -10.933  11.037  71.349  1.00  0.00     0.000 HD 
HETATM   24  C   UNL     1      -8.718   7.462  68.666  1.00  0.00    -0.128 C  
HETATM   25  C   UNL     1     -11.208   6.764  68.958  1.00  0.00    -0.214 C  
HETATM   26  H   UNL     1      -8.193   8.419  70.320  1.00  0.00     0.000 HD 
HETATM   27  O   UNL     1      -7.959   8.422  69.400  1.00  0.00    -0.107 OA 
ENDROOT
BRANCH  24  28
HETATM   28  C   UNL     1      -8.332   5.972  69.056  1.00  0.00    -0.111 C  
HETATM   29  O   UNL     1      -8.300   5.021  68.291  1.00  0.00    -0.095 OA 
BRANCH  28  30
HETATM   30  S   UNL     1      -7.663   5.782  70.693  1.00  0.00    -0.094 SA 
HETATM   31  C   UNL     1      -9.212   5.506  71.594  1.00  0.00    -0.142 C  
HETATM   32  F   UNL     1      -8.919   5.169  72.882  1.00  0.00    -0.120 F  
ENDBRANCH  28  30
ENDBRANCH  24  28
TORSDOF 2
ENDMDL
MODEL       28
REMARK 921   NORMALIZED FREE ENERGY PREDICTED BY IDOCK:   -5.81 KCAL/MOL
REMARK 922        TOTAL FREE ENERGY PREDICTED BY IDOCK:   -6.52 KCAL/MOL
REMARK 923 INTER-LIGAND FREE ENERGY PREDICTED BY IDOCK:   -6.36 KCAL/MOL
REMARK 924 INTRA-LIGAND FREE ENERGY PREDICTED BY IDOCK:   -0.16 KCAL/MOL
REMARK 927      BINDING AFFINITY PREDICTED BY RF-SCORE:    0.00 PKD
ROOT
HETATM    1  C   UNL     1     -12.033   6.932  70.394  1.00  0.00    -0.312 C  
HETATM    2  C   UNL     1     -11.262   7.182  71.694  1.00  0.00    -0.275 C  
HETATM    3  C   UNL     1     -11.061   8.643  72.092  1.00  0.00    -0.434 C  
HETATM    4  C   UNL     1      -9.721   9.022  71.477  1.00  0.00    -0.365 C  
HETATM    5  C   UNL     1      -9.833   9.240  69.935  1.00  0.00    -0.219 C  
HETATM    6  C   UNL     1     -10.940  10.237  69.583  1.00  0.00    -0.314 C  
HETATM    7  C   UNL     1     -11.055  10.342  68.084  1.00  0.00    -0.285 C  
HETATM    8  C   UNL     1      -9.827  11.039  67.575  1.00  0.00    -0.190 C  
HETATM    9  F   UNL     1     -11.154   9.085  67.570  1.00  0.00    -0.289 F  
HETATM   10  C   UNL     1      -9.977  11.721  66.417  1.00  0.00    -0.237 C  
HETATM   11  C   UNL     1      -9.914  10.739  65.278  1.00  0.00    -0.282 C  
HETATM   12  O   UNL     1     -10.548  10.924  64.251  1.00  0.00    -0.368 OA 
HETATM   13  C   UNL     1      -8.977   9.574  65.446  1.00  0.00    -0.244 C  
HETATM   14  C   UNL     1      -8.327   9.370  66.613  1.00  0.00    -0.119 C  
HETATM   15  C   UNL     1      -8.503  10.277  67.844  1.00  0.00    -0.118 C  
HETATM   16  C   UNL     1      -7.339  11.313  67.775  1.00  0.00    -0.094 C  
HETATM   17  C   UNL     1      -8.468   9.599  69.319  1.00  0.00    -0.150 C  
HETATM   18  F   UNL     1      -7.924  10.560  70.155  1.00  0.00    -0.132 F  
HETATM   19  C   UNL     1      -7.605   8.322  69.507  1.00  0.00    -0.095 C  
HETATM   20  C   UNL     1      -7.519   7.836  70.979  1.00  0.00    -0.074 C  
HETATM   21  O   UNL     1      -6.267   8.526  69.036  1.00  0.00    -0.042 OA 
HETATM   22  C   UNL     1      -8.813   7.812  71.874  1.00  0.00    -0.155 C  
HETATM   23  H   UNL     1      -5.739   7.744  69.151  1.00  0.00     0.000 HD 
HETATM   24  C   UNL     1      -9.815   6.551  71.767  1.00  0.00    -0.165 C  
HETATM   25  C   UNL     1      -8.295   7.972  73.331  1.00  0.00    -0.278 C  
HETATM   26  H   UNL     1      -8.611   5.493  70.602  1.00  0.00     0.000 HD 
HETATM   27  O   UNL     1      -9.480   5.872  70.558  1.00  0.00    -0.163 OA 
ENDROOT
BRANCH  24  28
HETATM   28  C   UNL     1     -10.001   5.547  72.983  1.00  0.00    -0.176 C  
HETATM   29  O   UNL     1     -10.596   5.788  74.021  1.00  0.00    -0.271 OA 
BRANCH  28  30
HETATM   30  S   UNL     1      -9.496   3.875  72.650  1.00  0.00    -0.125 SA 
HETATM   31  C   UNL     1     -10.929   3.010  73.347  1.00  0.00    -0.200 C  
HETATM   32  F   UNL     1     -10.829   1.682  73.053  1.00  0.00    -0.187 F  
ENDBRANCH  28  30
ENDBRANCH  24  28
TORSDOF 2
ENDMDL
MODEL       29
REMARK 921   NORMALIZED FREE ENERGY PREDICTED BY IDOCK:   -5.80 KCAL/MOL
REMARK 922        TOTAL FREE ENERGY PREDICTED BY IDOCK:   -6.51 KCAL/MOL
REMARK 923 INTER-LIGAND FREE ENERGY PREDICTED BY IDOCK:   -6.34 KCAL/MOL
REMARK 924 INTRA-LIGAND FREE ENERGY PREDICTED BY IDOCK:   -0.17 KCAL/MOL
REMARK 927      BINDING AFFINITY PREDICTED BY RF-SCORE:    0.00 PKD
ROOT
HETATM    1  C   UNL     1      -7.539  11.598  69.523  1.00  0.00     0.344 C  
HETATM    2  C   UNL     1      -7.949  10.622  68.414  1.00  0.00    -0.120 C  
HETATM    3  C   UNL     1      -7.573  11.020  66.989  1.00  0.00    -0.127 C  
HETATM    4  C   UNL     1      -8.788  11.779  66.474  1.00  0.00    -0.183 C  
HETATM    5  C   UNL     1      -8.868  13.217  67.076  1.00  0.00    -0.216 C  
HETATM    6  C   UNL     1      -7.565  13.993  66.869  1.00  0.00     0.439 C  
HETATM    7  C   UNL     1      -7.675  15.336  67.541  1.00  0.00    -0.176 C  
HETATM    8  C   UNL     1      -8.660  16.161  66.766  1.00  0.00    -0.282 C  
HETATM    9  F   UNL     1      -8.096  15.145  68.822  1.00  0.00    -0.130 F  
HETATM   10  C   UNL     1      -8.485  17.501  66.831  1.00  0.00    -0.261 C  
HETATM   11  C   UNL     1      -9.067  17.992  68.129  1.00  0.00    -0.276 C  
HETATM   12  O   UNL     1      -8.590  18.954  68.709  1.00  0.00    -0.345 OA 
HETATM   13  C   UNL     1     -10.301  17.286  68.621  1.00  0.00    -0.357 C  
HETATM   14  C   UNL     1     -10.777  16.194  67.983  1.00  0.00    -0.321 C  
HETATM   15  C   UNL     1     -10.100  15.583  66.743  1.00  0.00    -0.268 C  
HETATM   16  C   UNL     1     -10.836  16.195  65.514  1.00  0.00    -0.280 C  
HETATM   17  C   UNL     1     -10.114  13.968  66.568  1.00  0.00    -0.285 C  
HETATM   18  F   UNL     1     -10.152  13.745  65.202  1.00  0.00    -0.331 F  
HETATM   19  C   UNL     1     -11.315  13.187  67.168  1.00  0.00    -0.316 C  
HETATM   20  C   UNL     1     -11.312  11.673  66.822  1.00  0.00    -0.354 C  
HETATM   21  O   UNL     1     -12.563  13.733  66.724  1.00  0.00    -0.408 OA 
HETATM   22  C   UNL     1      -9.972  10.852  66.904  1.00  0.00    -0.232 C  
HETATM   23  H   UNL     1     -13.298  13.255  67.092  1.00  0.00     0.000 HD 
HETATM   24  C   UNL     1      -9.490  10.282  68.335  1.00  0.00    -0.146 C  
HETATM   25  C   UNL     1     -10.153   9.689  65.889  1.00  0.00    -0.304 C  
HETATM   26  H   UNL     1     -11.160  10.789  69.275  1.00  0.00     0.000 HD 
HETATM   27  O   UNL     1     -10.234  10.993  69.323  1.00  0.00    -0.204 OA 
ENDROOT
BRANCH  24  28
HETATM   28  C   UNL     1      -9.455   8.721  68.625  1.00  0.00    -0.141 C  
HETATM   29  O   UNL     1      -8.637   7.932  68.179  1.00  0.00    -0.123 OA 
BRANCH  28  30
HETATM   30  S   UNL     1     -10.566   8.177  69.902  1.00  0.00    -0.234 SA 
HETATM   31  C   UNL     1     -10.799   6.465  69.354  1.00  0.00    -0.321 C  
HETATM   32  F   UNL     1     -11.512   5.791  70.301  1.00  0.00    -0.384 F  
ENDBRANCH  28  30
ENDBRANCH  24  28
TORSDOF 2
ENDMDL
MODEL       30
REMARK 921   NORMALIZED FREE ENERGY PREDICTED BY IDOCK:   -5.77 KCAL/MOL
REMARK 922        TOTAL FREE ENERGY PREDICTED BY IDOCK:   -6.48 KCAL/MOL
REMARK 923 INTER-LIGAND FREE ENERGY PREDICTED BY IDOCK:   -6.18 KCAL/MOL
REMARK 924 INTRA-LIGAND FREE ENERGY PREDICTED BY IDOCK:   -0.30 KCAL/MOL
REMARK 927      BINDING AFFINITY PREDICTED BY RF-SCORE:    0.00 PKD
ROOT
HETATM    1  C   UNL     1     -11.059   6.954  67.138  1.00  0.00    -0.362 C  
HETATM    2  C   UNL     1      -9.920   7.955  66.918  1.00  0.00    -0.332 C  
HETATM    3  C   UNL     1      -8.504   7.436  67.159  1.00  0.00    -0.118 C  
HETATM    4  C   UNL     1      -8.222   7.764  68.618  1.00  0.00    -0.128 C  
HETATM    5  C   UNL     1      -8.968   6.791  69.584  1.00  0.00    -0.143 C  
HETATM    6  C   UNL     1      -8.677   5.325  69.250  1.00  0.00    -0.108 C  
HETATM    7  C   UNL     1      -9.486   4.438  70.159  1.00  0.00    -0.175 C  
HETATM    8  C   UNL     1      -8.925   4.564  71.544  1.00  0.00    -0.164 C  
HETATM    9  F   UNL     1     -10.785   4.846  70.116  1.00  0.00    -0.305 F  
HETATM   10  C   UNL     1      -9.100   3.489  72.348  1.00  0.00    -0.135 C  
HETATM   11  C   UNL     1     -10.502   3.527  72.892  1.00  0.00    -0.154 C  
HETATM   12  O   UNL     1     -11.110   2.497  73.140  1.00  0.00    -0.150 OA 
HETATM   13  C   UNL     1     -11.073   4.889  73.182  1.00  0.00    -0.396 C  
HETATM   14  C   UNL     1     -10.396   6.010  72.852  1.00  0.00    -0.219 C  
HETATM   15  C   UNL     1      -9.027   5.989  72.148  1.00  0.00    -0.142 C  
HETATM   16  C   UNL     1      -7.965   6.098  73.285  1.00  0.00    -0.103 C  
HETATM   17  C   UNL     1      -8.697   7.147  71.058  1.00  0.00    -0.141 C  
HETATM   18  F   UNL     1      -7.331   7.357  71.144  1.00  0.00    -0.068 F  
HETATM   19  C   UNL     1      -9.363   8.535  71.255  1.00  0.00    -0.203 C  
HETATM   20  C   UNL     1      -8.873   9.613  70.250  1.00  0.00    -0.253 C  
HETATM   21  O   UNL     1      -9.135   9.037  72.578  1.00  0.00    -0.273 OA 
HETATM   22  C   UNL     1      -8.705   9.248  68.728  1.00  0.00    -0.132 C  
HETATM   23  H   UNL     1      -9.543   9.887  72.698  1.00  0.00     0.000 HD 
HETATM   24  C   UNL     1     -10.002   9.285  67.768  1.00  0.00    -0.190 C  
HETATM   25  C   UNL     1      -7.611  10.219  68.203  1.00  0.00    -0.087 C  
HETATM   26  H   UNL     1     -11.189  10.085  69.138  1.00  0.00     0.000 HD 
HETATM   27  O   UNL     1     -11.139   9.286  68.627  1.00  0.00    -0.054 OA 
ENDROOT
BRANCH  24  28
HETATM   28  C   UNL     1     -10.130  10.360  66.607  1.00  0.00    -0.224 C  
HETATM   29  O   UNL     1      -9.791  10.198  65.445  1.00  0.00    -0.268 OA 
BRANCH  28  30
HETATM   30  S   UNL     1     -11.074  11.806  67.033  1.00  0.00    -0.319 SA 
HETATM   31  C   UNL     1     -11.667  12.246  65.377  1.00  0.00    -0.370 C  
HETATM   32  F   UNL     1     -12.567  13.265  65.487  1.00  0.00    -0.463 F  
ENDBRANCH  28  30
ENDBRANCH  24  28
TORSDOF 2
ENDMDL
MODEL       31
REMARK 921   NORMALIZED FREE ENERGY PREDICTED BY IDOCK:   -5.76 KCAL/MOL
REMARK 922        TOTAL FREE ENERGY PREDICTED BY IDOCK:   -6.46 KCAL/MOL
REMARK 923 INTER-LIGAND FREE ENERGY PREDICTED BY IDOCK:   -6.17 KCAL/MOL
REMARK 924 INTRA-LIGAND FREE ENERGY PREDICTED BY IDOCK:   -0.30 KCAL/MOL
REMARK 927      BINDING AFFINITY PREDICTED BY RF-SCORE:    0.00 PKD
ROOT
HETATM    1  C   UNL     1     -10.410  18.154  69.091  1.00  0.00    -0.026 C  
HETATM    2  C   UNL     1      -9.556  18.692  67.937  1.00  0.00    -0.340 C  
HETATM    3  C   UNL     1      -9.984  18.284  66.529  1.00  0.00    -0.380 C  
HETATM    4  C   UNL     1      -9.188  17.019  66.243  1.00  0.00    -0.278 C  
HETATM    5  C   UNL     1      -9.770  15.785  67.003  1.00  0.00    -0.235 C  
HETATM    6  C   UNL     1     -11.266  15.606  66.733  1.00  0.00    -0.083 C  
HETATM    7  C   UNL     1     -11.785  14.456  67.556  1.00  0.00    -0.387 C  
HETATM    8  C   UNL     1     -11.209  13.190  66.994  1.00  0.00    -0.325 C  
HETATM    9  F   UNL     1     -11.397  14.640  68.848  1.00  0.00    -0.244 F  
HETATM   10  C   UNL     1     -11.948  12.073  67.184  1.00  0.00    -0.105 C  
HETATM   11  C   UNL     1     -11.709  11.580  68.585  1.00  0.00    -0.326 C  
HETATM   12  O   UNL     1     -12.587  11.004  69.208  1.00  0.00    -0.361 OA 
HETATM   13  C   UNL     1     -10.322  11.768  69.137  1.00  0.00    -0.008 C  
HETATM   14  C   UNL     1      -9.386  12.452  68.442  1.00  0.00    -0.158 C  
HETATM   15  C   UNL     1      -9.662  13.101  67.074  1.00  0.00    -0.241 C  
HETATM   16  C   UNL     1      -9.192  12.062  66.011  1.00  0.00    -0.152 C  
HETATM   17  C   UNL     1      -8.943  14.515  66.726  1.00  0.00    -0.246 C  
HETATM   18  F   UNL     1      -8.735  14.498  65.358  1.00  0.00     0.580 F  
HETATM   19  C   UNL     1      -7.560  14.800  67.372  1.00  0.00    -0.202 C  
HETATM   20  C   UNL     1      -6.890  16.106  66.866  1.00  0.00    -0.148 C  
HETATM   21  O   UNL     1      -6.645  13.722  67.137  1.00  0.00    -0.436 OA 
HETATM   22  C   UNL     1      -7.747  17.416  66.703  1.00  0.00    -0.293 C  
HETATM   23  H   UNL     1      -5.799  13.896  67.532  1.00  0.00     0.000 HD 
HETATM   24  C   UNL     1      -8.017  18.339  67.999  1.00  0.00    -0.264 C  
HETATM   25  C   UNL     1      -7.025  18.232  65.595  1.00  0.00    -0.234 C  
HETATM   26  H   UNL     1      -6.786  17.324  69.174  1.00  0.00     0.000 HD 
HETATM   27  O   UNL     1      -7.711  17.536  69.137  1.00  0.00    -0.181 OA 
ENDROOT
BRANCH  24  28
HETATM   28  C   UNL     1      -7.393  19.795  68.111  1.00  0.00    -0.303 C  
HETATM   29  O   UNL     1      -7.973  20.840  67.862  1.00  0.00    -0.099 OA 
BRANCH  28  30
HETATM   30  S   UNL     1      -5.803  19.863  68.904  1.00  0.00    -0.253 SA 
HETATM   31  C   UNL     1      -6.354  20.172  70.603  1.00  0.00    -0.210 C  
HETATM   32  F   UNL     1      -5.277  20.102  71.436  1.00  0.00    -0.230 F  
ENDBRANCH  28  30
ENDBRANCH  24  28
TORSDOF 2
ENDMDL
MODEL       32
REMARK 921   NORMALIZED FREE ENERGY PREDICTED BY IDOCK:   -5.73 KCAL/MOL
REMARK 922        TOTAL FREE ENERGY PREDICTED BY IDOCK:   -6.43 KCAL/MOL
REMARK 923 INTER-LIGAND FREE ENERGY PREDICTED BY IDOCK:   -6.30 KCAL/MOL
REMARK 924 INTRA-LIGAND FREE ENERGY PREDICTED BY IDOCK:   -0.13 KCAL/MOL
REMARK 927      BINDING AFFINITY PREDICTED BY RF-SCORE:    0.00 PKD
ROOT
HETATM    1  C   UNL     1     -10.540  15.753  65.656  1.00  0.00    -0.393 C  
HETATM    2  C   UNL     1     -11.055  15.440  67.065  1.00  0.00    -0.273 C  
HETATM    3  C   UNL     1     -11.399  16.641  67.943  1.00  0.00     0.001 C  
HETATM    4  C   UNL     1     -10.116  16.931  68.709  1.00  0.00    -0.295 C  
HETATM    5  C   UNL     1      -9.051  17.631  67.808  1.00  0.00    -0.247 C  
HETATM    6  C   UNL     1      -9.617  18.879  67.124  1.00  0.00    -0.344 C  
HETATM    7  C   UNL     1      -8.573  19.460  66.208  1.00  0.00    -0.345 C  
HETATM    8  C   UNL     1      -7.480  20.035  67.060  1.00  0.00    -0.301 C  
HETATM    9  F   UNL     1      -8.099  18.466  65.408  1.00  0.00     0.126 F  
HETATM   10  C   UNL     1      -6.783  21.056  66.512  1.00  0.00    -0.281 C  
HETATM   11  C   UNL     1      -5.766  20.480  65.564  1.00  0.00    -0.197 C  
HETATM   12  O   UNL     1      -5.421  21.090  64.563  1.00  0.00    -0.215 OA 
HETATM   13  C   UNL     1      -5.150  19.165  65.957  1.00  0.00    -0.161 C  
HETATM   14  C   UNL     1      -5.587  18.492  67.045  1.00  0.00    -0.151 C  
HETATM   15  C   UNL     1      -6.737  18.992  67.937  1.00  0.00    -0.237 C  
HETATM   16  C   UNL     1      -6.059  19.759  69.112  1.00  0.00    -0.317 C  
HETATM   17  C   UNL     1      -7.747  17.898  68.585  1.00  0.00    -0.289 C  
HETATM   18  F   UNL     1      -8.142  18.433  69.799  1.00  0.00     0.306 F  
HETATM   19  C   UNL     1      -7.181  16.487  68.896  1.00  0.00    -0.208 C  
HETATM   20  C   UNL     1      -8.179  15.563  69.646  1.00  0.00    -0.117 C  
HETATM   21  O   UNL     1      -5.987  16.569  69.685  1.00  0.00    -0.176 OA 
HETATM   22  C   UNL     1      -9.687  15.509  69.198  1.00  0.00    -0.252 C  
HETATM   23  H   UNL     1      -5.640  15.705  69.875  1.00  0.00     0.000 HD 
HETATM   24  C   UNL     1     -10.101  14.555  67.963  1.00  0.00    -0.226 C  
HETATM   25  C   UNL     1     -10.471  15.111  70.479  1.00  0.00    -0.042 C  
HETATM   26  H   UNL     1      -8.319  13.701  67.820  1.00  0.00     0.000 HD 
HETATM   27  O   UNL     1      -8.892  14.232  67.280  1.00  0.00    -0.192 OA 
ENDROOT
BRANCH  24  28
HETATM   28  C   UNL     1     -11.020  13.280  68.187  1.00  0.00    -0.255 C  
HETATM   29  O   UNL     1     -12.142  13.285  68.666  1.00  0.00    -0.337 OA 
BRANCH  28  30
HETATM   30  S   UNL     1     -10.414  11.786  67.434  1.00  0.00    -0.217 SA 
HETATM   31  C   UNL     1     -11.200  11.957  65.810  1.00  0.00    -0.312 C  
HETATM   32  F   UNL     1     -10.734  10.974  64.988  1.00  0.00    -0.352 F  
ENDBRANCH  28  30
ENDBRANCH  24  28
TORSDOF 2
ENDMDL
MODEL       33
REMARK 921   NORMALIZED FREE ENERGY PREDICTED BY IDOCK:   -5.73 KCAL/MOL
REMARK 922        TOTAL FREE ENERGY PREDICTED BY IDOCK:   -6.43 KCAL/MOL
REMARK 923 INTER-LIGAND FREE ENERGY PREDICTED BY IDOCK:   -6.21 KCAL/MOL
REMARK 924 INTRA-LIGAND FREE ENERGY PREDICTED BY IDOCK:   -0.21 KCAL/MOL
REMARK 927      BINDING AFFINITY PREDICTED BY RF-SCORE:    0.00 PKD
ROOT
HETATM    1  C   UNL     1      -7.742  13.308  66.987  1.00  0.00     0.105 C  
HETATM    2  C   UNL     1      -9.211  13.060  66.627  1.00  0.00    -0.222 C  
HETATM    3  C   UNL     1      -9.822  13.999  65.589  1.00  0.00    -0.255 C  
HETATM    4  C   UNL     1     -10.437  15.124  66.411  1.00  0.00    -0.300 C  
HETATM    5  C   UNL     1      -9.349  16.100  66.959  1.00  0.00    -0.232 C  
HETATM    6  C   UNL     1      -8.441  16.622  65.843  1.00  0.00    -0.024 C  
HETATM    7  C   UNL     1      -7.365  17.490  66.443  1.00  0.00    -0.299 C  
HETATM    8  C   UNL     1      -8.012  18.749  66.940  1.00  0.00    -0.262 C  
HETATM    9  F   UNL     1      -6.778  16.805  67.463  1.00  0.00    -0.129 F  
HETATM   10  C   UNL     1      -7.217  19.843  66.974  1.00  0.00    -0.258 C  
HETATM   11  C   UNL     1      -6.365  19.771  68.213  1.00  0.00    -0.251 C  
HETATM   12  O   UNL     1      -5.239  20.241  68.231  1.00  0.00    -0.190 OA 
HETATM   13  C   UNL     1      -7.004  19.162  69.433  1.00  0.00    -0.272 C  
HETATM   14  C   UNL     1      -8.233  18.606  69.367  1.00  0.00     0.288 C  
HETATM   15  C   UNL     1      -9.055  18.530  68.068  1.00  0.00    -0.319 C  
HETATM   16  C   UNL     1      -9.996  19.773  68.089  1.00  0.00    -0.557 C  
HETATM   17  C   UNL     1      -9.979  17.220  67.809  1.00  0.00    -0.301 C  
HETATM   18  F   UNL     1     -11.066  17.673  67.081  1.00  0.00    -0.227 F  
HETATM   19  C   UNL     1     -10.560  16.490  69.050  1.00  0.00    -0.324 C  
HETATM   20  C   UNL     1     -11.546  15.344  68.697  1.00  0.00    -0.373 C  
HETATM   21  O   UNL     1     -11.247  17.403  69.915  1.00  0.00     0.022 OA 
HETATM   22  C   UNL     1     -11.201  14.344  67.531  1.00  0.00    -0.329 C  
HETATM   23  H   UNL     1     -11.603  16.957  70.674  1.00  0.00     0.000 HD 
HETATM   24  C   UNL     1     -10.229  13.092  67.836  1.00  0.00    -0.233 C  
HETATM   25  C   UNL     1     -12.578  13.848  67.009  1.00  0.00     0.050 C  
HETATM   26  H   UNL     1     -10.180  13.405  69.792  1.00  0.00     0.000 HD 
HETATM   27  O   UNL     1      -9.569  13.385  69.066  1.00  0.00     0.089 OA 
ENDROOT
BRANCH  24  28
HETATM   28  C   UNL     1     -10.774  11.602  67.792  1.00  0.00    -0.204 C  
HETATM   29  O   UNL     1     -10.379  10.721  67.045  1.00  0.00    -0.208 OA 
BRANCH  28  30
HETATM   30  S   UNL     1     -11.871  11.172  69.123  1.00  0.00    -0.343 SA 
HETATM   31  C   UNL     1     -10.776  10.048  70.031  1.00  0.00    -0.299 C  
HETATM   32  F   UNL     1     -11.371   9.709  71.210  1.00  0.00    -0.357 F  
ENDBRANCH  28  30
ENDBRANCH  24  28
TORSDOF 2
ENDMDL
MODEL       34
REMARK 921   NORMALIZED FREE ENERGY PREDICTED BY IDOCK:   -5.72 KCAL/MOL
REMARK 922        TOTAL FREE ENERGY PREDICTED BY IDOCK:   -6.42 KCAL/MOL
REMARK 923 INTER-LIGAND FREE ENERGY PREDICTED BY IDOCK:   -6.11 KCAL/MOL
REMARK 924 INTRA-LIGAND FREE ENERGY PREDICTED BY IDOCK:   -0.31 KCAL/MOL
REMARK 927      BINDING AFFINITY PREDICTED BY RF-SCORE:    0.00 PKD
ROOT
HETATM    1  C   UNL     1      -9.315   7.564  66.385  1.00  0.00    -0.211 C  
HETATM    2  C   UNL     1      -8.799   9.004  66.475  1.00  0.00    -0.158 C  
HETATM    3  C   UNL     1      -7.635   9.249  67.433  1.00  0.00    -0.088 C  
HETATM    4  C   UNL     1      -8.299   9.632  68.747  1.00  0.00    -0.111 C  
HETATM    5  C   UNL     1      -8.907   8.390  69.472  1.00  0.00    -0.145 C  
HETATM    6  C   UNL     1      -7.876   7.273  69.644  1.00  0.00    -0.118 C  
HETATM    7  C   UNL     1      -8.540   6.075  70.272  1.00  0.00    -0.143 C  
HETATM    8  C   UNL     1      -8.871   6.423  71.693  1.00  0.00    -0.136 C  
HETATM    9  F   UNL     1      -9.667   5.787  69.563  1.00  0.00    -0.153 F  
HETATM   10  C   UNL     1      -8.927   5.382  72.555  1.00  0.00    -0.136 C  
HETATM   11  C   UNL     1     -10.261   4.704  72.392  1.00  0.00    -0.189 C  
HETATM   12  O   UNL     1     -10.382   3.502  72.569  1.00  0.00    -0.168 OA 
HETATM   13  C   UNL     1     -11.433   5.594  72.079  1.00  0.00    -0.199 C  
HETATM   14  C   UNL     1     -11.258   6.913  71.841  1.00  0.00    -0.287 C  
HETATM   15  C   UNL     1      -9.878   7.593  71.848  1.00  0.00    -0.205 C  
HETATM   16  C   UNL     1      -9.703   8.182  73.281  1.00  0.00    -0.226 C  
HETATM   17  C   UNL     1      -9.599   8.792  70.789  1.00  0.00    -0.208 C  
HETATM   18  F   UNL     1      -8.717   9.650  71.425  1.00  0.00    -0.049 F  
HETATM   19  C   UNL     1     -10.807   9.661  70.347  1.00  0.00    -0.295 C  
HETATM   20  C   UNL     1     -10.416  10.868  69.452  1.00  0.00    -0.205 C  
HETATM   21  O   UNL     1     -11.520  10.173  71.480  1.00  0.00    -0.283 OA 
HETATM   22  C   UNL     1      -9.369  10.678  68.291  1.00  0.00    -0.156 C  
HETATM   23  H   UNL     1     -12.260  10.705  71.209  1.00  0.00     0.000 HD 
HETATM   24  C   UNL     1      -9.872  10.094  66.873  1.00  0.00    -0.195 C  
HETATM   25  C   UNL     1      -8.721  12.078  68.104  1.00  0.00    -0.177 C  
HETATM   26  H   UNL     1     -11.795  10.161  67.349  1.00  0.00     0.000 HD 
HETATM   27  O   UNL     1     -11.150   9.507  67.109  1.00  0.00    -0.078 OA 
ENDROOT
BRANCH  24  28
HETATM   28  C   UNL     1      -9.863  10.996  65.567  1.00  0.00    -0.243 C  
HETATM   29  O   UNL     1      -9.051  10.926  64.658  1.00  0.00    -0.200 OA 
BRANCH  28  30
HETATM   30  S   UNL     1     -11.314  12.001  65.347  1.00  0.00    -0.291 SA 
HETATM   31  C   UNL     1     -11.034  12.518  63.632  1.00  0.00    -0.456 C  
HETATM   32  F   UNL     1     -12.136  13.188  63.188  1.00  0.00    -0.598 F  
ENDBRANCH  28  30
ENDBRANCH  24  28
TORSDOF 2
ENDMDL
MODEL       35
REMARK 921   NORMALIZED FREE ENERGY PREDICTED BY IDOCK:   -5.71 KCAL/MOL
REMARK 922        TOTAL FREE ENERGY PREDICTED BY IDOCK:   -6.41 KCAL/MOL
REMARK 923 INTER-LIGAND FREE ENERGY PREDICTED BY IDOCK:   -6.29 KCAL/MOL
REMARK 924 INTRA-LIGAND FREE ENERGY PREDICTED BY IDOCK:   -0.12 KCAL/MOL
REMARK 927      BINDING AFFINITY PREDICTED BY RF-SCORE:    0.00 PKD
ROOT
HETATM    1  C   UNL     1      -7.203   8.452  66.805  1.00  0.00    -0.078 C  
HETATM    2  C   UNL     1      -8.311   7.465  67.189  1.00  0.00    -0.118 C  
HETATM    3  C   UNL     1      -9.637   7.612  66.446  1.00  0.00    -0.223 C  
HETATM    4  C   UNL     1     -10.461   8.545  67.321  1.00  0.00    -0.366 C  
HETATM    5  C   UNL     1      -9.986  10.027  67.194  1.00  0.00    -0.251 C  
HETATM    6  C   UNL     1      -9.941  10.486  65.734  1.00  0.00    -0.318 C  
HETATM    7  C   UNL     1      -9.399  11.889  65.671  1.00  0.00    -0.115 C  
HETATM    8  C   UNL     1     -10.428  12.809  66.260  1.00  0.00    -0.273 C  
HETATM    9  F   UNL     1      -8.237  11.936  66.380  1.00  0.00    -0.160 F  
HETATM   10  C   UNL     1     -10.411  14.081  65.801  1.00  0.00    -0.330 C  
HETATM   11  C   UNL     1      -9.312  14.826  66.511  1.00  0.00    -0.290 C  
HETATM   12  O   UNL     1      -8.702  15.727  65.957  1.00  0.00    -0.313 OA 
HETATM   13  C   UNL     1      -9.068  14.453  67.948  1.00  0.00    -0.187 C  
HETATM   14  C   UNL     1      -9.727  13.419  68.518  1.00  0.00    -0.156 C  
HETATM   15  C   UNL     1     -10.739  12.545  67.757  1.00  0.00    -0.242 C  
HETATM   16  C   UNL     1     -12.140  13.155  68.064  1.00  0.00    -0.240 C  
HETATM   17  C   UNL     1     -10.810  10.960  68.103  1.00  0.00    -0.234 C  
HETATM   18  F   UNL     1     -12.132  10.597  67.907  1.00  0.00    -0.167 F  
HETATM   19  C   UNL     1     -10.448  10.519  69.547  1.00  0.00    -0.235 C  
HETATM   20  C   UNL     1     -10.687   9.009  69.819  1.00  0.00    -0.233 C  
HETATM   21  O   UNL     1     -11.197  11.260  70.519  1.00  0.00    -0.420 OA 
HETATM   22  C   UNL     1     -10.252   7.940  68.748  1.00  0.00    -0.218 C  
HETATM   23  H   UNL     1     -10.976  10.990  71.403  1.00  0.00     0.000 HD 
HETATM   24  C   UNL     1      -8.715   7.447  68.716  1.00  0.00    -0.128 C  
HETATM   25  C   UNL     1     -11.205   6.734  68.976  1.00  0.00    -0.214 C  
HETATM   26  H   UNL     1      -8.212   8.394  70.383  1.00  0.00     0.000 HD 
HETATM   27  O   UNL     1      -7.969   8.405  69.465  1.00  0.00    -0.106 OA 
ENDROOT
BRANCH  24  28
HETATM   28  C   UNL     1      -8.325   5.956  69.099  1.00  0.00    -0.106 C  
HETATM   29  O   UNL     1      -8.378   5.471  70.218  1.00  0.00    -0.106 OA 
BRANCH  28  30
HETATM   30  S   UNL     1      -8.033   4.885  67.710  1.00  0.00    -0.094 SA 
HETATM   31  C   UNL     1      -9.398   3.720  67.967  1.00  0.00    -0.179 C  
HETATM   32  F   UNL     1      -9.467   2.877  66.898  1.00  0.00    -0.190 F  
ENDBRANCH  28  30
ENDBRANCH  24  28
TORSDOF 2
ENDMDL
MODEL       36
REMARK 921   NORMALIZED FREE ENERGY PREDICTED BY IDOCK:   -5.70 KCAL/MOL
REMARK 922        TOTAL FREE ENERGY PREDICTED BY IDOCK:   -6.40 KCAL/MOL
REMARK 923 INTER-LIGAND FREE ENERGY PREDICTED BY IDOCK:   -6.07 KCAL/MOL
REMARK 924 INTRA-LIGAND FREE ENERGY PREDICTED BY IDOCK:   -0.33 KCAL/MOL
REMARK 927      BINDING AFFINITY PREDICTED BY RF-SCORE:    0.00 PKD
ROOT
HETATM    1  C   UNL     1      -7.024  11.276  69.861  1.00  0.00     0.056 C  
HETATM    2  C   UNL     1      -7.168  10.138  68.843  1.00  0.00    -0.079 C  
HETATM    3  C   UNL     1      -6.778  10.464  67.403  1.00  0.00    -0.072 C  
HETATM    4  C   UNL     1      -8.077  10.921  66.753  1.00  0.00    -0.142 C  
HETATM    5  C   UNL     1      -8.467  12.366  67.195  1.00  0.00    -0.185 C  
HETATM    6  C   UNL     1      -7.323  13.358  66.970  1.00  0.00     0.292 C  
HETATM    7  C   UNL     1      -7.728  14.712  67.490  1.00  0.00    -0.195 C  
HETATM    8  C   UNL     1      -8.797  15.252  66.586  1.00  0.00    -0.328 C  
HETATM    9  F   UNL     1      -8.191  14.564  68.763  1.00  0.00    -0.139 F  
HETATM   10  C   UNL     1      -8.882  16.600  66.518  1.00  0.00    -0.314 C  
HETATM   11  C   UNL     1      -9.632  17.090  67.727  1.00  0.00    -0.244 C  
HETATM   12  O   UNL     1      -9.385  18.177  68.224  1.00  0.00    -0.284 OA 
HETATM   13  C   UNL     1     -10.742  16.207  68.232  1.00  0.00    -0.307 C  
HETATM   14  C   UNL     1     -10.959  14.988  67.691  1.00  0.00    -0.305 C  
HETATM   15  C   UNL     1     -10.097  14.406  66.556  1.00  0.00    -0.281 C  
HETATM   16  C   UNL     1     -10.852  14.744  65.235  1.00  0.00    -0.395 C  
HETATM   17  C   UNL     1      -9.795  12.810  66.552  1.00  0.00    -0.258 C  
HETATM   18  F   UNL     1      -9.698  12.455  65.217  1.00  0.00    -0.254 F  
HETATM   19  C   UNL     1     -10.864  11.871  67.174  1.00  0.00    -0.255 C  
HETATM   20  C   UNL     1     -10.553  10.361  66.990  1.00  0.00    -0.305 C  
HETATM   21  O   UNL     1     -12.161  12.119  66.615  1.00  0.00    -0.622 OA 
HETATM   22  C   UNL     1      -9.091   9.827  67.222  1.00  0.00    -0.150 C  
HETATM   23  H   UNL     1     -12.815  11.545  66.996  1.00  0.00     0.000 HD 
HETATM   24  C   UNL     1      -8.608   9.499  68.727  1.00  0.00    -0.123 C  
HETATM   25  C   UNL     1      -8.981   8.560  66.328  1.00  0.00    -0.207 C  
HETATM   26  H   UNL     1     -10.403   9.759  69.528  1.00  0.00     0.000 HD 
HETATM   27  O   UNL     1      -9.537  10.143  69.597  1.00  0.00    -0.225 OA 
ENDROOT
BRANCH  24  28
HETATM   28  C   UNL     1      -8.299   8.010  69.182  1.00  0.00    -0.132 C  
HETATM   29  O   UNL     1      -7.189   7.508  69.272  1.00  0.00    -0.081 OA 
BRANCH  28  30
HETATM   30  S   UNL     1      -9.697   7.126  69.836  1.00  0.00    -0.170 SA 
HETATM   31  C   UNL     1      -9.152   5.437  69.469  1.00  0.00    -0.112 C  
HETATM   32  F   UNL     1     -10.023   4.558  70.041  1.00  0.00    -0.255 F  
ENDBRANCH  28  30
ENDBRANCH  24  28
TORSDOF 2
ENDMDL
MODEL       37
REMARK 921   NORMALIZED FREE ENERGY PREDICTED BY IDOCK:   -5.64 KCAL/MOL
REMARK 922        TOTAL FREE ENERGY PREDICTED BY IDOCK:   -6.33 KCAL/MOL
REMARK 923 INTER-LIGAND FREE ENERGY PREDICTED BY IDOCK:   -6.00 KCAL/MOL
REMARK 924 INTRA-LIGAND FREE ENERGY PREDICTED BY IDOCK:   -0.33 KCAL/MOL
REMARK 927      BINDING AFFINITY PREDICTED BY RF-SCORE:    0.00 PKD
ROOT
HETATM    1  C   UNL     1      -6.729   9.646  70.688  1.00  0.00    -0.116 C  
HETATM    2  C   UNL     1      -7.388   8.289  70.416  1.00  0.00    -0.055 C  
HETATM    3  C   UNL     1      -7.617   7.928  68.950  1.00  0.00    -0.100 C  
HETATM    4  C   UNL     1      -9.022   8.429  68.651  1.00  0.00    -0.140 C  
HETATM    5  C   UNL     1      -9.061   9.982  68.491  1.00  0.00    -0.127 C  
HETATM    6  C   UNL     1      -8.036  10.472  67.465  1.00  0.00    -0.107 C  
HETATM    7  C   UNL     1      -8.063  11.977  67.416  1.00  0.00    -0.168 C  
HETATM    8  C   UNL     1      -9.361  12.396  66.791  1.00  0.00    -0.220 C  
HETATM    9  F   UNL     1      -7.955  12.453  68.688  1.00  0.00    -0.134 F  
HETATM   10  C   UNL     1      -9.347  13.587  66.151  1.00  0.00    -0.082 C  
HETATM   11  C   UNL     1      -9.471  14.679  67.179  1.00  0.00    -0.229 C  
HETATM   12  O   UNL     1      -8.941  15.766  67.010  1.00  0.00    -0.202 OA 
HETATM   13  C   UNL     1     -10.336  14.382  68.374  1.00  0.00    -0.244 C  
HETATM   14  C   UNL     1     -10.868  13.153  68.557  1.00  0.00    -0.285 C  
HETATM   15  C   UNL     1     -10.621  11.978  67.594  1.00  0.00    -0.239 C  
HETATM   16  C   UNL     1     -11.830  11.976  66.610  1.00  0.00    -0.239 C  
HETATM   17  C   UNL     1     -10.491  10.482  68.213  1.00  0.00    -0.183 C  
HETATM   18  F   UNL     1     -10.999   9.635  67.242  1.00  0.00    -0.338 F  
HETATM   19  C   UNL     1     -11.276  10.169  69.516  1.00  0.00    -0.238 C  
HETATM   20  C   UNL     1     -11.206   8.678  69.945  1.00  0.00    -0.045 C  
HETATM   21  O   UNL     1     -12.659  10.520  69.385  1.00  0.00    -0.701 OA 
HETATM   22  C   UNL     1      -9.836   7.906  69.880  1.00  0.00    -0.182 C  
HETATM   23  H   UNL     1     -13.139  10.328  70.183  1.00  0.00     0.000 HD 
HETATM   24  C   UNL     1      -8.793   8.060  71.103  1.00  0.00    -0.140 C  
HETATM   25  C   UNL     1     -10.226   6.415  69.682  1.00  0.00    -0.229 C  
HETATM   26  H   UNL     1     -10.051   9.069  72.255  1.00  0.00     0.000 HD 
HETATM   27  O   UNL     1      -9.207   9.207  71.843  1.00  0.00    -0.354 OA 
ENDROOT
BRANCH  24  28
HETATM   28  C   UNL     1      -8.453   6.830  72.048  1.00  0.00    -0.112 C  
HETATM   29  O   UNL     1      -7.481   6.099  71.944  1.00  0.00    -0.092 OA 
BRANCH  28  30
HETATM   30  S   UNL     1      -9.470   6.708  73.502  1.00  0.00    -0.168 SA 
HETATM   31  C   UNL     1     -10.438   5.246  73.040  1.00  0.00    -0.210 C  
HETATM   32  F   UNL     1     -11.196   4.863  74.107  1.00  0.00    -0.322 F  
ENDBRANCH  28  30
ENDBRANCH  24  28
TORSDOF 2
ENDMDL
MODEL       38
REMARK 921   NORMALIZED FREE ENERGY PREDICTED BY IDOCK:   -5.63 KCAL/MOL
REMARK 922        TOTAL FREE ENERGY PREDICTED BY IDOCK:   -6.32 KCAL/MOL
REMARK 923 INTER-LIGAND FREE ENERGY PREDICTED BY IDOCK:   -6.04 KCAL/MOL
REMARK 924 INTRA-LIGAND FREE ENERGY PREDICTED BY IDOCK:   -0.28 KCAL/MOL
REMARK 927      BINDING AFFINITY PREDICTED BY RF-SCORE:    0.00 PKD
ROOT
HETATM    1  C   UNL     1      -9.746   4.788  69.301  1.00  0.00    -0.266 C  
HETATM    2  C   UNL     1     -10.549   5.400  70.454  1.00  0.00    -0.322 C  
HETATM    3  C   UNL     1     -11.646   6.389  70.066  1.00  0.00    -0.446 C  
HETATM    4  C   UNL     1     -10.963   7.748  70.106  1.00  0.00    -0.246 C  
HETATM    5  C   UNL     1     -10.038   7.967  68.867  1.00  0.00    -0.203 C  
HETATM    6  C   UNL     1     -10.785   7.728  67.552  1.00  0.00    -0.265 C  
HETATM    7  C   UNL     1      -9.824   7.872  66.402  1.00  0.00    -0.147 C  
HETATM    8  C   UNL     1      -9.448   9.320  66.293  1.00  0.00    -0.284 C  
HETATM    9  F   UNL     1      -8.731   7.099  66.653  1.00  0.00    -0.111 F  
HETATM   10  C   UNL     1      -9.090   9.744  65.059  1.00  0.00    -0.280 C  
HETATM   11  C   UNL     1      -7.662   9.336  64.814  1.00  0.00    -0.111 C  
HETATM   12  O   UNL     1      -7.270   9.063  63.690  1.00  0.00    -0.092 OA 
HETATM   13  C   UNL     1      -6.743   9.361  66.005  1.00  0.00    -0.081 C  
HETATM   14  C   UNL     1      -7.218   9.620  67.243  1.00  0.00    -0.087 C  
HETATM   15  C   UNL     1      -8.706   9.883  67.534  1.00  0.00    -0.121 C  
HETATM   16  C   UNL     1      -8.872  11.433  67.522  1.00  0.00    -0.146 C  
HETATM   17  C   UNL     1      -9.332   9.335  68.929  1.00  0.00    -0.150 C  
HETATM   18  F   UNL     1     -10.316  10.246  69.276  1.00  0.00    -0.184 F  
HETATM   19  C   UNL     1      -8.384   9.231  70.155  1.00  0.00    -0.178 C  
HETATM   20  C   UNL     1      -9.106   8.839  71.472  1.00  0.00    -0.322 C  
HETATM   21  O   UNL     1      -7.698  10.468  70.386  1.00  0.00    -0.425 OA 
HETATM   22  C   UNL     1     -10.189   7.697  71.464  1.00  0.00    -0.212 C  
HETATM   23  H   UNL     1      -7.118  10.404  71.136  1.00  0.00     0.000 HD 
HETATM   24  C   UNL     1      -9.704   6.160  71.552  1.00  0.00    -0.162 C  
HETATM   25  C   UNL     1     -11.138   8.036  72.647  1.00  0.00    -0.453 C  
HETATM   26  H   UNL     1      -7.805   6.614  71.895  1.00  0.00     0.000 HD 
HETATM   27  O   UNL     1      -8.314   6.157  71.235  1.00  0.00    -0.121 OA 
ENDROOT
BRANCH  24  28
HETATM   28  C   UNL     1     -10.026   5.271  72.828  1.00  0.00    -0.160 C  
HETATM   29  O   UNL     1     -11.089   4.716  73.060  1.00  0.00    -0.247 OA 
BRANCH  28  30
HETATM   30  S   UNL     1      -8.616   4.886  73.841  1.00  0.00    -0.102 SA 
HETATM   31  C   UNL     1      -8.232   3.248  73.167  1.00  0.00    -0.077 C  
HETATM   32  F   UNL     1      -7.055   2.815  73.702  1.00  0.00    -0.034 F  
ENDBRANCH  28  30
ENDBRANCH  24  28
TORSDOF 2
ENDMDL
MODEL       39
REMARK 921   NORMALIZED FREE ENERGY PREDICTED BY IDOCK:   -5.60 KCAL/MOL
REMARK 922        TOTAL FREE ENERGY PREDICTED BY IDOCK:   -6.29 KCAL/MOL
REMARK 923 INTER-LIGAND FREE ENERGY PREDICTED BY IDOCK:   -6.40 KCAL/MOL
REMARK 924 INTRA-LIGAND FREE ENERGY PREDICTED BY IDOCK:    0.11 KCAL/MOL
REMARK 927      BINDING AFFINITY PREDICTED BY RF-SCORE:    0.00 PKD
ROOT
HETATM    1  C   UNL     1      -8.269   7.890  68.424  1.00  0.00    -0.124 C  
HETATM    2  C   UNL     1      -8.969   9.155  68.931  1.00  0.00    -0.139 C  
HETATM    3  C   UNL     1      -8.582   9.630  70.330  1.00  0.00    -0.234 C  
HETATM    4  C   UNL     1      -9.593   8.962  71.250  1.00  0.00    -0.348 C  
HETATM    5  C   UNL     1      -9.279   7.445  71.450  1.00  0.00    -0.148 C  
HETATM    6  C   UNL     1      -7.836   7.221  71.909  1.00  0.00    -0.091 C  
HETATM    7  C   UNL     1      -7.569   5.741  72.004  1.00  0.00    -0.101 C  
HETATM    8  C   UNL     1      -8.357   5.204  73.163  1.00  0.00    -0.108 C  
HETATM    9  F   UNL     1      -7.956   5.157  70.836  1.00  0.00    -0.086 F  
HETATM   10  C   UNL     1      -7.848   4.101  73.757  1.00  0.00    -0.081 C  
HETATM   11  C   UNL     1      -8.219   2.902  72.927  1.00  0.00    -0.071 C  
HETATM   12  O   UNL     1      -7.485   1.927  72.864  1.00  0.00    -0.031 OA 
HETATM   13  C   UNL     1      -9.563   2.942  72.251  1.00  0.00    -0.205 C  
HETATM   14  C   UNL     1     -10.330   4.054  72.299  1.00  0.00    -0.183 C  
HETATM   15  C   UNL     1      -9.894   5.346  73.012  1.00  0.00    -0.181 C  
HETATM   16  C   UNL     1     -10.518   5.273  74.439  1.00  0.00    -0.277 C  
HETATM   17  C   UNL     1     -10.322   6.772  72.363  1.00  0.00    -0.195 C  
HETATM   18  F   UNL     1     -10.487   7.632  73.436  1.00  0.00    -0.345 F  
HETATM   19  C   UNL     1     -11.646   6.830  71.554  1.00  0.00    -0.300 C  
HETATM   20  C   UNL     1     -12.041   8.261  71.101  1.00  0.00    -0.274 C  
HETATM   21  O   UNL     1     -12.739   6.295  72.310  1.00  0.00    -0.537 OA 
HETATM   22  C   UNL     1     -10.947   9.229  70.514  1.00  0.00    -0.318 C  
HETATM   23  H   UNL     1     -13.550   6.330  71.814  1.00  0.00     0.000 HD 
HETATM   24  C   UNL     1     -10.548   9.104  68.955  1.00  0.00    -0.191 C  
HETATM   25  C   UNL     1     -11.467  10.659  70.829  1.00  0.00    -0.307 C  
HETATM   26  H   UNL     1     -11.985   7.806  68.530  1.00  0.00     0.000 HD 
HETATM   27  O   UNL     1     -11.036   7.838  68.515  1.00  0.00    -0.002 OA 
ENDROOT
BRANCH  24  28
HETATM   28  C   UNL     1     -10.890  10.264  67.927  1.00  0.00    -0.284 C  
HETATM   29  O   UNL     1     -11.931  10.900  67.890  1.00  0.00    -0.585 OA 
BRANCH  28  30
HETATM   30  S   UNL     1      -9.517  10.806  66.935  1.00  0.00    -0.171 SA 
HETATM   31  C   UNL     1      -9.881   9.872  65.425  1.00  0.00    -0.313 C  
HETATM   32  F   UNL     1      -9.020  10.265  64.443  1.00  0.00    -0.172 F  
ENDBRANCH  28  30
ENDBRANCH  24  28
TORSDOF 2
ENDMDL
MODEL       40
REMARK 921   NORMALIZED FREE ENERGY PREDICTED BY IDOCK:   -5.57 KCAL/MOL
REMARK 922        TOTAL FREE ENERGY PREDICTED BY IDOCK:   -6.26 KCAL/MOL
REMARK 923 INTER-LIGAND FREE ENERGY PREDICTED BY IDOCK:   -5.99 KCAL/MOL
REMARK 924 INTRA-LIGAND FREE ENERGY PREDICTED BY IDOCK:   -0.26 KCAL/MOL
REMARK 927      BINDING AFFINITY PREDICTED BY RF-SCORE:    0.00 PKD
ROOT
HETATM    1  C   UNL     1      -8.548  11.616  65.902  1.00  0.00     0.065 C  
HETATM    2  C   UNL     1      -9.787  10.974  66.537  1.00  0.00    -0.241 C  
HETATM    3  C   UNL     1     -11.134  11.593  66.171  1.00  0.00    -0.335 C  
HETATM    4  C   UNL     1     -11.382  12.632  67.255  1.00  0.00    -0.372 C  
HETATM    5  C   UNL     1     -10.504  13.906  67.047  1.00  0.00    -0.278 C  
HETATM    6  C   UNL     1     -10.667  14.483  65.638  1.00  0.00    -0.335 C  
HETATM    7  C   UNL     1      -9.737  15.656  65.471  1.00  0.00    -0.251 C  
HETATM    8  C   UNL     1     -10.245  16.774  66.333  1.00  0.00    -0.329 C  
HETATM    9  F   UNL     1      -8.487  15.273  65.852  1.00  0.00    -0.154 F  
HETATM   10  C   UNL     1      -9.933  18.023  65.918  1.00  0.00    -0.115 C  
HETATM   11  C   UNL     1      -8.518  18.321  66.335  1.00  0.00    -0.244 C  
HETATM   12  O   UNL     1      -7.804  19.050  65.664  1.00  0.00    -0.457 OA 
HETATM   13  C   UNL     1      -8.068  17.740  67.648  1.00  0.00    -0.223 C  
HETATM   14  C   UNL     1      -8.865  16.899  68.343  1.00  0.00    -0.244 C  
HETATM   15  C   UNL     1     -10.255  16.458  67.851  1.00  0.00    -0.268 C  
HETATM   16  C   UNL     1     -11.271  17.426  68.530  1.00  0.00     0.273 C  
HETATM   17  C   UNL     1     -10.743  14.940  68.163  1.00  0.00    -0.251 C  
HETATM   18  F   UNL     1     -12.117  15.017  68.311  1.00  0.00    -0.328 F  
HETATM   19  C   UNL     1     -10.205  14.259  69.451  1.00  0.00     0.080 C  
HETATM   20  C   UNL     1     -10.841  12.871  69.736  1.00  0.00     0.430 C  
HETATM   21  O   UNL     1     -10.422  15.083  70.603  1.00  0.00    -0.520 OA 
HETATM   22  C   UNL     1     -11.040  11.843  68.562  1.00  0.00    -0.290 C  
HETATM   23  H   UNL     1     -10.093  14.665  71.391  1.00  0.00     0.000 HD 
HETATM   24  C   UNL     1      -9.796  10.915  68.116  1.00  0.00    -0.175 C  
HETATM   25  C   UNL     1     -12.244  10.963  69.000  1.00  0.00    -0.112 C  
HETATM   26  H   UNL     1      -8.633  11.481  69.617  1.00  0.00     0.000 HD 
HETATM   27  O   UNL     1      -8.627  11.517  68.668  1.00  0.00    -0.158 OA 
ENDROOT
BRANCH  24  28
HETATM   28  C   UNL     1      -9.823   9.344  68.344  1.00  0.00    -0.160 C  
HETATM   29  O   UNL     1     -10.244   8.516  67.552  1.00  0.00    -0.206 OA 
BRANCH  28  30
HETATM   30  S   UNL     1      -8.933   8.786  69.779  1.00  0.00    -0.151 SA 
HETATM   31  C   UNL     1     -10.074   9.375  71.059  1.00  0.00    -0.283 C  
HETATM   32  F   UNL     1      -9.660   8.906  72.270  1.00  0.00    -0.360 F  
ENDBRANCH  28  30
ENDBRANCH  24  28
TORSDOF 2
ENDMDL
MODEL       41
REMARK 921   NORMALIZED FREE ENERGY PREDICTED BY IDOCK:   -5.56 KCAL/MOL
REMARK 922        TOTAL FREE ENERGY PREDICTED BY IDOCK:   -6.24 KCAL/MOL
REMARK 923 INTER-LIGAND FREE ENERGY PREDICTED BY IDOCK:   -5.89 KCAL/MOL
REMARK 924 INTRA-LIGAND FREE ENERGY PREDICTED BY IDOCK:   -0.35 KCAL/MOL
REMARK 927      BINDING AFFINITY PREDICTED BY RF-SCORE:    0.00 PKD
ROOT
HETATM    1  C   UNL     1      -6.975  10.836  66.069  1.00  0.00    -0.104 C  
HETATM    2  C   UNL     1      -7.999   9.696  66.011  1.00  0.00    -0.108 C  
HETATM    3  C   UNL     1      -9.310   9.999  65.290  1.00  0.00    -0.294 C  
HETATM    4  C   UNL     1     -10.242  10.491  66.388  1.00  0.00    -0.296 C  
HETATM    5  C   UNL     1      -9.902  11.952  66.823  1.00  0.00    -0.214 C  
HETATM    6  C   UNL     1      -9.857  12.905  65.625  1.00  0.00    -0.185 C  
HETATM    7  C   UNL     1      -9.444  14.275  66.096  1.00  0.00    -0.222 C  
HETATM    8  C   UNL     1     -10.570  14.842  66.909  1.00  0.00    -0.294 C  
HETATM    9  F   UNL     1      -8.313  14.152  66.843  1.00  0.00    -0.211 F  
HETATM   10  C   UNL     1     -10.656  16.192  66.932  1.00  0.00    -0.283 C  
HETATM   11  C   UNL     1      -9.653  16.713  67.924  1.00  0.00    -0.234 C  
HETATM   12  O   UNL     1      -9.112  17.796  67.763  1.00  0.00    -0.244 OA 
HETATM   13  C   UNL     1      -9.417  15.870  69.148  1.00  0.00    -0.260 C  
HETATM   14  C   UNL     1      -9.994  14.655  69.274  1.00  0.00    -0.100 C  
HETATM   15  C   UNL     1     -10.899  14.037  68.194  1.00  0.00    -0.260 C  
HETATM   16  C   UNL     1     -12.359  14.390  68.612  1.00  0.00    -0.051 C  
HETATM   17  C   UNL     1     -10.834  12.433  67.951  1.00  0.00    -0.222 C  
HETATM   18  F   UNL     1     -12.111  12.065  67.561  1.00  0.00    -0.365 F  
HETATM   19  C   UNL     1     -10.476  11.532  69.165  1.00  0.00    -0.101 C  
HETATM   20  C   UNL     1     -10.583  10.012  68.870  1.00  0.00    -0.239 C  
HETATM   21  O   UNL     1     -11.318  11.818  70.289  1.00  0.00    -0.501 OA 
HETATM   22  C   UNL     1     -10.020   9.434  67.518  1.00  0.00    -0.250 C  
HETATM   23  H   UNL     1     -11.099  11.267  71.032  1.00  0.00     0.000 HD 
HETATM   24  C   UNL     1      -8.444   9.102  67.406  1.00  0.00    -0.115 C  
HETATM   25  C   UNL     1     -10.864   8.158  67.247  1.00  0.00    -0.130 C  
HETATM   26  H   UNL     1      -8.079   9.425  69.327  1.00  0.00     0.000 HD 
HETATM   27  O   UNL     1      -7.811   9.781  68.489  1.00  0.00    -0.080 OA 
ENDROOT
BRANCH  24  28
HETATM   28  C   UNL     1      -7.930   7.607  67.259  1.00  0.00    -0.118 C  
HETATM   29  O   UNL     1      -7.800   6.999  66.208  1.00  0.00    -0.098 OA 
BRANCH  28  30
HETATM   30  S   UNL     1      -7.273   6.896  68.750  1.00  0.00    -0.094 SA 
HETATM   31  C   UNL     1      -8.736   5.967  69.281  1.00  0.00    -0.119 C  
HETATM   32  F   UNL     1      -8.402   5.194  70.354  1.00  0.00    -0.095 F  
ENDBRANCH  28  30
ENDBRANCH  24  28
TORSDOF 2
ENDMDL
MODEL       42
REMARK 921   NORMALIZED FREE ENERGY PREDICTED BY IDOCK:   -5.53 KCAL/MOL
REMARK 922        TOTAL FREE ENERGY PREDICTED BY IDOCK:   -6.21 KCAL/MOL
REMARK 923 INTER-LIGAND FREE ENERGY PREDICTED BY IDOCK:   -6.12 KCAL/MOL
REMARK 924 INTRA-LIGAND FREE ENERGY PREDICTED BY IDOCK:   -0.09 KCAL/MOL
REMARK 927      BINDING AFFINITY PREDICTED BY RF-SCORE:    0.00 PKD
ROOT
HETATM    1  C   UNL     1     -11.121  11.210  65.646  1.00  0.00    -0.078 C  
HETATM    2  C   UNL     1     -10.617  10.391  66.840  1.00  0.00    -0.293 C  
HETATM    3  C   UNL     1     -10.998  10.909  68.225  1.00  0.00    -0.293 C  
HETATM    4  C   UNL     1      -9.837  11.808  68.627  1.00  0.00    -0.153 C  
HETATM    5  C   UNL     1      -9.879  13.176  67.875  1.00  0.00    -0.231 C  
HETATM    6  C   UNL     1     -11.234  13.869  68.032  1.00  0.00    -0.295 C  
HETATM    7  C   UNL     1     -11.241  15.137  67.221  1.00  0.00    -0.324 C  
HETATM    8  C   UNL     1     -10.309  16.112  67.879  1.00  0.00    -0.277 C  
HETATM    9  F   UNL     1     -10.829  14.843  65.956  1.00  0.00    -0.298 F  
HETATM   10  C   UNL     1     -10.589  17.420  67.678  1.00  0.00    -0.350 C  
HETATM   11  C   UNL     1     -10.069  17.812  66.322  1.00  0.00    -0.344 C  
HETATM   12  O   UNL     1     -10.630  18.669  65.656  1.00  0.00    -0.610 OA 
HETATM   13  C   UNL     1      -8.792  17.153  65.875  1.00  0.00    -0.008 C  
HETATM   14  C   UNL     1      -8.223  16.174  66.612  1.00  0.00    -0.321 C  
HETATM   15  C   UNL     1      -8.829  15.649  67.926  1.00  0.00    -0.171 C  
HETATM   16  C   UNL     1      -8.121  16.443  69.065  1.00  0.00    -0.223 C  
HETATM   17  C   UNL     1      -8.686  14.068  68.269  1.00  0.00    -0.182 C  
HETATM   18  F   UNL     1      -8.608  13.996  69.650  1.00  0.00     0.334 F  
HETATM   19  C   UNL     1      -7.440  13.320  67.724  1.00  0.00    -0.154 C  
HETATM   20  C   UNL     1      -7.319  11.856  68.227  1.00  0.00    -0.093 C  
HETATM   21  O   UNL     1      -6.230  14.003  68.076  1.00  0.00    -0.114 OA 
HETATM   22  C   UNL     1      -8.593  10.932  68.266  1.00  0.00    -0.139 C  
HETATM   23  H   UNL     1      -5.467  13.545  67.742  1.00  0.00     0.000 HD 
HETATM   24  C   UNL     1      -9.053  10.178  66.915  1.00  0.00    -0.142 C  
HETATM   25  C   UNL     1      -8.304   9.901  69.392  1.00  0.00    -0.158 C  
HETATM   26  H   UNL     1      -7.444  10.707  65.885  1.00  0.00     0.000 HD 
HETATM   27  O   UNL     1      -8.384  10.834  65.840  1.00  0.00    -0.159 OA 
ENDROOT
BRANCH  24  28
HETATM   28  C   UNL     1      -8.972   8.597  66.791  1.00  0.00    -0.141 C  
HETATM   29  O   UNL     1      -7.946   7.939  66.725  1.00  0.00    -0.104 OA 
BRANCH  28  30
HETATM   30  S   UNL     1     -10.521   7.754  67.022  1.00  0.00    -0.312 SA 
HETATM   31  C   UNL     1      -9.994   6.547  68.268  1.00  0.00    -0.143 C  
HETATM   32  F   UNL     1     -11.090   5.875  68.723  1.00  0.00    -0.347 F  
ENDBRANCH  28  30
ENDBRANCH  24  28
TORSDOF 2
ENDMDL
MODEL       43
REMARK 921   NORMALIZED FREE ENERGY PREDICTED BY IDOCK:   -5.53 KCAL/MOL
REMARK 922        TOTAL FREE ENERGY PREDICTED BY IDOCK:   -6.20 KCAL/MOL
REMARK 923 INTER-LIGAND FREE ENERGY PREDICTED BY IDOCK:   -6.08 KCAL/MOL
REMARK 924 INTRA-LIGAND FREE ENERGY PREDICTED BY IDOCK:   -0.12 KCAL/MOL
REMARK 927      BINDING AFFINITY PREDICTED BY RF-SCORE:    0.00 PKD
ROOT
HETATM    1  C   UNL     1      -7.021  10.509  65.730  1.00  0.00    -0.125 C  
HETATM    2  C   UNL     1      -8.015   9.343  65.706  1.00  0.00    -0.110 C  
HETATM    3  C   UNL     1      -9.388   9.634  65.103  1.00  0.00    -0.322 C  
HETATM    4  C   UNL     1     -10.242  10.056  66.290  1.00  0.00    -0.285 C  
HETATM    5  C   UNL     1      -9.907  11.509  66.755  1.00  0.00    -0.227 C  
HETATM    6  C   UNL     1      -9.983  12.507  65.597  1.00  0.00    -0.259 C  
HETATM    7  C   UNL     1      -9.571  13.870  66.088  1.00  0.00    -0.229 C  
HETATM    8  C   UNL     1     -10.643  14.372  67.009  1.00  0.00    -0.274 C  
HETATM    9  F   UNL     1      -8.380  13.752  66.739  1.00  0.00    -0.185 F  
HETATM   10  C   UNL     1     -10.763  15.717  67.093  1.00  0.00    -0.312 C  
HETATM   11  C   UNL     1      -9.697  16.230  68.024  1.00  0.00    -0.230 C  
HETATM   12  O   UNL     1      -9.200  17.334  67.865  1.00  0.00    -0.239 OA 
HETATM   13  C   UNL     1      -9.343  15.349  69.191  1.00  0.00    -0.246 C  
HETATM   14  C   UNL     1      -9.876  14.113  69.313  1.00  0.00     0.163 C  
HETATM   15  C   UNL     1     -10.847  13.510  68.283  1.00  0.00    -0.277 C  
HETATM   16  C   UNL     1     -12.278  13.803  68.828  1.00  0.00    -0.221 C  
HETATM   17  C   UNL     1     -10.759  11.918  67.972  1.00  0.00    -0.209 C  
HETATM   18  F   UNL     1     -12.052  11.529  67.668  1.00  0.00    -0.289 F  
HETATM   19  C   UNL     1     -10.281  10.984  69.116  1.00  0.00    -0.166 C  
HETATM   20  C   UNL     1     -10.371   9.473  68.769  1.00  0.00    -0.228 C  
HETATM   21  O   UNL     1     -11.039  11.201  70.313  1.00  0.00    -0.474 OA 
HETATM   22  C   UNL     1      -9.902   8.964  67.356  1.00  0.00    -0.247 C  
HETATM   23  H   UNL     1     -10.746  10.629  71.014  1.00  0.00     0.000 HD 
HETATM   24  C   UNL     1      -8.332   8.683  67.107  1.00  0.00    -0.107 C  
HETATM   25  C   UNL     1     -10.732   7.674  67.100  1.00  0.00    -0.361 C  
HETATM   26  H   UNL     1      -7.824   8.943  69.005  1.00  0.00     0.000 HD 
HETATM   27  O   UNL     1      -7.634   9.339  68.163  1.00  0.00    -0.083 OA 
ENDROOT
BRANCH  24  28
HETATM   28  C   UNL     1      -7.792   7.211  66.860  1.00  0.00    -0.107 C  
HETATM   29  O   UNL     1      -7.794   6.304  67.678  1.00  0.00    -0.103 OA 
BRANCH  28  30
HETATM   30  S   UNL     1      -7.394   6.840  65.167  1.00  0.00    -0.090 SA 
HETATM   31  C   UNL     1      -8.647   5.566  64.861  1.00  0.00    -0.111 C  
HETATM   32  F   UNL     1      -8.631   5.240  63.537  1.00  0.00    -0.133 F  
ENDBRANCH  28  30
ENDBRANCH  24  28
TORSDOF 2
ENDMDL
MODEL       44
REMARK 921   NORMALIZED FREE ENERGY PREDICTED BY IDOCK:   -5.51 KCAL/MOL
REMARK 922        TOTAL FREE ENERGY PREDICTED BY IDOCK:   -6.18 KCAL/MOL
REMARK 923 INTER-LIGAND FREE ENERGY PREDICTED BY IDOCK:   -6.08 KCAL/MOL
REMARK 924 INTRA-LIGAND FREE ENERGY PREDICTED BY IDOCK:   -0.10 KCAL/MOL
REMARK 927      BINDING AFFINITY PREDICTED BY RF-SCORE:    0.00 PKD
ROOT
HETATM    1  C   UNL     1      -9.124   8.820  65.757  1.00  0.00    -0.267 C  
HETATM    2  C   UNL     1      -8.725   8.560  67.214  1.00  0.00    -0.133 C  
HETATM    3  C   UNL     1      -9.780   8.877  68.271  1.00  0.00    -0.174 C  
HETATM    4  C   UNL     1      -9.491  10.316  68.675  1.00  0.00    -0.169 C  
HETATM    5  C   UNL     1      -9.975  11.329  67.590  1.00  0.00    -0.197 C  
HETATM    6  C   UNL     1     -11.445  11.110  67.224  1.00  0.00    -0.218 C  
HETATM    7  C   UNL     1     -11.828  12.057  66.118  1.00  0.00    -0.148 C  
HETATM    8  C   UNL     1     -11.847  13.446  66.686  1.00  0.00    -0.443 C  
HETATM    9  F   UNL     1     -10.908  11.949  65.119  1.00  0.00    -0.306 F  
HETATM   10  C   UNL     1     -12.678  14.320  66.073  1.00  0.00    -0.240 C  
HETATM   11  C   UNL     1     -12.002  14.821  64.825  1.00  0.00    -0.404 C  
HETATM   12  O   UNL     1     -12.650  15.125  63.836  1.00  0.00    -0.794 OA 
HETATM   13  C   UNL     1     -10.509  14.995  64.894  1.00  0.00    -0.367 C  
HETATM   14  C   UNL     1      -9.814  14.603  65.985  1.00  0.00    -0.347 C  
HETATM   15  C   UNL     1     -10.473  13.942  67.209  1.00  0.00    -0.271 C  
HETATM   16  C   UNL     1     -10.741  15.097  68.221  1.00  0.00    -0.251 C  
HETATM   17  C   UNL     1      -9.656  12.780  67.996  1.00  0.00    -0.217 C  
HETATM   18  F   UNL     1     -10.043  12.889  69.321  1.00  0.00     0.018 F  
HETATM   19  C   UNL     1      -8.105  12.857  67.990  1.00  0.00    -0.159 C  
HETATM   20  C   UNL     1      -7.422  11.791  68.889  1.00  0.00    -0.080 C  
HETATM   21  O   UNL     1      -7.648  14.146  68.419  1.00  0.00    -0.114 OA 
HETATM   22  C   UNL     1      -7.940  10.305  68.876  1.00  0.00    -0.113 C  
HETATM   23  H   UNL     1      -6.698  14.193  68.415  1.00  0.00     0.000 HD 
HETATM   24  C   UNL     1      -7.427   9.308  67.714  1.00  0.00    -0.088 C  
HETATM   25  C   UNL     1      -7.574   9.741  70.277  1.00  0.00    -0.184 C  
HETATM   26  H   UNL     1      -6.092  10.584  66.993  1.00  0.00     0.000 HD 
HETATM   27  O   UNL     1      -6.873  10.133  66.692  1.00  0.00    -0.079 OA 
ENDROOT
BRANCH  24  28
HETATM   28  C   UNL     1      -6.493   8.069  68.052  1.00  0.00    -0.056 C  
HETATM   29  O   UNL     1      -5.354   8.133  68.486  1.00  0.00    -0.030 OA 
BRANCH  28  30
HETATM   30  S   UNL     1      -7.310   6.490  68.010  1.00  0.00    -0.091 SA 
HETATM   31  C   UNL     1      -7.469   6.214  69.795  1.00  0.00    -0.081 C  
HETATM   32  F   UNL     1      -8.231   5.102  70.003  1.00  0.00    -0.078 F  
ENDBRANCH  28  30
ENDBRANCH  24  28
TORSDOF 2
ENDMDL
MODEL       45
REMARK 921   NORMALIZED FREE ENERGY PREDICTED BY IDOCK:   -5.44 KCAL/MOL
REMARK 922        TOTAL FREE ENERGY PREDICTED BY IDOCK:   -6.10 KCAL/MOL
REMARK 923 INTER-LIGAND FREE ENERGY PREDICTED BY IDOCK:   -5.88 KCAL/MOL
REMARK 924 INTRA-LIGAND FREE ENERGY PREDICTED BY IDOCK:   -0.23 KCAL/MOL
REMARK 927      BINDING AFFINITY PREDICTED BY RF-SCORE:    0.00 PKD
ROOT
HETATM    1  C   UNL     1     -10.017  10.134  64.771  1.00  0.00    -0.334 C  
HETATM    2  C   UNL     1      -9.422  11.347  65.494  1.00  0.00    -0.251 C  
HETATM    3  C   UNL     1      -8.034  11.160  66.104  1.00  0.00    -0.090 C  
HETATM    4  C   UNL     1      -8.305  10.712  67.533  1.00  0.00    -0.115 C  
HETATM    5  C   UNL     1      -8.763   9.220  67.594  1.00  0.00    -0.116 C  
HETATM    6  C   UNL     1      -7.781   8.296  66.870  1.00  0.00    -0.095 C  
HETATM    7  C   UNL     1      -8.317   6.888  66.892  1.00  0.00    -0.114 C  
HETATM    8  C   UNL     1      -8.240   6.387  68.304  1.00  0.00    -0.116 C  
HETATM    9  F   UNL     1      -9.605   6.909  66.449  1.00  0.00    -0.201 F  
HETATM   10  C   UNL     1      -8.119   5.047  68.446  1.00  0.00    -0.086 C  
HETATM   11  C   UNL     1      -9.481   4.429  68.282  1.00  0.00    -0.153 C  
HETATM   12  O   UNL     1      -9.614   3.313  67.804  1.00  0.00    -0.200 OA 
HETATM   13  C   UNL     1     -10.647   5.223  68.806  1.00  0.00    -0.115 C  
HETATM   14  C   UNL     1     -10.474   6.475  69.285  1.00  0.00    -0.259 C  
HETATM   15  C   UNL     1      -9.108   7.184  69.313  1.00  0.00    -0.137 C  
HETATM   16  C   UNL     1      -8.529   6.930  70.738  1.00  0.00    -0.136 C  
HETATM   17  C   UNL     1      -9.058   8.784  69.042  1.00  0.00    -0.141 C  
HETATM   18  F   UNL     1      -7.996   9.254  69.796  1.00  0.00    -0.073 F  
HETATM   19  C   UNL     1     -10.294   9.626  69.461  1.00  0.00    -0.221 C  
HETATM   20  C   UNL     1     -10.092  11.157  69.297  1.00  0.00    -0.068 C  
HETATM   21  O   UNL     1     -10.653   9.378  70.825  1.00  0.00    -0.254 OA 
HETATM   22  C   UNL     1      -9.402  11.724  68.001  1.00  0.00    -0.184 C  
HETATM   23  H   UNL     1     -11.410   9.893  71.081  1.00  0.00     0.000 HD 
HETATM   24  C   UNL     1     -10.293  11.940  66.672  1.00  0.00    -0.211 C  
HETATM   25  C   UNL     1      -8.756  13.065  68.446  1.00  0.00    -0.115 C  
HETATM   26  H   UNL     1     -12.015  11.546  67.572  1.00  0.00     0.000 HD 
HETATM   27  O   UNL     1     -11.491  11.190  66.864  1.00  0.00    -0.414 OA 
ENDROOT
BRANCH  24  28
HETATM   28  C   UNL     1     -10.584  13.396  66.109  1.00  0.00    -0.292 C  
HETATM   29  O   UNL     1     -10.116  13.871  65.087  1.00  0.00    -0.346 OA 
BRANCH  28  30
HETATM   30  S   UNL     1     -11.894  14.266  66.941  1.00  0.00    -0.433 SA 
HETATM   31  C   UNL     1     -10.913  15.599  67.680  1.00  0.00    -0.315 C  
HETATM   32  F   UNL     1     -11.758  16.504  68.252  1.00  0.00    -0.291 F  
ENDBRANCH  28  30
ENDBRANCH  24  28
TORSDOF 2
ENDMDL
MODEL       46
REMARK 921   NORMALIZED FREE ENERGY PREDICTED BY IDOCK:   -5.42 KCAL/MOL
REMARK 922        TOTAL FREE ENERGY PREDICTED BY IDOCK:   -6.08 KCAL/MOL
REMARK 923 INTER-LIGAND FREE ENERGY PREDICTED BY IDOCK:   -5.72 KCAL/MOL
REMARK 924 INTRA-LIGAND FREE ENERGY PREDICTED BY IDOCK:   -0.37 KCAL/MOL
REMARK 927      BINDING AFFINITY PREDICTED BY RF-SCORE:    0.00 PKD
ROOT
HETATM    1  C   UNL     1      -5.959   8.507  68.940  1.00  0.00    -0.044 C  
HETATM    2  C   UNL     1      -6.638   9.453  67.944  1.00  0.00    -0.063 C  
HETATM    3  C   UNL     1      -7.606  10.477  68.534  1.00  0.00    -0.097 C  
HETATM    4  C   UNL     1      -8.963   9.791  68.478  1.00  0.00    -0.124 C  
HETATM    5  C   UNL     1      -9.108   8.704  69.590  1.00  0.00    -0.149 C  
HETATM    6  C   UNL     1      -8.796   9.267  70.978  1.00  0.00    -0.205 C  
HETATM    7  C   UNL     1      -8.870   8.157  71.993  1.00  0.00    -0.174 C  
HETATM    8  C   UNL     1     -10.309   7.754  72.131  1.00  0.00    -0.279 C  
HETATM    9  F   UNL     1      -8.111   7.116  71.552  1.00  0.00    -0.099 F  
HETATM   10  C   UNL     1     -10.659   7.228  73.327  1.00  0.00    -0.428 C  
HETATM   11  C   UNL     1     -10.235   5.784  73.352  1.00  0.00    -0.209 C  
HETATM   12  O   UNL     1      -9.896   5.245  74.394  1.00  0.00    -0.161 OA 
HETATM   13  C   UNL     1     -10.326   5.035  72.050  1.00  0.00    -0.276 C  
HETATM   14  C   UNL     1     -10.657   5.672  70.905  1.00  0.00    -0.328 C  
HETATM   15  C   UNL     1     -10.941   7.183  70.835  1.00  0.00    -0.276 C  
HETATM   16  C   UNL     1     -12.488   7.330  70.957  1.00  0.00    -0.323 C  
HETATM   17  C   UNL     1     -10.476   7.999  69.510  1.00  0.00    -0.226 C  
HETATM   18  F   UNL     1     -11.407   9.011  69.353  1.00  0.00    -0.132 F  
HETATM   19  C   UNL     1     -10.440   7.228  68.162  1.00  0.00    -0.198 C  
HETATM   20  C   UNL     1     -10.127   8.127  66.935  1.00  0.00    -0.367 C  
HETATM   21  O   UNL     1     -11.686   6.567  67.910  1.00  0.00    -0.531 OA 
HETATM   22  C   UNL     1      -8.988   9.210  67.027  1.00  0.00    -0.139 C  
HETATM   23  H   UNL     1     -11.665   6.095  67.085  1.00  0.00     0.000 HD 
HETATM   24  C   UNL     1      -7.458   8.757  66.786  1.00  0.00    -0.086 C  
HETATM   25  C   UNL     1      -9.398  10.307  66.005  1.00  0.00    -0.224 C  
HETATM   26  H   UNL     1      -7.926   6.919  66.213  1.00  0.00     0.000 HD 
HETATM   27  O   UNL     1      -7.433   7.337  66.909  1.00  0.00    -0.092 OA 
ENDROOT
BRANCH  24  28
HETATM   28  C   UNL     1      -6.645   9.260  65.518  1.00  0.00    -0.069 C  
HETATM   29  O   UNL     1      -6.067  10.330  65.420  1.00  0.00    -0.100 OA 
BRANCH  28  30
HETATM   30  S   UNL     1      -6.383   8.024  64.266  1.00  0.00    -0.061 SA 
HETATM   31  C   UNL     1      -8.008   8.093  63.465  1.00  0.00    -0.145 C  
HETATM   32  F   UNL     1      -7.980   7.318  62.343  1.00  0.00    -0.110 F  
ENDBRANCH  28  30
ENDBRANCH  24  28
TORSDOF 2
ENDMDL
MODEL       47
REMARK 921   NORMALIZED FREE ENERGY PREDICTED BY IDOCK:   -5.38 KCAL/MOL
REMARK 922        TOTAL FREE ENERGY PREDICTED BY IDOCK:   -6.04 KCAL/MOL
REMARK 923 INTER-LIGAND FREE ENERGY PREDICTED BY IDOCK:   -5.96 KCAL/MOL
REMARK 924 INTRA-LIGAND FREE ENERGY PREDICTED BY IDOCK:   -0.08 KCAL/MOL
REMARK 927      BINDING AFFINITY PREDICTED BY RF-SCORE:    0.00 PKD
ROOT
HETATM    1  C   UNL     1     -12.116  11.136  68.877  1.00  0.00    -0.276 C  
HETATM    2  C   UNL     1     -11.275  11.181  67.597  1.00  0.00    -0.364 C  
HETATM    3  C   UNL     1     -10.887   9.833  66.992  1.00  0.00    -0.165 C  
HETATM    4  C   UNL     1      -9.535   9.514  67.613  1.00  0.00    -0.153 C  
HETATM    5  C   UNL     1      -9.676   9.044  69.095  1.00  0.00    -0.167 C  
HETATM    6  C   UNL     1     -10.668   7.886  69.231  1.00  0.00    -0.145 C  
HETATM    7  C   UNL     1     -10.823   7.534  70.687  1.00  0.00    -0.240 C  
HETATM    8  C   UNL     1      -9.541   6.907  71.150  1.00  0.00    -0.167 C  
HETATM    9  F   UNL     1     -11.090   8.675  71.382  1.00  0.00    -0.268 F  
HETATM   10  C   UNL     1      -9.650   6.038  72.181  1.00  0.00    -0.165 C  
HETATM   11  C   UNL     1      -9.745   6.829  73.458  1.00  0.00    -0.203 C  
HETATM   12  O   UNL     1     -10.389   6.414  74.409  1.00  0.00    -0.332 OA 
HETATM   13  C   UNL     1      -8.947   8.104  73.520  1.00  0.00    -0.295 C  
HETATM   14  C   UNL     1      -8.285   8.560  72.435  1.00  0.00    -0.156 C  
HETATM   15  C   UNL     1      -8.307   7.845  71.072  1.00  0.00    -0.112 C  
HETATM   16  C   UNL     1      -7.032   6.947  71.044  1.00  0.00    -0.066 C  
HETATM   17  C   UNL     1      -8.300   8.747  69.722  1.00  0.00    -0.127 C  
HETATM   18  F   UNL     1      -7.616   7.997  68.780  1.00  0.00    -0.092 F  
HETATM   19  C   UNL     1      -7.589  10.126  69.778  1.00  0.00    -0.170 C  
HETATM   20  C   UNL     1      -7.509  10.845  68.404  1.00  0.00    -0.098 C  
HETATM   21  O   UNL     1      -6.254  10.001  70.283  1.00  0.00    -0.069 OA 
HETATM   22  C   UNL     1      -8.764  10.865  67.455  1.00  0.00    -0.130 C  
HETATM   23  H   UNL     1      -5.819  10.845  70.318  1.00  0.00     0.000 HD 
HETATM   24  C   UNL     1      -9.911  11.974  67.699  1.00  0.00    -0.191 C  
HETATM   25  C   UNL     1      -8.178  10.996  66.021  1.00  0.00    -0.129 C  
HETATM   26  H   UNL     1      -8.883  12.962  69.075  1.00  0.00     0.000 HD 
HETATM   27  O   UNL     1      -9.703  12.486  69.013  1.00  0.00     0.104 OA 
ENDROOT
BRANCH  24  28
HETATM   28  C   UNL     1     -10.171  13.130  66.642  1.00  0.00    -0.259 C  
HETATM   29  O   UNL     1      -9.390  14.024  66.359  1.00  0.00    -0.274 OA 
BRANCH  28  30
HETATM   30  S   UNL     1     -11.628  12.913  65.646  1.00  0.00    -0.383 SA 
HETATM   31  C   UNL     1     -10.874  13.105  64.009  1.00  0.00    -0.318 C  
HETATM   32  F   UNL     1     -11.805  12.811  63.056  1.00  0.00    -0.552 F  
ENDBRANCH  28  30
ENDBRANCH  24  28
TORSDOF 2
ENDMDL
MODEL       48
REMARK 921   NORMALIZED FREE ENERGY PREDICTED BY IDOCK:   -5.37 KCAL/MOL
REMARK 922        TOTAL FREE ENERGY PREDICTED BY IDOCK:   -6.03 KCAL/MOL
REMARK 923 INTER-LIGAND FREE ENERGY PREDICTED BY IDOCK:   -6.22 KCAL/MOL
REMARK 924 INTRA-LIGAND FREE ENERGY PREDICTED BY IDOCK:    0.19 KCAL/MOL
REMARK 927      BINDING AFFINITY PREDICTED BY RF-SCORE:    0.00 PKD
ROOT
HETATM    1  C   UNL     1      -9.053  14.497  69.708  1.00  0.00     0.581 C  
HETATM    2  C   UNL     1      -9.367  13.897  68.333  1.00  0.00    -0.201 C  
HETATM    3  C   UNL     1      -8.231  13.912  67.313  1.00  0.00    -0.176 C  
HETATM    4  C   UNL     1      -8.423  15.214  66.550  1.00  0.00    -0.149 C  
HETATM    5  C   UNL     1      -7.964  16.449  67.388  1.00  0.00    -0.179 C  
HETATM    6  C   UNL     1      -6.534  16.282  67.907  1.00  0.00    -0.156 C  
HETATM    7  C   UNL     1      -6.179  17.462  68.774  1.00  0.00    -0.182 C  
HETATM    8  C   UNL     1      -6.056  18.666  67.888  1.00  0.00    -0.191 C  
HETATM    9  F   UNL     1      -7.167  17.631  69.697  1.00  0.00    -0.126 F  
HETATM   10  C   UNL     1      -5.226  19.638  68.330  1.00  0.00    -0.203 C  
HETATM   11  C   UNL     1      -5.958  20.452  69.363  1.00  0.00    -0.344 C  
HETATM   12  O   UNL     1      -5.362  20.971  70.294  1.00  0.00    -0.524 OA 
HETATM   13  C   UNL     1      -7.434  20.649  69.141  1.00  0.00     0.756 C  
HETATM   14  C   UNL     1      -8.073  20.021  68.130  1.00  0.00    -0.232 C  
HETATM   15  C   UNL     1      -7.367  19.059  67.158  1.00  0.00    -0.227 C  
HETATM   16  C   UNL     1      -6.978  19.919  65.917  1.00  0.00    -0.306 C  
HETATM   17  C   UNL     1      -8.185  17.764  66.617  1.00  0.00    -0.259 C  
HETATM   18  F   UNL     1      -7.706  17.531  65.339  1.00  0.00    -0.034 F  
HETATM   19  C   UNL     1      -9.728  17.887  66.487  1.00  0.00    -0.329 C  
HETATM   20  C   UNL     1     -10.400  16.653  65.826  1.00  0.00    -0.338 C  
HETATM   21  O   UNL     1     -10.094  19.043  65.724  1.00  0.00    -0.499 OA 
HETATM   22  C   UNL     1      -9.956  15.201  66.241  1.00  0.00    -0.307 C  
HETATM   23  H   UNL     1     -11.038  19.118  65.644  1.00  0.00     0.000 HD 
HETATM   24  C   UNL     1     -10.592  14.538  67.568  1.00  0.00    -0.262 C  
HETATM   25  C   UNL     1     -10.256  14.321  64.996  1.00  0.00    -0.402 C  
HETATM   26  H   UNL     1     -11.908  15.992  67.854  1.00  0.00     0.000 HD 
HETATM   27  O   UNL     1     -11.172  15.606  68.314  1.00  0.00    -0.320 OA 
ENDROOT
BRANCH  24  28
HETATM   28  C   UNL     1     -11.560  13.283  67.473  1.00  0.00    -0.346 C  
HETATM   29  O   UNL     1     -12.427  13.114  66.631  1.00  0.00    -0.319 OA 
BRANCH  28  30
HETATM   30  S   UNL     1     -11.137  11.935  68.554  1.00  0.00    -0.265 SA 
HETATM   31  C   UNL     1     -12.066  12.456  70.021  1.00  0.00    -0.263 C  
HETATM   32  F   UNL     1     -12.014  11.461  70.952  1.00  0.00    -0.421 F  
ENDBRANCH  28  30
ENDBRANCH  24  28
TORSDOF 2
ENDMDL
MODEL       49
REMARK 921   NORMALIZED FREE ENERGY PREDICTED BY IDOCK:   -5.28 KCAL/MOL
REMARK 922        TOTAL FREE ENERGY PREDICTED BY IDOCK:   -5.93 KCAL/MOL
REMARK 923 INTER-LIGAND FREE ENERGY PREDICTED BY IDOCK:   -5.64 KCAL/MOL
REMARK 924 INTRA-LIGAND FREE ENERGY PREDICTED BY IDOCK:   -0.28 KCAL/MOL
REMARK 927      BINDING AFFINITY PREDICTED BY RF-SCORE:    0.00 PKD
ROOT
HETATM    1  C   UNL     1     -11.959  11.103  67.853  1.00  0.00     0.002 C  
HETATM    2  C   UNL     1     -10.753  11.403  66.956  1.00  0.00    -0.304 C  
HETATM    3  C   UNL     1     -10.081  10.199  66.299  1.00  0.00    -0.303 C  
HETATM    4  C   UNL     1      -8.983   9.799  67.274  1.00  0.00    -0.146 C  
HETATM    5  C   UNL     1      -9.560   9.059  68.522  1.00  0.00    -0.161 C  
HETATM    6  C   UNL     1     -10.444   7.876  68.122  1.00  0.00    -0.227 C  
HETATM    7  C   UNL     1     -11.036   7.256  69.360  1.00  0.00    -0.136 C  
HETATM    8  C   UNL     1      -9.927   6.582  70.113  1.00  0.00    -0.190 C  
HETATM    9  F   UNL     1     -11.606   8.242  70.106  1.00  0.00    -0.212 F  
HETATM   10  C   UNL     1     -10.294   5.534  70.887  1.00  0.00    -0.310 C  
HETATM   11  C   UNL     1     -10.864   6.072  72.172  1.00  0.00    -0.251 C  
HETATM   12  O   UNL     1     -11.747   5.474  72.768  1.00  0.00    -0.297 OA 
HETATM   13  C   UNL     1     -10.238   7.330  72.711  1.00  0.00    -0.266 C  
HETATM   14  C   UNL     1      -9.297   7.994  72.003  1.00  0.00    -0.237 C  
HETATM   15  C   UNL     1      -8.816   7.543  70.613  1.00  0.00    -0.146 C  
HETATM   16  C   UNL     1      -7.533   6.694  70.863  1.00  0.00    -0.084 C  
HETATM   17  C   UNL     1      -8.444   8.680  69.515  1.00  0.00    -0.129 C  
HETATM   18  F   UNL     1      -7.432   8.133  68.744  1.00  0.00    -0.081 F  
HETATM   19  C   UNL     1      -7.906  10.040  70.037  1.00  0.00    -0.158 C  
HETATM   20  C   UNL     1      -7.442  11.003  68.911  1.00  0.00    -0.123 C  
HETATM   21  O   UNL     1      -6.802   9.852  70.931  1.00  0.00    -0.289 OA 
HETATM   22  C   UNL     1      -8.316  11.172  67.613  1.00  0.00    -0.122 C  
HETATM   23  H   UNL     1      -6.473  10.685  71.251  1.00  0.00     0.000 HD 
HETATM   24  C   UNL     1      -9.567  12.192  67.641  1.00  0.00    -0.190 C  
HETATM   25  C   UNL     1      -7.308  11.580  66.502  1.00  0.00    -0.012 C  
HETATM   26  H   UNL     1      -9.129  12.929  69.427  1.00  0.00     0.000 HD 
HETATM   27  O   UNL     1      -9.841  12.455  69.015  1.00  0.00     0.052 OA 
ENDROOT
BRANCH  24  28
HETATM   28  C   UNL     1      -9.563  13.518  66.768  1.00  0.00    -0.267 C  
HETATM   29  O   UNL     1      -9.970  13.618  65.621  1.00  0.00    -0.288 OA 
BRANCH  28  30
HETATM   30  S   UNL     1      -9.152  14.997  67.666  1.00  0.00    -0.186 SA 
HETATM   31  C   UNL     1     -10.311  16.137  66.865  1.00  0.00    -0.297 C  
HETATM   32  F   UNL     1     -10.282  17.332  67.522  1.00  0.00    -0.283 F  
ENDBRANCH  28  30
ENDBRANCH  24  28
TORSDOF 2
ENDMDL
MODEL       50
REMARK 921   NORMALIZED FREE ENERGY PREDICTED BY IDOCK:   -5.27 KCAL/MOL
REMARK 922        TOTAL FREE ENERGY PREDICTED BY IDOCK:   -5.91 KCAL/MOL
REMARK 923 INTER-LIGAND FREE ENERGY PREDICTED BY IDOCK:   -5.76 KCAL/MOL
REMARK 924 INTRA-LIGAND FREE ENERGY PREDICTED BY IDOCK:   -0.16 KCAL/MOL
REMARK 927      BINDING AFFINITY PREDICTED BY RF-SCORE:    0.00 PKD
ROOT
HETATM    1  C   UNL     1      -7.683   9.647  64.280  1.00  0.00    -0.129 C  
HETATM    2  C   UNL     1      -7.739  10.286  65.672  1.00  0.00    -0.148 C  
HETATM    3  C   UNL     1      -6.954   9.580  66.774  1.00  0.00    -0.081 C  
HETATM    4  C   UNL     1      -7.959   8.629  67.407  1.00  0.00    -0.102 C  
HETATM    5  C   UNL     1      -8.219   7.380  66.505  1.00  0.00    -0.120 C  
HETATM    6  C   UNL     1      -6.915   6.678  66.118  1.00  0.00    -0.062 C  
HETATM    7  C   UNL     1      -7.224   5.537  65.185  1.00  0.00    -0.067 C  
HETATM    8  C   UNL     1      -7.933   4.475  65.973  1.00  0.00    -0.099 C  
HETATM    9  F   UNL     1      -8.009   6.005  64.175  1.00  0.00    -0.101 F  
HETATM   10  C   UNL     1      -7.787   3.210  65.517  1.00  0.00    -0.085 C  
HETATM   11  C   UNL     1      -8.733   3.010  64.364  1.00  0.00    -0.096 C  
HETATM   12  O   UNL     1      -8.453   2.259  63.443  1.00  0.00    -0.083 OA 
HETATM   13  C   UNL     1     -10.057   3.720  64.450  1.00  0.00    -0.220 C  
HETATM   14  C   UNL     1     -10.317   4.583  65.458  1.00  0.00    -0.254 C  
HETATM   15  C   UNL     1      -9.298   4.920  66.561  1.00  0.00    -0.142 C  
HETATM   16  C   UNL     1      -9.633   3.970  67.750  1.00  0.00    -0.204 C  
HETATM   17  C   UNL     1      -9.256   6.435  67.142  1.00  0.00    -0.123 C  
HETATM   18  F   UNL     1      -8.882   6.313  68.469  1.00  0.00    -0.116 F  
HETATM   19  C   UNL     1     -10.580   7.247  67.138  1.00  0.00    -0.346 C  
HETATM   20  C   UNL     1     -10.471   8.625  67.845  1.00  0.00    -0.269 C  
HETATM   21  O   UNL     1     -11.639   6.516  67.769  1.00  0.00    -0.646 OA 
HETATM   22  C   UNL     1      -9.216   9.540  67.592  1.00  0.00    -0.138 C  
HETATM   23  H   UNL     1     -12.449   7.013  67.767  1.00  0.00     0.000 HD 
HETATM   24  C   UNL     1      -9.185  10.480  66.280  1.00  0.00    -0.168 C  
HETATM   25  C   UNL     1      -9.082  10.401  68.879  1.00  0.00    -0.175 C  
HETATM   26  H   UNL     1     -11.061  10.094  65.768  1.00  0.00     0.000 HD 
HETATM   27  O   UNL     1     -10.192   9.979  65.402  1.00  0.00    -0.289 OA 
ENDROOT
BRANCH  24  28
HETATM   28  C   UNL     1      -9.236  12.062  66.403  1.00  0.00    -0.216 C  
HETATM   29  O   UNL     1      -8.359  12.767  66.878  1.00  0.00    -0.155 OA 
BRANCH  28  30
HETATM   30  S   UNL     1     -10.588  12.832  65.544  1.00  0.00    -0.286 SA 
HETATM   31  C   UNL     1     -11.582  13.324  66.978  1.00  0.00    -0.359 C  
HETATM   32  F   UNL     1     -12.623  14.095  66.550  1.00  0.00    -0.480 F  
ENDBRANCH  28  30
ENDBRANCH  24  28
TORSDOF 2
ENDMDL
MODEL       51
REMARK 921   NORMALIZED FREE ENERGY PREDICTED BY IDOCK:   -5.25 KCAL/MOL
REMARK 922        TOTAL FREE ENERGY PREDICTED BY IDOCK:   -5.89 KCAL/MOL
REMARK 923 INTER-LIGAND FREE ENERGY PREDICTED BY IDOCK:   -5.82 KCAL/MOL
REMARK 924 INTRA-LIGAND FREE ENERGY PREDICTED BY IDOCK:   -0.08 KCAL/MOL
REMARK 927      BINDING AFFINITY PREDICTED BY RF-SCORE:    0.00 PKD
ROOT
HETATM    1  C   UNL     1     -12.168  13.148  66.969  1.00  0.00    -0.271 C  
HETATM    2  C   UNL     1     -11.152  14.292  66.870  1.00  0.00    -0.315 C  
HETATM    3  C   UNL     1     -10.137  14.200  65.733  1.00  0.00    -0.352 C  
HETATM    4  C   UNL     1      -8.944  13.481  66.347  1.00  0.00     0.011 C  
HETATM    5  C   UNL     1      -9.212  11.952  66.509  1.00  0.00    -0.216 C  
HETATM    6  C   UNL     1      -9.666  11.312  65.195  1.00  0.00    -0.285 C  
HETATM    7  C   UNL     1      -9.987   9.860  65.433  1.00  0.00    -0.279 C  
HETATM    8  C   UNL     1      -8.699   9.141  65.707  1.00  0.00    -0.192 C  
HETATM    9  F   UNL     1     -10.833   9.775  66.498  1.00  0.00    -0.218 F  
HETATM   10  C   UNL     1      -8.680   7.827  65.386  1.00  0.00    -0.051 C  
HETATM   11  C   UNL     1      -9.363   7.060  66.486  1.00  0.00    -0.159 C  
HETATM   12  O   UNL     1      -9.983   6.035  66.248  1.00  0.00    -0.129 OA 
HETATM   13  C   UNL     1      -9.174   7.581  67.885  1.00  0.00    -0.137 C  
HETATM   14  C   UNL     1      -8.524   8.744  68.110  1.00  0.00    -0.130 C  
HETATM   15  C   UNL     1      -7.957   9.623  66.981  1.00  0.00    -0.109 C  
HETATM   16  C   UNL     1      -6.459   9.214  66.839  1.00  0.00    -0.067 C  
HETATM   17  C   UNL     1      -8.009  11.237  67.154  1.00  0.00    -0.151 C  
HETATM   18  F   UNL     1      -6.893  11.716  66.490  1.00  0.00    -0.132 F  
HETATM   19  C   UNL     1      -7.937  11.812  68.595  1.00  0.00    -0.116 C  
HETATM   20  C   UNL     1      -7.846  13.361  68.646  1.00  0.00    -0.073 C  
HETATM   21  O   UNL     1      -6.811  11.286  69.308  1.00  0.00    -0.095 OA 
HETATM   22  C   UNL     1      -8.760  14.233  67.706  1.00  0.00    -0.179 C  
HETATM   23  H   UNL     1      -6.768  11.638  70.190  1.00  0.00     0.000 HD 
HETATM   24  C   UNL     1     -10.277  14.545  68.161  1.00  0.00    -0.230 C  
HETATM   25  C   UNL     1      -7.972  15.556  67.497  1.00  0.00    -0.189 C  
HETATM   26  H   UNL     1     -10.061  13.764  69.970  1.00  0.00     0.000 HD 
HETATM   27  O   UNL     1     -10.587  13.612  69.194  1.00  0.00    -0.176 OA 
ENDROOT
BRANCH  24  28
HETATM   28  C   UNL     1     -10.733  16.020  68.533  1.00  0.00    -0.287 C  
HETATM   29  O   UNL     1     -11.034  16.894  67.736  1.00  0.00    -0.315 OA 
BRANCH  28  30
HETATM   30  S   UNL     1     -11.050  16.287  70.262  1.00  0.00    -0.245 SA 
HETATM   31  C   UNL     1     -12.694  15.529  70.361  1.00  0.00    -0.338 C  
HETATM   32  F   UNL     1     -13.078  15.477  71.668  1.00  0.00    -0.390 F  
ENDBRANCH  28  30
ENDBRANCH  24  28
TORSDOF 2
ENDMDL
MODEL       52
REMARK 921   NORMALIZED FREE ENERGY PREDICTED BY IDOCK:   -5.19 KCAL/MOL
REMARK 922        TOTAL FREE ENERGY PREDICTED BY IDOCK:   -5.83 KCAL/MOL
REMARK 923 INTER-LIGAND FREE ENERGY PREDICTED BY IDOCK:   -5.51 KCAL/MOL
REMARK 924 INTRA-LIGAND FREE ENERGY PREDICTED BY IDOCK:   -0.32 KCAL/MOL
REMARK 927      BINDING AFFINITY PREDICTED BY RF-SCORE:    0.00 PKD
ROOT
HETATM    1  C   UNL     1     -11.405  10.937  69.444  1.00  0.00    -0.347 C  
HETATM    2  C   UNL     1     -11.320  10.867  67.915  1.00  0.00    -0.380 C  
HETATM    3  C   UNL     1     -11.012   9.496  67.316  1.00  0.00    -0.062 C  
HETATM    4  C   UNL     1      -9.496   9.470  67.187  1.00  0.00    -0.187 C  
HETATM    5  C   UNL     1      -8.802   9.253  68.569  1.00  0.00    -0.129 C  
HETATM    6  C   UNL     1      -9.348   8.018  69.290  1.00  0.00    -0.151 C  
HETATM    7  C   UNL     1      -8.703   7.909  70.647  1.00  0.00    -0.135 C  
HETATM    8  C   UNL     1      -7.261   7.546  70.444  1.00  0.00    -0.064 C  
HETATM    9  F   UNL     1      -8.822   9.109  71.279  1.00  0.00    -0.244 F  
HETATM   10  C   UNL     1      -6.679   6.865  71.458  1.00  0.00    -0.060 C  
HETATM   11  C   UNL     1      -6.299   7.848  72.532  1.00  0.00    -0.065 C  
HETATM   12  O   UNL     1      -6.303   7.526  73.710  1.00  0.00    -0.070 OA 
HETATM   13  C   UNL     1      -5.847   9.207  72.070  1.00  0.00    -0.059 C  
HETATM   14  C   UNL     1      -5.901   9.548  70.764  1.00  0.00    -0.066 C  
HETATM   15  C   UNL     1      -6.437   8.608  69.670  1.00  0.00    -0.039 C  
HETATM   16  C   UNL     1      -5.186   7.894  69.075  1.00  0.00    -0.023 C  
HETATM   17  C   UNL     1      -7.268   9.252  68.432  1.00  0.00    -0.076 C  
HETATM   18  F   UNL     1      -6.992   8.445  67.342  1.00  0.00    -0.066 F  
HETATM   19  C   UNL     1      -6.913  10.701  68.000  1.00  0.00    -0.073 C  
HETATM   20  C   UNL     1      -7.655  11.172  66.720  1.00  0.00    -0.146 C  
HETATM   21  O   UNL     1      -5.506  10.842  67.764  1.00  0.00    -0.040 OA 
HETATM   22  C   UNL     1      -9.188  10.861  66.543  1.00  0.00    -0.189 C  
HETATM   23  H   UNL     1      -5.289  11.729  67.500  1.00  0.00     0.000 HD 
HETATM   24  C   UNL     1     -10.269  11.836  67.241  1.00  0.00    -0.203 C  
HETATM   25  C   UNL     1      -9.412  10.814  65.006  1.00  0.00    -0.286 C  
HETATM   26  H   UNL     1      -8.925  13.177  67.812  1.00  0.00     0.000 HD 
HETATM   27  O   UNL     1      -9.557  12.594  68.217  1.00  0.00    -0.214 OA 
ENDROOT
BRANCH  24  28
HETATM   28  C   UNL     1     -11.235  12.745  66.369  1.00  0.00    -0.299 C  
HETATM   29  O   UNL     1     -12.390  12.479  66.075  1.00  0.00    -0.615 OA 
BRANCH  28  30
HETATM   30  S   UNL     1     -10.616  14.377  66.029  1.00  0.00    -0.313 SA 
HETATM   31  C   UNL     1     -11.722  14.813  64.661  1.00  0.00    -0.422 C  
HETATM   32  F   UNL     1     -11.527  16.123  64.336  1.00  0.00    -0.488 F  
ENDBRANCH  28  30
ENDBRANCH  24  28
TORSDOF 2
ENDMDL
MODEL       53
REMARK 921   NORMALIZED FREE ENERGY PREDICTED BY IDOCK:   -5.18 KCAL/MOL
REMARK 922        TOTAL FREE ENERGY PREDICTED BY IDOCK:   -5.82 KCAL/MOL
REMARK 923 INTER-LIGAND FREE ENERGY PREDICTED BY IDOCK:   -5.70 KCAL/MOL
REMARK 924 INTRA-LIGAND FREE ENERGY PREDICTED BY IDOCK:   -0.12 KCAL/MOL
REMARK 927      BINDING AFFINITY PREDICTED BY RF-SCORE:    0.00 PKD
ROOT
HETATM    1  C   UNL     1      -9.391   8.507  72.540  1.00  0.00    -0.316 C  
HETATM    2  C   UNL     1      -8.965   7.061  72.258  1.00  0.00    -0.144 C  
HETATM    3  C   UNL     1      -7.796   6.875  71.294  1.00  0.00    -0.097 C  
HETATM    4  C   UNL     1      -8.451   6.721  69.929  1.00  0.00    -0.140 C  
HETATM    5  C   UNL     1      -8.961   8.089  69.375  1.00  0.00    -0.148 C  
HETATM    6  C   UNL     1      -7.856   9.149  69.376  1.00  0.00    -0.095 C  
HETATM    7  C   UNL     1      -8.428  10.462  68.911  1.00  0.00    -0.144 C  
HETATM    8  C   UNL     1      -8.745  10.337  67.450  1.00  0.00    -0.128 C  
HETATM    9  F   UNL     1      -9.551  10.725  69.635  1.00  0.00    -0.181 F  
HETATM   10  C   UNL     1      -8.713  11.488  66.741  1.00  0.00    -0.178 C  
HETATM   11  C   UNL     1     -10.005  12.224  66.976  1.00  0.00    -0.211 C  
HETATM   12  O   UNL     1     -10.046  13.444  66.966  1.00  0.00    -0.241 OA 
HETATM   13  C   UNL     1     -11.239  11.379  67.143  1.00  0.00    -0.363 C  
HETATM   14  C   UNL     1     -11.154  10.031  67.198  1.00  0.00    -0.065 C  
HETATM   15  C   UNL     1      -9.820   9.268  67.118  1.00  0.00    -0.251 C  
HETATM   16  C   UNL     1      -9.647   8.873  65.620  1.00  0.00    -0.175 C  
HETATM   17  C   UNL     1      -9.644   7.919  68.004  1.00  0.00    -0.151 C  
HETATM   18  F   UNL     1      -8.803   7.101  67.269  1.00  0.00    -0.118 F  
HETATM   19  C   UNL     1     -10.915   7.079  68.302  1.00  0.00    -0.083 C  
HETATM   20  C   UNL     1     -10.623   5.737  69.026  1.00  0.00    -0.351 C  
HETATM   21  O   UNL     1     -11.631   6.777  67.098  1.00  0.00    -0.725 OA 
HETATM   22  C   UNL     1      -9.596   5.696  70.218  1.00  0.00    -0.216 C  
HETATM   23  H   UNL     1     -12.409   6.263  67.280  1.00  0.00     0.000 HD 
HETATM   24  C   UNL     1     -10.095   6.110  71.696  1.00  0.00    -0.187 C  
HETATM   25  C   UNL     1      -9.042   4.244  70.219  1.00  0.00    -0.166 C  
HETATM   26  H   UNL     1     -12.006   6.237  71.185  1.00  0.00     0.000 HD 
HETATM   27  O   UNL     1     -11.327   6.808  71.523  1.00  0.00    -0.252 OA 
ENDROOT
BRANCH  24  28
HETATM   28  C   UNL     1     -10.176   5.038  72.864  1.00  0.00    -0.178 C  
HETATM   29  O   UNL     1     -10.966   4.110  72.925  1.00  0.00    -0.167 OA 
BRANCH  28  30
HETATM   30  S   UNL     1      -8.826   5.096  74.020  1.00  0.00    -0.116 SA 
HETATM   31  C   UNL     1      -8.109   3.464  73.690  1.00  0.00    -0.074 C  
HETATM   32  F   UNL     1      -6.934   3.352  74.372  1.00  0.00    -0.040 F  
ENDBRANCH  28  30
ENDBRANCH  24  28
TORSDOF 2
ENDMDL
MODEL       54
REMARK 921   NORMALIZED FREE ENERGY PREDICTED BY IDOCK:   -5.14 KCAL/MOL
REMARK 922        TOTAL FREE ENERGY PREDICTED BY IDOCK:   -5.77 KCAL/MOL
REMARK 923 INTER-LIGAND FREE ENERGY PREDICTED BY IDOCK:   -5.41 KCAL/MOL
REMARK 924 INTRA-LIGAND FREE ENERGY PREDICTED BY IDOCK:   -0.36 KCAL/MOL
REMARK 927      BINDING AFFINITY PREDICTED BY RF-SCORE:    0.00 PKD
ROOT
HETATM    1  C   UNL     1      -7.786   5.639  66.926  1.00  0.00    -0.101 C  
HETATM    2  C   UNL     1      -8.502   4.776  67.970  1.00  0.00    -0.102 C  
HETATM    3  C   UNL     1     -10.020   4.921  68.044  1.00  0.00    -0.175 C  
HETATM    4  C   UNL     1     -10.248   5.999  69.093  1.00  0.00    -0.258 C  
HETATM    5  C   UNL     1      -9.930   7.423  68.537  1.00  0.00    -0.172 C  
HETATM    6  C   UNL     1     -10.686   7.706  67.236  1.00  0.00    -0.344 C  
HETATM    7  C   UNL     1     -10.276   9.056  66.707  1.00  0.00    -0.271 C  
HETATM    8  C   UNL     1     -10.832  10.101  67.630  1.00  0.00    -0.346 C  
HETATM    9  F   UNL     1      -8.916   9.109  66.668  1.00  0.00    -0.132 F  
HETATM   10  C   UNL     1     -11.076  11.308  67.070  1.00  0.00    -0.356 C  
HETATM   11  C   UNL     1      -9.775  12.058  66.974  1.00  0.00    -0.196 C  
HETATM   12  O   UNL     1      -9.568  12.848  66.066  1.00  0.00    -0.242 OA 
HETATM   13  C   UNL     1      -8.789  11.838  68.090  1.00  0.00    -0.169 C  
HETATM   14  C   UNL     1      -9.026  10.922  69.054  1.00  0.00    -0.104 C  
HETATM   15  C   UNL     1     -10.282  10.032  69.079  1.00  0.00    -0.216 C  
HETATM   16  C   UNL     1     -11.300  10.762  70.006  1.00  0.00    -0.397 C  
HETATM   17  C   UNL     1     -10.140   8.505  69.614  1.00  0.00    -0.202 C  
HETATM   18  F   UNL     1     -11.355   8.208  70.208  1.00  0.00    -0.267 F  
HETATM   19  C   UNL     1      -9.051   8.212  70.681  1.00  0.00    -0.150 C  
HETATM   20  C   UNL     1      -9.093   6.762  71.235  1.00  0.00    -0.150 C  
HETATM   21  O   UNL     1      -9.163   9.106  71.795  1.00  0.00    -0.338 OA 
HETATM   22  C   UNL     1      -9.296   5.551  70.249  1.00  0.00    -0.194 C  
HETATM   23  H   UNL     1      -8.496   8.927  72.449  1.00  0.00     0.000 HD 
HETATM   24  C   UNL     1      -8.016   4.960  69.463  1.00  0.00    -0.070 C  
HETATM   25  C   UNL     1      -9.964   4.443  71.110  1.00  0.00    -0.243 C  
HETATM   26  H   UNL     1      -6.700   6.059  70.457  1.00  0.00     0.000 HD 
HETATM   27  O   UNL     1      -6.992   5.948  69.560  1.00  0.00    -0.059 OA 
ENDROOT
BRANCH  24  28
HETATM   28  C   UNL     1      -7.469   3.502  69.769  1.00  0.00    -0.045 C  
HETATM   29  O   UNL     1      -7.622   2.520  69.060  1.00  0.00    -0.044 OA 
BRANCH  28  30
HETATM   30  S   UNL     1      -6.341   3.403  71.140  1.00  0.00    -0.019 SA 
HETATM   31  C   UNL     1      -7.200   2.138  72.114  1.00  0.00    -0.038 C  
HETATM   32  F   UNL     1      -6.410   1.779  73.166  1.00  0.00    -0.010 F  
ENDBRANCH  28  30
ENDBRANCH  24  28
TORSDOF 2
ENDMDL
MODEL       55
REMARK 921   NORMALIZED FREE ENERGY PREDICTED BY IDOCK:   -5.09 KCAL/MOL
REMARK 922        TOTAL FREE ENERGY PREDICTED BY IDOCK:   -5.71 KCAL/MOL
REMARK 923 INTER-LIGAND FREE ENERGY PREDICTED BY IDOCK:   -5.47 KCAL/MOL
REMARK 924 INTRA-LIGAND FREE ENERGY PREDICTED BY IDOCK:   -0.25 KCAL/MOL
REMARK 927      BINDING AFFINITY PREDICTED BY RF-SCORE:    0.00 PKD
ROOT
HETATM    1  C   UNL     1      -8.360   9.554  70.341  1.00  0.00    -0.226 C  
HETATM    2  C   UNL     1      -8.915   8.311  71.044  1.00  0.00    -0.183 C  
HETATM    3  C   UNL     1      -8.089   7.033  70.914  1.00  0.00    -0.109 C  
HETATM    4  C   UNL     1      -8.662   6.333  69.690  1.00  0.00    -0.136 C  
HETATM    5  C   UNL     1      -8.198   7.016  68.364  1.00  0.00    -0.124 C  
HETATM    6  C   UNL     1      -6.675   7.152  68.299  1.00  0.00    -0.061 C  
HETATM    7  C   UNL     1      -6.296   7.889  67.041  1.00  0.00    -0.055 C  
HETATM    8  C   UNL     1      -6.584   6.990  65.875  1.00  0.00    -0.052 C  
HETATM    9  F   UNL     1      -7.033   9.033  66.972  1.00  0.00    -0.073 F  
HETATM   10  C   UNL     1      -5.826   7.196  64.773  1.00  0.00    -0.037 C  
HETATM   11  C   UNL     1      -6.389   8.376  64.026  1.00  0.00    -0.071 C  
HETATM   12  O   UNL     1      -5.663   9.118  63.383  1.00  0.00    -0.080 OA 
HETATM   13  C   UNL     1      -7.885   8.537  64.054  1.00  0.00    -0.148 C  
HETATM   14  C   UNL     1      -8.655   7.729  64.814  1.00  0.00     0.107 C  
HETATM   15  C   UNL     1      -8.081   6.617  65.709  1.00  0.00    -0.122 C  
HETATM   16  C   UNL     1      -8.152   5.311  64.861  1.00  0.00    -0.122 C  
HETATM   17  C   UNL     1      -8.803   6.316  67.132  1.00  0.00    -0.109 C  
HETATM   18  F   UNL     1      -8.632   4.960  67.354  1.00  0.00    -0.106 F  
HETATM   19  C   UNL     1     -10.329   6.584  67.239  1.00  0.00    -0.222 C  
HETATM   20  C   UNL     1     -10.952   6.129  68.586  1.00  0.00    -0.415 C  
HETATM   21  O   UNL     1     -11.046   5.930  66.185  1.00  0.00    -0.683 OA 
HETATM   22  C   UNL     1     -10.203   6.428  69.938  1.00  0.00    -0.224 C  
HETATM   23  H   UNL     1     -11.980   6.094  66.250  1.00  0.00     0.000 HD 
HETATM   24  C   UNL     1     -10.376   7.880  70.623  1.00  0.00    -0.202 C  
HETATM   25  C   UNL     1     -10.670   5.310  70.910  1.00  0.00    -0.189 C  
HETATM   26  H   UNL     1     -11.782   8.481  69.362  1.00  0.00     0.000 HD 
HETATM   27  O   UNL     1     -10.904   8.740  69.615  1.00  0.00    -0.231 OA 
ENDROOT
BRANCH  24  28
HETATM   28  C   UNL     1     -11.135   8.047  72.007  1.00  0.00    -0.293 C  
HETATM   29  O   UNL     1     -10.626   7.959  73.113  1.00  0.00    -0.359 OA 
BRANCH  28  30
HETATM   30  S   UNL     1     -12.802   8.653  71.873  1.00  0.00    -0.391 SA 
HETATM   31  C   UNL     1     -12.457  10.430  71.954  1.00  0.00    -0.195 C  
HETATM   32  F   UNL     1     -13.609  11.116  71.704  1.00  0.00    -0.356 F  
ENDBRANCH  28  30
ENDBRANCH  24  28
TORSDOF 2
ENDMDL
MODEL       56
REMARK 921   NORMALIZED FREE ENERGY PREDICTED BY IDOCK:   -5.06 KCAL/MOL
REMARK 922        TOTAL FREE ENERGY PREDICTED BY IDOCK:   -5.69 KCAL/MOL
REMARK 923 INTER-LIGAND FREE ENERGY PREDICTED BY IDOCK:   -5.44 KCAL/MOL
REMARK 924 INTRA-LIGAND FREE ENERGY PREDICTED BY IDOCK:   -0.25 KCAL/MOL
REMARK 927      BINDING AFFINITY PREDICTED BY RF-SCORE:    0.00 PKD
ROOT
HETATM    1  C   UNL     1     -10.644   7.476  66.943  1.00  0.00    -0.367 C  
HETATM    2  C   UNL     1      -9.534   8.141  66.121  1.00  0.00    -0.217 C  
HETATM    3  C   UNL     1      -8.152   7.498  66.203  1.00  0.00    -0.116 C  
HETATM    4  C   UNL     1      -7.456   8.234  67.339  1.00  0.00    -0.094 C  
HETATM    5  C   UNL     1      -7.983   7.773  68.734  1.00  0.00    -0.125 C  
HETATM    6  C   UNL     1      -7.910   6.253  68.895  1.00  0.00    -0.105 C  
HETATM    7  C   UNL     1      -8.506   5.864  70.222  1.00  0.00    -0.127 C  
HETATM    8  C   UNL     1      -7.579   6.341  71.301  1.00  0.00    -0.094 C  
HETATM    9  F   UNL     1      -9.731   6.449  70.333  1.00  0.00    -0.164 F  
HETATM   10  C   UNL     1      -7.610   5.636  72.456  1.00  0.00    -0.098 C  
HETATM   11  C   UNL     1      -8.803   6.088  73.255  1.00  0.00    -0.130 C  
HETATM   12  O   UNL     1      -9.398   5.315  73.990  1.00  0.00    -0.127 OA 
HETATM   13  C   UNL     1      -9.165   7.545  73.156  1.00  0.00    -0.244 C  
HETATM   14  C   UNL     1      -8.518   8.363  72.297  1.00  0.00    -0.242 C  
HETATM   15  C   UNL     1      -7.400   7.881  71.356  1.00  0.00    -0.066 C  
HETATM   16  C   UNL     1      -6.062   8.175  72.101  1.00  0.00    -0.049 C  
HETATM   17  C   UNL     1      -7.291   8.542  69.877  1.00  0.00    -0.055 C  
HETATM   18  F   UNL     1      -5.942   8.535  69.566  1.00  0.00    -0.032 F  
HETATM   19  C   UNL     1      -7.768  10.010  69.705  1.00  0.00    -0.168 C  
HETATM   20  C   UNL     1      -7.488  10.598  68.295  1.00  0.00    -0.091 C  
HETATM   21  O   UNL     1      -7.148  10.873  70.667  1.00  0.00    -0.387 OA 
HETATM   22  C   UNL     1      -7.772   9.731  67.013  1.00  0.00    -0.095 C  
HETATM   23  H   UNL     1      -7.439  11.771  70.562  1.00  0.00     0.000 HD 
HETATM   24  C   UNL     1      -9.276   9.670  66.428  1.00  0.00    -0.163 C  
HETATM   25  C   UNL     1      -6.792  10.275  65.937  1.00  0.00    -0.125 C  
HETATM   26  H   UNL     1      -9.976  11.065  67.649  1.00  0.00     0.000 HD 
HETATM   27  O   UNL     1     -10.131  10.146  67.465  1.00  0.00    -0.182 OA 
ENDROOT
BRANCH  24  28
HETATM   28  C   UNL     1      -9.633  10.310  65.019  1.00  0.00    -0.285 C  
HETATM   29  O   UNL     1      -9.485   9.770  63.934  1.00  0.00    -0.232 OA 
BRANCH  28  30
HETATM   30  S   UNL     1     -10.546  11.833  65.104  1.00  0.00    -0.294 SA 
HETATM   31  C   UNL     1     -10.954  12.009  63.347  1.00  0.00    -0.403 C  
HETATM   32  F   UNL     1     -11.812  13.058  63.196  1.00  0.00    -0.565 F  
ENDBRANCH  28  30
ENDBRANCH  24  28
TORSDOF 2
ENDMDL
MODEL       57
REMARK 921   NORMALIZED FREE ENERGY PREDICTED BY IDOCK:   -5.03 KCAL/MOL
REMARK 922        TOTAL FREE ENERGY PREDICTED BY IDOCK:   -5.65 KCAL/MOL
REMARK 923 INTER-LIGAND FREE ENERGY PREDICTED BY IDOCK:   -5.61 KCAL/MOL
REMARK 924 INTRA-LIGAND FREE ENERGY PREDICTED BY IDOCK:   -0.04 KCAL/MOL
REMARK 927      BINDING AFFINITY PREDICTED BY RF-SCORE:    0.00 PKD
ROOT
HETATM    1  C   UNL     1     -11.198   6.428  69.430  1.00  0.00    -0.459 C  
HETATM    2  C   UNL     1      -9.867   5.802  69.001  1.00  0.00    -0.204 C  
HETATM    3  C   UNL     1      -8.602   6.553  69.410  1.00  0.00    -0.134 C  
HETATM    4  C   UNL     1      -8.305   7.467  68.230  1.00  0.00    -0.125 C  
HETATM    5  C   UNL     1      -9.271   8.693  68.191  1.00  0.00    -0.142 C  
HETATM    6  C   UNL     1      -9.285   9.447  69.524  1.00  0.00    -0.182 C  
HETATM    7  C   UNL     1     -10.292  10.564  69.452  1.00  0.00    -0.234 C  
HETATM    8  C   UNL     1      -9.764  11.602  68.507  1.00  0.00    -0.187 C  
HETATM    9  F   UNL     1     -11.474  10.052  69.008  1.00  0.00    -0.244 F  
HETATM   10  C   UNL     1     -10.187  12.868  68.728  1.00  0.00    -0.105 C  
HETATM   11  C   UNL     1     -11.567  13.014  68.146  1.00  0.00    -0.341 C  
HETATM   12  O   UNL     1     -12.386  13.767  68.649  1.00  0.00    -0.271 OA 
HETATM   13  C   UNL     1     -11.847  12.249  66.881  1.00  0.00    -0.334 C  
HETATM   14  C   UNL     1     -10.938  11.386  66.377  1.00  0.00    -0.315 C  
HETATM   15  C   UNL     1      -9.582  11.105  67.049  1.00  0.00    -0.201 C  
HETATM   16  C   UNL     1      -8.559  12.052  66.350  1.00  0.00    -0.037 C  
HETATM   17  C   UNL     1      -8.979   9.599  66.980  1.00  0.00    -0.134 C  
HETATM   18  F   UNL     1      -7.603   9.752  66.953  1.00  0.00    -0.092 F  
HETATM   19  C   UNL     1      -9.344   8.731  65.745  1.00  0.00    -0.191 C  
HETATM   20  C   UNL     1      -8.604   7.366  65.699  1.00  0.00    -0.128 C  
HETATM   21  O   UNL     1      -9.058   9.422  64.523  1.00  0.00    -0.327 OA 
HETATM   22  C   UNL     1      -8.467   6.504  67.009  1.00  0.00    -0.113 C  
HETATM   23  H   UNL     1      -9.281   8.890  63.767  1.00  0.00     0.000 HD 
HETATM   24  C   UNL     1      -9.694   5.553  67.450  1.00  0.00    -0.135 C  
HETATM   25  C   UNL     1      -7.176   5.663  66.800  1.00  0.00    -0.074 C  
HETATM   26  H   UNL     1     -10.730   5.851  65.787  1.00  0.00     0.000 HD 
HETATM   27  O   UNL     1     -10.834   6.001  66.719  1.00  0.00    -0.315 OA 
ENDROOT
BRANCH  24  28
HETATM   28  C   UNL     1      -9.555   3.971  67.427  1.00  0.00    -0.177 C  
HETATM   29  O   UNL     1      -9.497   3.276  66.426  1.00  0.00    -0.163 OA 
BRANCH  28  30
HETATM   30  S   UNL     1      -9.211   3.232  69.008  1.00  0.00    -0.164 SA 
HETATM   31  C   UNL     1      -7.429   2.968  68.807  1.00  0.00    -0.048 C  
HETATM   32  F   UNL     1      -6.909   2.542  69.994  1.00  0.00    -0.032 F  
ENDBRANCH  28  30
ENDBRANCH  24  28
TORSDOF 2
ENDMDL
MODEL       58
REMARK 921   NORMALIZED FREE ENERGY PREDICTED BY IDOCK:   -5.03 KCAL/MOL
REMARK 922        TOTAL FREE ENERGY PREDICTED BY IDOCK:   -5.65 KCAL/MOL
REMARK 923 INTER-LIGAND FREE ENERGY PREDICTED BY IDOCK:   -5.36 KCAL/MOL
REMARK 924 INTRA-LIGAND FREE ENERGY PREDICTED BY IDOCK:   -0.29 KCAL/MOL
REMARK 927      BINDING AFFINITY PREDICTED BY RF-SCORE:    0.00 PKD
ROOT
HETATM    1  C   UNL     1      -6.755  10.831  66.344  1.00  0.00    -0.131 C  
HETATM    2  C   UNL     1      -7.876  11.567  67.085  1.00  0.00    -0.160 C  
HETATM    3  C   UNL     1      -7.965  11.328  68.591  1.00  0.00    -0.145 C  
HETATM    4  C   UNL     1      -8.930  10.160  68.734  1.00  0.00    -0.147 C  
HETATM    5  C   UNL     1      -8.258   8.805  68.348  1.00  0.00    -0.118 C  
HETATM    6  C   UNL     1      -6.952   8.580  69.115  1.00  0.00    -0.063 C  
HETATM    7  C   UNL     1      -6.311   7.302  68.641  1.00  0.00    -0.036 C  
HETATM    8  C   UNL     1      -7.158   6.158  69.115  1.00  0.00    -0.070 C  
HETATM    9  F   UNL     1      -6.244   7.331  67.281  1.00  0.00    -0.043 F  
HETATM   10  C   UNL     1      -6.509   4.986  69.303  1.00  0.00    -0.039 C  
HETATM   11  C   UNL     1      -6.332   4.322  67.964  1.00  0.00    -0.037 C  
HETATM   12  O   UNL     1      -5.361   3.619  67.733  1.00  0.00    -0.011 OA 
HETATM   13  C   UNL     1      -7.444   4.512  66.968  1.00  0.00    -0.081 C  
HETATM   14  C   UNL     1      -8.481   5.335  67.235  1.00  0.00    -0.106 C  
HETATM   15  C   UNL     1      -8.598   6.146  68.539  1.00  0.00    -0.113 C  
HETATM   16  C   UNL     1      -9.483   5.288  69.493  1.00  0.00    -0.192 C  
HETATM   17  C   UNL     1      -9.249   7.632  68.472  1.00  0.00    -0.143 C  
HETATM   18  F   UNL     1      -9.886   7.811  69.689  1.00  0.00    -0.175 F  
HETATM   19  C   UNL     1     -10.317   7.905  67.379  1.00  0.00    -0.279 C  
HETATM   20  C   UNL     1     -10.984   9.303  67.490  1.00  0.00    -0.047 C  
HETATM   21  O   UNL     1     -11.359   6.921  67.414  1.00  0.00    -0.615 OA 
HETATM   22  C   UNL     1     -10.101  10.572  67.783  1.00  0.00    -0.205 C  
HETATM   23  H   UNL     1     -12.013   7.088  66.745  1.00  0.00     0.000 HD 
HETATM   24  C   UNL     1      -9.341  11.296  66.556  1.00  0.00    -0.185 C  
HETATM   25  C   UNL     1     -11.057  11.569  68.494  1.00  0.00    -0.287 C  
HETATM   26  H   UNL     1     -10.222  10.202  65.159  1.00  0.00     0.000 HD 
HETATM   27  O   UNL     1      -9.342  10.365  65.476  1.00  0.00    -0.173 OA 
ENDROOT
BRANCH  24  28
HETATM   28  C   UNL     1      -9.751  12.756  66.086  1.00  0.00    -0.246 C  
HETATM   29  O   UNL     1      -9.306  13.800  66.535  1.00  0.00    -0.269 OA 
BRANCH  28  30
HETATM   30  S   UNL     1     -10.756  12.810  64.620  1.00  0.00    -0.359 SA 
HETATM   31  C   UNL     1     -11.771  14.254  65.034  1.00  0.00    -0.383 C  
HETATM   32  F   UNL     1     -12.529  14.586  63.950  1.00  0.00    -0.503 F  
ENDBRANCH  28  30
ENDBRANCH  24  28
TORSDOF 2
ENDMDL
MODEL       59
REMARK 921   NORMALIZED FREE ENERGY PREDICTED BY IDOCK:   -5.02 KCAL/MOL
REMARK 922        TOTAL FREE ENERGY PREDICTED BY IDOCK:   -5.64 KCAL/MOL
REMARK 923 INTER-LIGAND FREE ENERGY PREDICTED BY IDOCK:   -6.07 KCAL/MOL
REMARK 924 INTRA-LIGAND FREE ENERGY PREDICTED BY IDOCK:    0.43 KCAL/MOL
REMARK 927      BINDING AFFINITY PREDICTED BY RF-SCORE:    0.00 PKD
ROOT
HETATM    1  C   UNL     1      -6.470   8.050  67.964  1.00  0.00    -0.056 C  
HETATM    2  C   UNL     1      -6.421   9.549  67.647  1.00  0.00    -0.062 C  
HETATM    3  C   UNL     1      -6.460  10.496  68.844  1.00  0.00    -0.048 C  
HETATM    4  C   UNL     1      -7.938  10.805  69.036  1.00  0.00    -0.137 C  
HETATM    5  C   UNL     1      -8.697   9.609  69.693  1.00  0.00    -0.206 C  
HETATM    6  C   UNL     1      -8.024   9.152  70.989  1.00  0.00    -0.166 C  
HETATM    7  C   UNL     1      -8.750   7.948  71.529  1.00  0.00    -0.125 C  
HETATM    8  C   UNL     1     -10.096   8.401  72.014  1.00  0.00    -0.364 C  
HETATM    9  F   UNL     1      -8.872   7.033  70.528  1.00  0.00    -0.147 F  
HETATM   10  C   UNL     1     -10.643   7.660  73.005  1.00  0.00    -0.433 C  
HETATM   11  C   UNL     1     -11.257   6.430  72.393  1.00  0.00    -0.277 C  
HETATM   12  O   UNL     1     -11.298   5.374  73.005  1.00  0.00    -0.302 OA 
HETATM   13  C   UNL     1     -11.879   6.596  71.033  1.00  0.00    -0.427 C  
HETATM   14  C   UNL     1     -11.775   7.764  70.360  1.00  0.00    -0.045 C  
HETATM   15  C   UNL     1     -11.012   8.984  70.906  1.00  0.00    -0.332 C  
HETATM   16  C   UNL     1     -12.084   9.878  71.601  1.00  0.00    -0.457 C  
HETATM   17  C   UNL     1     -10.197   9.921  69.860  1.00  0.00    -0.257 C  
HETATM   18  F   UNL     1     -10.254  11.200  70.387  1.00  0.00     0.376 F  
HETATM   19  C   UNL     1     -10.740  10.024  68.409  1.00  0.00    -0.234 C  
HETATM   20  C   UNL     1      -9.980  11.054  67.529  1.00  0.00    -0.199 C  
HETATM   21  O   UNL     1     -12.127  10.382  68.398  1.00  0.00    -0.769 OA 
HETATM   22  C   UNL     1      -8.408  11.121  67.579  1.00  0.00    -0.122 C  
HETATM   23  H   UNL     1     -12.459  10.446  67.510  1.00  0.00     0.000 HD 
HETATM   24  C   UNL     1      -7.554  10.084  66.684  1.00  0.00    -0.104 C  
HETATM   25  C   UNL     1      -8.058  12.586  67.197  1.00  0.00    -0.156 C  
HETATM   26  H   UNL     1      -9.133   9.365  65.726  1.00  0.00     0.000 HD 
HETATM   27  O   UNL     1      -8.452   9.043  66.305  1.00  0.00    -0.119 OA 
ENDROOT
BRANCH  24  28
HETATM   28  C   UNL     1      -6.676  10.589  65.461  1.00  0.00    -0.092 C  
HETATM   29  O   UNL     1      -5.619  11.194  65.545  1.00  0.00    -0.152 OA 
BRANCH  28  30
HETATM   30  S   UNL     1      -7.195   9.981  63.872  1.00  0.00    -0.106 SA 
HETATM   31  C   UNL     1      -8.970  10.317  64.015  1.00  0.00    -0.237 C  
HETATM   32  F   UNL     1      -9.565  10.069  62.813  1.00  0.00    -0.310 F  
ENDBRANCH  28  30
ENDBRANCH  24  28
TORSDOF 2
ENDMDL
MODEL       60
REMARK 921   NORMALIZED FREE ENERGY PREDICTED BY IDOCK:   -4.98 KCAL/MOL
REMARK 922        TOTAL FREE ENERGY PREDICTED BY IDOCK:   -5.59 KCAL/MOL
REMARK 923 INTER-LIGAND FREE ENERGY PREDICTED BY IDOCK:   -5.64 KCAL/MOL
REMARK 924 INTRA-LIGAND FREE ENERGY PREDICTED BY IDOCK:    0.05 KCAL/MOL
REMARK 927      BINDING AFFINITY PREDICTED BY RF-SCORE:    0.00 PKD
ROOT
HETATM    1  C   UNL     1     -10.643   8.105  68.335  1.00  0.00    -0.148 C  
HETATM    2  C   UNL     1     -10.488   8.530  69.799  1.00  0.00    -0.220 C  
HETATM    3  C   UNL     1      -9.071   8.501  70.368  1.00  0.00    -0.164 C  
HETATM    4  C   UNL     1      -8.937   7.115  70.980  1.00  0.00    -0.150 C  
HETATM    5  C   UNL     1      -8.745   6.016  69.888  1.00  0.00    -0.131 C  
HETATM    6  C   UNL     1      -7.588   6.351  68.943  1.00  0.00    -0.100 C  
HETATM    7  C   UNL     1      -7.506   5.301  67.866  1.00  0.00    -0.076 C  
HETATM    8  C   UNL     1      -7.037   4.025  68.501  1.00  0.00    -0.055 C  
HETATM    9  F   UNL     1      -8.743   5.150  67.316  1.00  0.00    -0.107 F  
HETATM   10  C   UNL     1      -6.372   3.174  67.686  1.00  0.00    -0.036 C  
HETATM   11  C   UNL     1      -7.381   2.417  66.866  1.00  0.00    -0.061 C  
HETATM   12  O   UNL     1      -7.121   2.047  65.731  1.00  0.00    -0.052 OA 
HETATM   13  C   UNL     1      -8.681   2.079  67.545  1.00  0.00    -0.134 C  
HETATM   14  C   UNL     1      -8.958   2.543  68.783  1.00  0.00    -0.176 C  
HETATM   15  C   UNL     1      -8.001   3.453  69.574  1.00  0.00    -0.057 C  
HETATM   16  C   UNL     1      -7.175   2.501  70.492  1.00  0.00    -0.033 C  
HETATM   17  C   UNL     1      -8.635   4.613  70.516  1.00  0.00    -0.094 C  
HETATM   18  F   UNL     1      -7.755   4.750  71.577  1.00  0.00    -0.079 F  
HETATM   19  C   UNL     1     -10.032   4.353  71.141  1.00  0.00    -0.173 C  
HETATM   20  C   UNL     1     -10.485   5.453  72.140  1.00  0.00    -0.273 C  
HETATM   21  O   UNL     1     -10.066   3.098  71.831  1.00  0.00    -0.160 OA 
HETATM   22  C   UNL     1     -10.269   6.971  71.786  1.00  0.00    -0.209 C  
HETATM   23  H   UNL     1     -10.921   2.939  72.214  1.00  0.00     0.000 HD 
HETATM   24  C   UNL     1     -11.349   7.716  70.845  1.00  0.00    -0.276 C  
HETATM   25  C   UNL     1     -10.158   7.690  73.159  1.00  0.00    -0.382 C  
HETATM   26  H   UNL     1     -12.624   6.198  70.838  1.00  0.00     0.000 HD 
HETATM   27  O   UNL     1     -12.107   6.688  70.210  1.00  0.00    -0.350 OA 
ENDROOT
BRANCH  24  28
HETATM   28  C   UNL     1     -12.275   8.872  71.417  1.00  0.00    -0.318 C  
HETATM   29  O   UNL     1     -13.030   8.773  72.371  1.00  0.00    -0.392 OA 
BRANCH  28  30
HETATM   30  S   UNL     1     -11.961  10.483  70.732  1.00  0.00    -0.388 SA 
HETATM   31  C   UNL     1     -13.044  11.457  71.812  1.00  0.00    -0.418 C  
HETATM   32  F   UNL     1     -12.838  12.782  71.564  1.00  0.00    -0.431 F  
ENDBRANCH  28  30
ENDBRANCH  24  28
TORSDOF 2
ENDMDL
MODEL       61
REMARK 921   NORMALIZED FREE ENERGY PREDICTED BY IDOCK:   -4.97 KCAL/MOL
REMARK 922        TOTAL FREE ENERGY PREDICTED BY IDOCK:   -5.58 KCAL/MOL
REMARK 923 INTER-LIGAND FREE ENERGY PREDICTED BY IDOCK:   -5.71 KCAL/MOL
REMARK 924 INTRA-LIGAND FREE ENERGY PREDICTED BY IDOCK:    0.13 KCAL/MOL
REMARK 927      BINDING AFFINITY PREDICTED BY RF-SCORE:    0.00 PKD
ROOT
HETATM    1  C   UNL     1      -9.480  19.463  66.927  1.00  0.00    -0.406 C  
HETATM    2  C   UNL     1      -7.959  19.373  67.093  1.00  0.00    -0.286 C  
HETATM    3  C   UNL     1      -7.215  18.513  66.073  1.00  0.00    -0.290 C  
HETATM    4  C   UNL     1      -7.151  17.134  66.715  1.00  0.00    -0.259 C  
HETATM    5  C   UNL     1      -8.527  16.399  66.644  1.00  0.00    -0.306 C  
HETATM    6  C   UNL     1      -9.072  16.351  65.214  1.00  0.00     1.149 C  
HETATM    7  C   UNL     1     -10.433  15.707  65.223  1.00  0.00    -0.412 C  
HETATM    8  C   UNL     1     -10.252  14.252  65.541  1.00  0.00    -0.379 C  
HETATM    9  F   UNL     1     -11.197  16.323  66.166  1.00  0.00    -0.138 F  
HETATM   10  C   UNL     1     -11.202  13.421  65.053  1.00  0.00    -0.332 C  
HETATM   11  C   UNL     1     -12.401  13.489  65.960  1.00  0.00    -0.433 C  
HETATM   12  O   UNL     1     -13.531  13.340  65.522  1.00  0.00    -0.336 OA 
HETATM   13  C   UNL     1     -12.124  13.671  67.428  1.00  0.00    -0.375 C  
HETATM   14  C   UNL     1     -10.866  13.882  67.875  1.00  0.00    -0.256 C  
HETATM   15  C   UNL     1      -9.646  13.974  66.941  1.00  0.00    -0.275 C  
HETATM   16  C   UNL     1      -9.026  12.544  66.913  1.00  0.00    -0.212 C  
HETATM   17  C   UNL     1      -8.458  15.015  67.318  1.00  0.00    -0.198 C  
HETATM   18  F   UNL     1      -7.293  14.431  66.851  1.00  0.00    -0.111 F  
HETATM   19  C   UNL     1      -8.217  15.323  68.821  1.00  0.00    -0.169 C  
HETATM   20  C   UNL     1      -6.971  16.211  69.085  1.00  0.00    -0.201 C  
HETATM   21  O   UNL     1      -8.061  14.117  69.579  1.00  0.00    -0.336 OA 
HETATM   22  C   UNL     1      -6.691  17.462  68.173  1.00  0.00    -0.178 C  
HETATM   23  H   UNL     1      -7.913  14.305  70.499  1.00  0.00     0.000 HD 
HETATM   24  C   UNL     1      -7.451  18.850  68.495  1.00  0.00    -0.307 C  
HETATM   25  C   UNL     1      -5.151  17.662  68.229  1.00  0.00    -0.144 C  
HETATM   26  H   UNL     1      -8.236  18.207  70.198  1.00  0.00     0.000 HD 
HETATM   27  O   UNL     1      -8.540  18.522  69.355  1.00  0.00     0.150 OA 
ENDROOT
BRANCH  24  28
HETATM   28  C   UNL     1      -6.651  20.123  69.004  1.00  0.00    -0.286 C  
HETATM   29  O   UNL     1      -6.286  21.059  68.311  1.00  0.00    -0.339 OA 
BRANCH  28  30
HETATM   30  S   UNL     1      -6.522  20.261  70.773  1.00  0.00     0.224 SA 
HETATM   31  C   UNL     1      -5.519  18.785  71.092  1.00  0.00    -0.193 C  
HETATM   32  F   UNL     1      -5.153  18.776  72.406  1.00  0.00    -0.070 F  
ENDBRANCH  28  30
ENDBRANCH  24  28
TORSDOF 2
ENDMDL
MODEL       62
REMARK 921   NORMALIZED FREE ENERGY PREDICTED BY IDOCK:   -4.93 KCAL/MOL
REMARK 922        TOTAL FREE ENERGY PREDICTED BY IDOCK:   -5.54 KCAL/MOL
REMARK 923 INTER-LIGAND FREE ENERGY PREDICTED BY IDOCK:   -5.22 KCAL/MOL
REMARK 924 INTRA-LIGAND FREE ENERGY PREDICTED BY IDOCK:   -0.32 KCAL/MOL
REMARK 927      BINDING AFFINITY PREDICTED BY RF-SCORE:    0.00 PKD
ROOT
HETATM    1  C   UNL     1     -11.058   6.650  68.411  1.00  0.00    -0.281 C  
HETATM    2  C   UNL     1      -9.906   6.430  69.398  1.00  0.00    -0.170 C  
HETATM    3  C   UNL     1      -9.802   7.426  70.551  1.00  0.00    -0.180 C  
HETATM    4  C   UNL     1      -8.867   8.509  70.033  1.00  0.00    -0.141 C  
HETATM    5  C   UNL     1      -9.582   9.449  69.012  1.00  0.00    -0.164 C  
HETATM    6  C   UNL     1     -10.882  10.023  69.581  1.00  0.00    -0.292 C  
HETATM    7  C   UNL     1     -11.564  10.852  68.525  1.00  0.00    -0.290 C  
HETATM    8  C   UNL     1     -10.742  12.087  68.305  1.00  0.00    -0.252 C  
HETATM    9  F   UNL     1     -11.650  10.111  67.385  1.00  0.00    -0.243 F  
HETATM   10  C   UNL     1     -11.420  13.173  67.867  1.00  0.00    -0.346 C  
HETATM   11  C   UNL     1     -11.635  13.031  66.384  1.00  0.00    -0.363 C  
HETATM   12  O   UNL     1     -12.628  13.493  65.845  1.00  0.00    -0.446 OA 
HETATM   13  C   UNL     1     -10.533  12.364  65.606  1.00  0.00    -0.290 C  
HETATM   14  C   UNL     1      -9.470  11.820  66.238  1.00  0.00    -0.238 C  
HETATM   15  C   UNL     1      -9.312  11.817  67.769  1.00  0.00    -0.181 C  
HETATM   16  C   UNL     1      -8.437  13.062  68.106  1.00  0.00    -0.176 C  
HETATM   17  C   UNL     1      -8.621  10.528  68.475  1.00  0.00    -0.135 C  
HETATM   18  F   UNL     1      -7.961  11.024  69.587  1.00  0.00    -0.091 F  
HETATM   19  C   UNL     1      -7.562   9.738  67.659  1.00  0.00    -0.091 C  
HETATM   20  C   UNL     1      -6.856   8.617  68.469  1.00  0.00    -0.064 C  
HETATM   21  O   UNL     1      -6.547  10.609  67.145  1.00  0.00    -0.070 OA 
HETATM   22  C   UNL     1      -7.700   7.678  69.409  1.00  0.00    -0.107 C  
HETATM   23  H   UNL     1      -5.899  10.126  66.646  1.00  0.00     0.000 HD 
HETATM   24  C   UNL     1      -8.457   6.406  68.766  1.00  0.00    -0.121 C  
HETATM   25  C   UNL     1      -6.705   7.218  70.511  1.00  0.00    -0.048 C  
HETATM   26  H   UNL     1      -7.627   6.616  66.979  1.00  0.00     0.000 HD 
HETATM   27  O   UNL     1      -8.498   6.630  67.358  1.00  0.00    -0.120 OA 
ENDROOT
BRANCH  24  28
HETATM   28  C   UNL     1      -8.015   4.923  69.121  1.00  0.00    -0.075 C  
HETATM   29  O   UNL     1      -8.477   4.237  70.019  1.00  0.00    -0.064 OA 
BRANCH  28  30
HETATM   30  S   UNL     1      -6.933   4.165  67.930  1.00  0.00    -0.059 SA 
HETATM   31  C   UNL     1      -7.945   2.717  67.522  1.00  0.00    -0.068 C  
HETATM   32  F   UNL     1      -7.366   2.054  66.480  1.00  0.00    -0.055 F  
ENDBRANCH  28  30
ENDBRANCH  24  28
TORSDOF 2
ENDMDL
MODEL       63
REMARK 921   NORMALIZED FREE ENERGY PREDICTED BY IDOCK:   -4.93 KCAL/MOL
REMARK 922        TOTAL FREE ENERGY PREDICTED BY IDOCK:   -5.53 KCAL/MOL
REMARK 923 INTER-LIGAND FREE ENERGY PREDICTED BY IDOCK:   -5.17 KCAL/MOL
REMARK 924 INTRA-LIGAND FREE ENERGY PREDICTED BY IDOCK:   -0.37 KCAL/MOL
REMARK 927      BINDING AFFINITY PREDICTED BY RF-SCORE:    0.00 PKD
ROOT
HETATM    1  C   UNL     1     -10.183  10.369  69.890  1.00  0.00    -0.190 C  
HETATM    2  C   UNL     1     -10.797  11.413  68.951  1.00  0.00    -0.259 C  
HETATM    3  C   UNL     1     -11.641  10.874  67.798  1.00  0.00    -0.231 C  
HETATM    4  C   UNL     1     -10.658  10.728  66.645  1.00  0.00    -0.291 C  
HETATM    5  C   UNL     1      -9.735   9.483  66.826  1.00  0.00    -0.254 C  
HETATM    6  C   UNL     1     -10.544   8.206  67.067  1.00  0.00    -0.346 C  
HETATM    7  C   UNL     1      -9.601   7.059  67.317  1.00  0.00    -0.141 C  
HETATM    8  C   UNL     1      -8.899   6.750  66.027  1.00  0.00    -0.150 C  
HETATM    9  F   UNL     1      -8.713   7.432  68.280  1.00  0.00    -0.122 F  
HETATM   10  C   UNL     1      -8.479   5.472  65.879  1.00  0.00    -0.130 C  
HETATM   11  C   UNL     1      -7.191   5.306  66.639  1.00  0.00    -0.077 C  
HETATM   12  O   UNL     1      -6.897   4.238  67.154  1.00  0.00    -0.050 OA 
HETATM   13  C   UNL     1      -6.266   6.493  66.662  1.00  0.00    -0.040 C  
HETATM   14  C   UNL     1      -6.642   7.675  66.126  1.00  0.00    -0.049 C  
HETATM   15  C   UNL     1      -8.021   7.907  65.484  1.00  0.00    -0.119 C  
HETATM   16  C   UNL     1      -7.821   7.672  63.956  1.00  0.00    -0.127 C  
HETATM   17  C   UNL     1      -8.727   9.358  65.667  1.00  0.00    -0.154 C  
HETATM   18  F   UNL     1      -9.464   9.559  64.512  1.00  0.00    -0.306 F  
HETATM   19  C   UNL     1      -7.804  10.598  65.815  1.00  0.00    -0.141 C  
HETATM   20  C   UNL     1      -8.570  11.948  65.836  1.00  0.00     0.210 C  
HETATM   21  O   UNL     1      -6.844  10.659  64.753  1.00  0.00    -0.344 OA 
HETATM   22  C   UNL     1      -9.889  12.089  66.683  1.00  0.00    -0.220 C  
HETATM   23  H   UNL     1      -6.279  11.418  64.843  1.00  0.00     0.000 HD 
HETATM   24  C   UNL     1      -9.775  12.402  68.262  1.00  0.00    -0.218 C  
HETATM   25  C   UNL     1     -10.707  13.200  65.967  1.00  0.00    -0.288 C  
HETATM   26  H   UNL     1      -7.816  12.701  68.221  1.00  0.00     0.000 HD 
HETATM   27  O   UNL     1      -8.430  12.106  68.635  1.00  0.00    -0.113 OA 
ENDROOT
BRANCH  24  28
HETATM   28  C   UNL     1     -10.268  13.788  68.861  1.00  0.00    -0.102 C  
HETATM   29  O   UNL     1     -11.349  13.990  69.391  1.00  0.00    -0.257 OA 
BRANCH  28  30
HETATM   30  S   UNL     1      -9.013  15.044  68.962  1.00  0.00    -0.186 SA 
HETATM   31  C   UNL     1      -9.798  16.303  67.921  1.00  0.00    -0.237 C  
HETATM   32  F   UNL     1      -9.064  17.450  67.985  1.00  0.00    -0.236 F  
ENDBRANCH  28  30
ENDBRANCH  24  28
TORSDOF 2
ENDMDL
MODEL       64
REMARK 921   NORMALIZED FREE ENERGY PREDICTED BY IDOCK:   -4.92 KCAL/MOL
REMARK 922        TOTAL FREE ENERGY PREDICTED BY IDOCK:   -5.52 KCAL/MOL
REMARK 923 INTER-LIGAND FREE ENERGY PREDICTED BY IDOCK:   -5.32 KCAL/MOL
REMARK 924 INTRA-LIGAND FREE ENERGY PREDICTED BY IDOCK:   -0.21 KCAL/MOL
REMARK 927      BINDING AFFINITY PREDICTED BY RF-SCORE:    0.00 PKD
ROOT
HETATM    1  C   UNL     1      -9.170   7.359  66.427  1.00  0.00    -0.203 C  
HETATM    2  C   UNL     1      -7.827   6.712  66.783  1.00  0.00    -0.107 C  
HETATM    3  C   UNL     1      -7.887   5.477  67.680  1.00  0.00    -0.097 C  
HETATM    4  C   UNL     1      -7.753   6.027  69.093  1.00  0.00    -0.095 C  
HETATM    5  C   UNL     1      -9.075   6.702  69.579  1.00  0.00    -0.144 C  
HETATM    6  C   UNL     1     -10.277   5.766  69.429  1.00  0.00    -0.301 C  
HETATM    7  C   UNL     1     -11.529   6.498  69.834  1.00  0.00    -0.403 C  
HETATM    8  C   UNL     1     -11.479   6.713  71.318  1.00  0.00    -0.360 C  
HETATM    9  F   UNL     1     -11.570   7.686  69.168  1.00  0.00     0.174 F  
HETATM   10  C   UNL     1     -12.677   6.813  71.939  1.00  0.00    -0.298 C  
HETATM   11  C   UNL     1     -13.200   8.210  71.736  1.00  0.00    -0.341 C  
HETATM   12  O   UNL     1     -14.399   8.428  71.660  1.00  0.00    -0.431 OA 
HETATM   13  C   UNL     1     -12.177   9.313  71.711  1.00  0.00    -0.457 C  
HETATM   14  C   UNL     1     -10.856   9.035  71.748  1.00  0.00    -0.437 C  
HETATM   15  C   UNL     1     -10.299   7.601  71.796  1.00  0.00    -0.233 C  
HETATM   16  C   UNL     1     -10.054   7.291  73.304  1.00  0.00    -0.341 C  
HETATM   17  C   UNL     1      -8.921   7.277  71.000  1.00  0.00    -0.149 C  
HETATM   18  F   UNL     1      -8.293   6.287  71.736  1.00  0.00    -0.117 F  
HETATM   19  C   UNL     1      -7.888   8.426  70.847  1.00  0.00    -0.098 C  
HETATM   20  C   UNL     1      -6.547   7.980  70.204  1.00  0.00    -0.037 C  
HETATM   21  O   UNL     1      -7.585   9.024  72.114  1.00  0.00    -0.344 OA 
HETATM   22  C   UNL     1      -6.556   7.024  68.954  1.00  0.00    -0.048 C  
HETATM   23  H   UNL     1      -6.953   9.727  72.021  1.00  0.00     0.000 HD 
HETATM   24  C   UNL     1      -6.774   7.658  67.486  1.00  0.00    -0.068 C  
HETATM   25  C   UNL     1      -5.201   6.265  69.022  1.00  0.00    -0.004 C  
HETATM   26  H   UNL     1      -6.669   9.537  68.109  1.00  0.00     0.000 HD 
HETATM   27  O   UNL     1      -7.302   8.968  67.687  1.00  0.00    -0.083 OA 
ENDROOT
BRANCH  24  28
HETATM   28  C   UNL     1      -5.610   7.644  66.406  1.00  0.00    -0.028 C  
HETATM   29  O   UNL     1      -5.156   6.650  65.861  1.00  0.00    -0.016 OA 
BRANCH  28  30
HETATM   30  S   UNL     1      -5.140   9.247  65.798  1.00  0.00    -0.036 SA 
HETATM   31  C   UNL     1      -6.153   9.281  64.295  1.00  0.00    -0.076 C  
HETATM   32  F   UNL     1      -6.070  10.521  63.734  1.00  0.00    -0.140 F  
ENDBRANCH  28  30
ENDBRANCH  24  28
TORSDOF 2
ENDMDL
MODEL       65
REMARK 921   NORMALIZED FREE ENERGY PREDICTED BY IDOCK:   -4.91 KCAL/MOL
REMARK 922        TOTAL FREE ENERGY PREDICTED BY IDOCK:   -5.51 KCAL/MOL
REMARK 923 INTER-LIGAND FREE ENERGY PREDICTED BY IDOCK:   -5.25 KCAL/MOL
REMARK 924 INTRA-LIGAND FREE ENERGY PREDICTED BY IDOCK:   -0.26 KCAL/MOL
REMARK 927      BINDING AFFINITY PREDICTED BY RF-SCORE:    0.00 PKD
ROOT
HETATM    1  C   UNL     1      -9.215   9.284  70.456  1.00  0.00    -0.311 C  
HETATM    2  C   UNL     1      -8.242   8.471  69.595  1.00  0.00    -0.115 C  
HETATM    3  C   UNL     1      -7.110   9.251  68.930  1.00  0.00    -0.068 C  
HETATM    4  C   UNL     1      -7.663   9.633  67.565  1.00  0.00    -0.095 C  
HETATM    5  C   UNL     1      -8.691  10.803  67.664  1.00  0.00    -0.126 C  
HETATM    6  C   UNL     1      -8.113  12.005  68.415  1.00  0.00    -0.154 C  
HETATM    7  C   UNL     1      -9.175  13.064  68.550  1.00  0.00    -0.062 C  
HETATM    8  C   UNL     1      -9.431  13.637  67.188  1.00  0.00    -0.244 C  
HETATM    9  F   UNL     1     -10.299  12.487  69.059  1.00  0.00    -0.199 F  
HETATM   10  C   UNL     1      -9.879  14.913  67.162  1.00  0.00    -0.231 C  
HETATM   11  C   UNL     1     -11.356  14.903  67.455  1.00  0.00    -0.347 C  
HETATM   12  O   UNL     1     -11.889  15.833  68.039  1.00  0.00    -0.207 OA 
HETATM   13  C   UNL     1     -12.137  13.731  66.924  1.00  0.00    -0.454 C  
HETATM   14  C   UNL     1     -11.512  12.694  66.325  1.00  0.00    -0.415 C  
HETATM   15  C   UNL     1      -9.984  12.616  66.159  1.00  0.00    -0.269 C  
HETATM   16  C   UNL     1      -9.684  13.172  64.733  1.00  0.00     0.116 C  
HETATM   17  C   UNL     1      -9.263  11.166  66.280  1.00  0.00    -0.195 C  
HETATM   18  F   UNL     1      -8.172  11.223  65.430  1.00  0.00    -0.077 F  
HETATM   19  C   UNL     1     -10.080   9.915  65.854  1.00  0.00    -0.245 C  
HETATM   20  C   UNL     1      -9.259   8.598  65.867  1.00  0.00    -0.264 C  
HETATM   21  O   UNL     1     -10.626  10.076  64.539  1.00  0.00    -0.146 OA 
HETATM   22  C   UNL     1      -8.289   8.289  67.067  1.00  0.00    -0.122 C  
HETATM   23  H   UNL     1     -11.127   9.311  64.279  1.00  0.00     0.000 HD 
HETATM   24  C   UNL     1      -8.895   7.644  68.417  1.00  0.00    -0.130 C  
HETATM   25  C   UNL     1      -7.193   7.364  66.467  1.00  0.00    -0.079 C  
HETATM   26  H   UNL     1     -10.699   7.346  67.651  1.00  0.00     0.000 HD 
HETATM   27  O   UNL     1     -10.306   7.843  68.359  1.00  0.00    -0.202 OA 
ENDROOT
BRANCH  24  28
HETATM   28  C   UNL     1      -8.518   6.167  68.860  1.00  0.00    -0.118 C  
HETATM   29  O   UNL     1      -7.541   5.848  69.517  1.00  0.00    -0.084 OA 
BRANCH  28  30
HETATM   30  S   UNL     1      -9.784   4.954  68.558  1.00  0.00    -0.144 SA 
HETATM   31  C   UNL     1      -9.765   4.981  66.745  1.00  0.00    -0.174 C  
HETATM   32  F   UNL     1     -10.571   3.984  66.281  1.00  0.00    -0.091 F  
ENDBRANCH  28  30
ENDBRANCH  24  28
TORSDOF 2
ENDMDL
MODEL       66
REMARK 921   NORMALIZED FREE ENERGY PREDICTED BY IDOCK:   -4.90 KCAL/MOL
REMARK 922        TOTAL FREE ENERGY PREDICTED BY IDOCK:   -5.51 KCAL/MOL
REMARK 923 INTER-LIGAND FREE ENERGY PREDICTED BY IDOCK:   -5.44 KCAL/MOL
REMARK 924 INTRA-LIGAND FREE ENERGY PREDICTED BY IDOCK:   -0.07 KCAL/MOL
REMARK 927      BINDING AFFINITY PREDICTED BY RF-SCORE:    0.00 PKD
ROOT
HETATM    1  C   UNL     1      -9.496   5.996  66.666  1.00  0.00    -0.167 C  
HETATM    2  C   UNL     1      -8.734   7.319  66.534  1.00  0.00    -0.141 C  
HETATM    3  C   UNL     1      -7.581   7.538  67.511  1.00  0.00    -0.113 C  
HETATM    4  C   UNL     1      -8.214   8.269  68.687  1.00  0.00    -0.120 C  
HETATM    5  C   UNL     1      -9.061   7.306  69.577  1.00  0.00    -0.143 C  
HETATM    6  C   UNL     1      -8.253   6.082  70.017  1.00  0.00    -0.122 C  
HETATM    7  C   UNL     1      -9.144   5.154  70.800  1.00  0.00    -0.135 C  
HETATM    8  C   UNL     1      -9.459   5.813  72.111  1.00  0.00    -0.164 C  
HETATM    9  F   UNL     1     -10.278   4.932  70.078  1.00  0.00    -0.293 F  
HETATM   10  C   UNL     1      -9.733   4.977  73.138  1.00  0.00    -0.167 C  
HETATM   11  C   UNL     1     -11.160   4.516  73.006  1.00  0.00    -0.213 C  
HETATM   12  O   UNL     1     -11.501   3.407  73.386  1.00  0.00    -0.176 OA 
HETATM   13  C   UNL     1     -12.141   5.517  72.460  1.00  0.00     0.007 C  
HETATM   14  C   UNL     1     -11.725   6.719  72.003  1.00  0.00    -0.343 C  
HETATM   15  C   UNL     1     -10.246   7.145  71.984  1.00  0.00    -0.209 C  
HETATM   16  C   UNL     1     -10.021   7.954  73.297  1.00  0.00    -0.331 C  
HETATM   17  C   UNL     1      -9.718   8.059  70.750  1.00  0.00    -0.165 C  
HETATM   18  F   UNL     1      -8.721   8.859  71.283  1.00  0.00    -0.196 F  
HETATM   19  C   UNL     1     -10.734   9.021  70.077  1.00  0.00    -0.229 C  
HETATM   20  C   UNL     1     -10.100   9.955  69.011  1.00  0.00    -0.199 C  
HETATM   21  O   UNL     1     -11.385   9.850  71.049  1.00  0.00    -0.342 OA 
HETATM   22  C   UNL     1      -9.062   9.376  67.979  1.00  0.00    -0.131 C  
HETATM   23  H   UNL     1     -12.007  10.439  70.637  1.00  0.00     0.000 HD 
HETATM   24  C   UNL     1      -9.609   8.630  66.655  1.00  0.00    -0.221 C  
HETATM   25  C   UNL     1      -8.167  10.585  67.590  1.00  0.00    -0.111 C  
HETATM   26  H   UNL     1     -11.505   9.109  66.977  1.00  0.00     0.000 HD 
HETATM   27  O   UNL     1     -10.979   8.322  66.904  1.00  0.00    -0.107 OA 
ENDROOT
BRANCH  24  28
HETATM   28  C   UNL     1      -9.390   9.256  65.213  1.00  0.00    -0.202 C  
HETATM   29  O   UNL     1      -9.968  10.234  64.766  1.00  0.00    -0.331 OA 
BRANCH  28  30
HETATM   30  S   UNL     1      -8.006   8.591  64.316  1.00  0.00    -0.152 SA 
HETATM   31  C   UNL     1      -7.383  10.130  63.588  1.00  0.00    -0.123 C  
HETATM   32  F   UNL     1      -6.196   9.876  62.967  1.00  0.00    -0.098 F  
ENDBRANCH  28  30
ENDBRANCH  24  28
TORSDOF 2
ENDMDL
MODEL       67
REMARK 921   NORMALIZED FREE ENERGY PREDICTED BY IDOCK:   -4.83 KCAL/MOL
REMARK 922        TOTAL FREE ENERGY PREDICTED BY IDOCK:   -5.43 KCAL/MOL
REMARK 923 INTER-LIGAND FREE ENERGY PREDICTED BY IDOCK:   -5.12 KCAL/MOL
REMARK 924 INTRA-LIGAND FREE ENERGY PREDICTED BY IDOCK:   -0.31 KCAL/MOL
REMARK 927      BINDING AFFINITY PREDICTED BY RF-SCORE:    0.00 PKD
ROOT
HETATM    1  C   UNL     1     -11.395  11.819  69.604  1.00  0.00    -0.287 C  
HETATM    2  C   UNL     1     -11.480  12.698  68.352  1.00  0.00    -0.350 C  
HETATM    3  C   UNL     1     -11.856  11.991  67.051  1.00  0.00    -0.251 C  
HETATM    4  C   UNL     1     -10.521  11.607  66.429  1.00  0.00    -0.283 C  
HETATM    5  C   UNL     1      -9.876  10.383  67.153  1.00  0.00    -0.221 C  
HETATM    6  C   UNL     1     -10.843   9.199  67.236  1.00  0.00    -0.121 C  
HETATM    7  C   UNL     1     -10.197   8.083  68.014  1.00  0.00    -0.210 C  
HETATM    8  C   UNL     1      -9.082   7.524  67.180  1.00  0.00    -0.144 C  
HETATM    9  F   UNL     1      -9.724   8.592  69.186  1.00  0.00    -0.162 F  
HETATM   10  C   UNL     1      -8.772   6.227  67.408  1.00  0.00    -0.105 C  
HETATM   11  C   UNL     1      -7.910   6.155  68.639  1.00  0.00    -0.101 C  
HETATM   12  O   UNL     1      -7.953   5.187  69.383  1.00  0.00    -0.081 OA 
HETATM   13  C   UNL     1      -6.951   7.294  68.855  1.00  0.00    -0.078 C  
HETATM   14  C   UNL     1      -6.961   8.373  68.042  1.00  0.00    -0.081 C  
HETATM   15  C   UNL     1      -7.946   8.534  66.871  1.00  0.00    -0.095 C  
HETATM   16  C   UNL     1      -7.189   8.022  65.608  1.00  0.00    -0.071 C  
HETATM   17  C   UNL     1      -8.514  10.018  66.532  1.00  0.00    -0.126 C  
HETATM   18  F   UNL     1      -8.714  10.034  65.162  1.00  0.00    -0.137 F  
HETATM   19  C   UNL     1      -7.600  11.231  66.852  1.00  0.00    -0.148 C  
HETATM   20  C   UNL     1      -8.169  12.590  66.360  1.00  0.00     0.338 C  
HETATM   21  O   UNL     1      -6.300  11.068  66.273  1.00  0.00    -0.127 OA 
HETATM   22  C   UNL     1      -9.692  12.925  66.570  1.00  0.00    -0.257 C  
HETATM   23  H   UNL     1      -5.740  11.811  66.469  1.00  0.00     0.000 HD 
HETATM   24  C   UNL     1     -10.174  13.512  67.994  1.00  0.00    -0.243 C  
HETATM   25  C   UNL     1     -10.044  13.917  65.427  1.00  0.00    -0.328 C  
HETATM   26  H   UNL     1      -8.336  13.731  68.703  1.00  0.00     0.000 HD 
HETATM   27  O   UNL     1      -9.121  13.242  68.918  1.00  0.00     0.072 OA 
ENDROOT
BRANCH  24  28
HETATM   28  C   UNL     1     -10.716  14.998  68.127  1.00  0.00    -0.256 C  
HETATM   29  O   UNL     1     -11.888  15.321  68.243  1.00  0.00    -0.336 OA 
BRANCH  28  30
HETATM   30  S   UNL     1      -9.457  16.231  68.367  1.00  0.00    -0.223 SA 
HETATM   31  C   UNL     1     -10.503  17.710  68.306  1.00  0.00    -0.375 C  
HETATM   32  F   UNL     1      -9.749  18.798  68.634  1.00  0.00    -0.334 F  
ENDBRANCH  28  30
ENDBRANCH  24  28
TORSDOF 2
ENDMDL
MODEL       68
REMARK 921   NORMALIZED FREE ENERGY PREDICTED BY IDOCK:   -4.83 KCAL/MOL
REMARK 922        TOTAL FREE ENERGY PREDICTED BY IDOCK:   -5.42 KCAL/MOL
REMARK 923 INTER-LIGAND FREE ENERGY PREDICTED BY IDOCK:   -5.42 KCAL/MOL
REMARK 924 INTRA-LIGAND FREE ENERGY PREDICTED BY IDOCK:   -0.01 KCAL/MOL
REMARK 927      BINDING AFFINITY PREDICTED BY RF-SCORE:    0.00 PKD
ROOT
HETATM    1  C   UNL     1     -12.070   7.754  70.597  1.00  0.00    -0.030 C  
HETATM    2  C   UNL     1     -10.713   7.065  70.777  1.00  0.00    -0.252 C  
HETATM    3  C   UNL     1      -9.532   7.971  71.115  1.00  0.00    -0.181 C  
HETATM    4  C   UNL     1      -8.929   8.329  69.764  1.00  0.00    -0.146 C  
HETATM    5  C   UNL     1      -9.793   9.387  69.007  1.00  0.00    -0.171 C  
HETATM    6  C   UNL     1     -10.062  10.622  69.871  1.00  0.00     0.053 C  
HETATM    7  C   UNL     1     -10.966  11.565  69.121  1.00  0.00    -0.224 C  
HETATM    8  C   UNL     1     -10.183  12.143  67.979  1.00  0.00    -0.203 C  
HETATM    9  F   UNL     1     -12.044  10.865  68.672  1.00  0.00    -0.383 F  
HETATM   10  C   UNL     1     -10.575  13.368  67.558  1.00  0.00    -0.255 C  
HETATM   11  C   UNL     1     -11.779  13.201  66.672  1.00  0.00    -0.375 C  
HETATM   12  O   UNL     1     -12.647  14.058  66.621  1.00  0.00    -0.358 OA 
HETATM   13  C   UNL     1     -11.812  11.970  65.806  1.00  0.00    -0.236 C  
HETATM   14  C   UNL     1     -10.861  11.017  65.921  1.00  0.00    -0.183 C  
HETATM   15  C   UNL     1      -9.707  11.097  66.936  1.00  0.00    -0.216 C  
HETATM   16  C   UNL     1      -8.504  11.715  66.161  1.00  0.00    -0.008 C  
HETATM   17  C   UNL     1      -9.188   9.724  67.631  1.00  0.00    -0.130 C  
HETATM   18  F   UNL     1      -7.835   9.912  67.855  1.00  0.00    -0.089 F  
HETATM   19  C   UNL     1      -9.315   8.409  66.815  1.00  0.00    -0.184 C  
HETATM   20  C   UNL     1      -8.660   7.180  67.503  1.00  0.00    -0.122 C  
HETATM   21  O   UNL     1      -8.726   8.546  65.516  1.00  0.00    -0.171 OA 
HETATM   22  C   UNL     1      -8.866   6.942  69.045  1.00  0.00    -0.130 C  
HETATM   23  H   UNL     1      -8.803   7.741  65.016  1.00  0.00     0.000 HD 
HETATM   24  C   UNL     1     -10.212   6.206  69.548  1.00  0.00    -0.198 C  
HETATM   25  C   UNL     1      -7.610   6.147  69.498  1.00  0.00    -0.094 C  
HETATM   26  H   UNL     1     -10.832   5.746  67.723  1.00  0.00     0.000 HD 
HETATM   27  O   UNL     1     -11.133   6.262  68.461  1.00  0.00    -0.334 OA 
ENDROOT
BRANCH  24  28
HETATM   28  C   UNL     1     -10.158   4.763  70.210  1.00  0.00    -0.234 C  
HETATM   29  O   UNL     1      -9.878   3.725  69.632  1.00  0.00    -0.168 OA 
BRANCH  28  30
HETATM   30  S   UNL     1     -10.281   4.754  71.984  1.00  0.00    -0.181 SA 
HETATM   31  C   UNL     1      -8.516   4.661  72.383  1.00  0.00    -0.115 C  
HETATM   32  F   UNL     1      -8.359   4.805  73.730  1.00  0.00    -0.102 F  
ENDBRANCH  28  30
ENDBRANCH  24  28
TORSDOF 2
ENDMDL
MODEL       69
REMARK 921   NORMALIZED FREE ENERGY PREDICTED BY IDOCK:   -4.82 KCAL/MOL
REMARK 922        TOTAL FREE ENERGY PREDICTED BY IDOCK:   -5.42 KCAL/MOL
REMARK 923 INTER-LIGAND FREE ENERGY PREDICTED BY IDOCK:   -5.41 KCAL/MOL
REMARK 924 INTRA-LIGAND FREE ENERGY PREDICTED BY IDOCK:   -0.00 KCAL/MOL
REMARK 927      BINDING AFFINITY PREDICTED BY RF-SCORE:    0.00 PKD
ROOT
HETATM    1  C   UNL     1      -8.340   9.441  70.491  1.00  0.00    -0.233 C  
HETATM    2  C   UNL     1      -9.393  10.240  69.715  1.00  0.00    -0.116 C  
HETATM    3  C   UNL     1     -10.772   9.597  69.585  1.00  0.00    -0.260 C  
HETATM    4  C   UNL     1     -10.707   8.823  68.276  1.00  0.00    -0.121 C  
HETATM    5  C   UNL     1      -9.877   7.508  68.423  1.00  0.00    -0.173 C  
HETATM    6  C   UNL     1     -10.379   6.647  69.585  1.00  0.00    -0.226 C  
HETATM    7  C   UNL     1      -9.491   5.439  69.728  1.00  0.00    -0.151 C  
HETATM    8  C   UNL     1      -9.733   4.547  68.546  1.00  0.00    -0.198 C  
HETATM    9  F   UNL     1      -8.195   5.858  69.769  1.00  0.00    -0.104 F  
HETATM   10  C   UNL     1      -9.503   3.229  68.749  1.00  0.00    -0.198 C  
HETATM   11  C   UNL     1      -8.021   2.986  68.652  1.00  0.00    -0.057 C  
HETATM   12  O   UNL     1      -7.482   2.110  69.310  1.00  0.00    -0.043 OA 
HETATM   13  C   UNL     1      -7.267   3.821  67.652  1.00  0.00    -0.059 C  
HETATM   14  C   UNL     1      -7.883   4.815  66.975  1.00  0.00    -0.098 C  
HETATM   15  C   UNL     1      -9.364   5.182  67.180  1.00  0.00    -0.129 C  
HETATM   16  C   UNL     1     -10.147   4.411  66.073  1.00  0.00    -0.260 C  
HETATM   17  C   UNL     1      -9.796   6.744  67.087  1.00  0.00    -0.161 C  
HETATM   18  F   UNL     1     -11.086   6.742  66.582  1.00  0.00    -0.411 F  
HETATM   19  C   UNL     1      -8.967   7.670  66.156  1.00  0.00    -0.161 C  
HETATM   20  C   UNL     1      -9.546   9.104  66.023  1.00  0.00    -0.342 C  
HETATM   21  O   UNL     1      -8.861   7.119  64.838  1.00  0.00    -0.349 OA 
HETATM   22  C   UNL     1     -10.065   9.863  67.301  1.00  0.00    -0.264 C  
HETATM   23  H   UNL     1      -8.353   7.685  64.268  1.00  0.00     0.000 HD 
HETATM   24  C   UNL     1      -9.002  10.636  68.236  1.00  0.00    -0.143 C  
HETATM   25  C   UNL     1     -11.141  10.851  66.770  1.00  0.00    -0.196 C  
HETATM   26  H   UNL     1      -7.479  10.371  66.996  1.00  0.00     0.000 HD 
HETATM   27  O   UNL     1      -7.715  10.133  67.884  1.00  0.00    -0.089 OA 
ENDROOT
BRANCH  24  28
HETATM   28  C   UNL     1      -9.012  12.220  68.351  1.00  0.00    -0.141 C  
HETATM   29  O   UNL     1      -9.965  12.904  68.689  1.00  0.00    -0.191 OA 
BRANCH  28  30
HETATM   30  S   UNL     1      -7.413  12.986  68.204  1.00  0.00    -0.145 SA 
HETATM   31  C   UNL     1      -7.915  14.510  67.360  1.00  0.00    -0.200 C  
HETATM   32  F   UNL     1      -6.841  15.347  67.284  1.00  0.00    -0.193 F  
ENDBRANCH  28  30
ENDBRANCH  24  28
TORSDOF 2
ENDMDL
MODEL       70
REMARK 921   NORMALIZED FREE ENERGY PREDICTED BY IDOCK:   -4.69 KCAL/MOL
REMARK 922        TOTAL FREE ENERGY PREDICTED BY IDOCK:   -5.27 KCAL/MOL
REMARK 923 INTER-LIGAND FREE ENERGY PREDICTED BY IDOCK:   -4.92 KCAL/MOL
REMARK 924 INTRA-LIGAND FREE ENERGY PREDICTED BY IDOCK:   -0.35 KCAL/MOL
REMARK 927      BINDING AFFINITY PREDICTED BY RF-SCORE:    0.00 PKD
ROOT
HETATM    1  C   UNL     1      -8.070   8.712  68.552  1.00  0.00    -0.117 C  
HETATM    2  C   UNL     1      -7.267   8.421  67.279  1.00  0.00    -0.084 C  
HETATM    3  C   UNL     1      -6.432   9.573  66.726  1.00  0.00    -0.067 C  
HETATM    4  C   UNL     1      -7.352  10.264  65.729  1.00  0.00    -0.140 C  
HETATM    5  C   UNL     1      -8.441  11.123  66.447  1.00  0.00    -0.167 C  
HETATM    6  C   UNL     1      -7.823  12.103  67.447  1.00  0.00    -0.168 C  
HETATM    7  C   UNL     1      -8.923  12.841  68.164  1.00  0.00    -0.199 C  
HETATM    8  C   UNL     1      -9.578  13.764  67.179  1.00  0.00    -0.244 C  
HETATM    9  F   UNL     1      -9.812  11.928  68.646  1.00  0.00    -0.197 F  
HETATM   10  C   UNL     1     -10.152  14.871  67.704  1.00  0.00    -0.227 C  
HETATM   11  C   UNL     1     -11.496  14.487  68.264  1.00  0.00    -0.311 C  
HETATM   12  O   UNL     1     -11.959  15.060  69.238  1.00  0.00    -0.307 OA 
HETATM   13  C   UNL     1     -12.256  13.424  67.518  1.00  0.00    -0.231 C  
HETATM   14  C   UNL     1     -11.696  12.775  66.473  1.00  0.00    -0.463 C  
HETATM   15  C   UNL     1     -10.261  13.045  65.986  1.00  0.00    -0.292 C  
HETATM   16  C   UNL     1     -10.396  14.078  64.826  1.00  0.00    -0.407 C  
HETATM   17  C   UNL     1      -9.383  11.798  65.431  1.00  0.00    -0.082 C  
HETATM   18  F   UNL     1      -8.556  12.332  64.457  1.00  0.00     0.855 F  
HETATM   19  C   UNL     1     -10.142  10.621  64.759  1.00  0.00    -0.344 C  
HETATM   20  C   UNL     1      -9.208   9.551  64.132  1.00  0.00    -0.142 C  
HETATM   21  O   UNL     1     -11.019  11.092  63.728  1.00  0.00    -0.543 OA 
HETATM   22  C   UNL     1      -7.936   9.061  64.920  1.00  0.00    -0.126 C  
HETATM   23  H   UNL     1     -11.483  10.372  63.317  1.00  0.00     0.000 HD 
HETATM   24  C   UNL     1      -8.106   7.912  66.041  1.00  0.00    -0.112 C  
HETATM   25  C   UNL     1      -6.937   8.604  63.821  1.00  0.00    -0.087 C  
HETATM   26  H   UNL     1     -10.003   7.541  65.599  1.00  0.00     0.000 HD 
HETATM   27  O   UNL     1      -9.498   7.847  66.344  1.00  0.00    -0.200 OA 
ENDROOT
BRANCH  24  28
HETATM   28  C   UNL     1      -7.472   6.470  65.838  1.00  0.00    -0.081 C  
HETATM   29  O   UNL     1      -6.465   6.051  66.386  1.00  0.00    -0.043 OA 
BRANCH  28  30
HETATM   30  S   UNL     1      -8.488   5.333  64.922  1.00  0.00    -0.144 SA 
HETATM   31  C   UNL     1      -8.783   4.112  66.229  1.00  0.00    -0.115 C  
HETATM   32  F   UNL     1      -9.696   3.202  65.785  1.00  0.00    -0.137 F  
ENDBRANCH  28  30
ENDBRANCH  24  28
TORSDOF 2
ENDMDL
MODEL       71
REMARK 921   NORMALIZED FREE ENERGY PREDICTED BY IDOCK:   -4.68 KCAL/MOL
REMARK 922        TOTAL FREE ENERGY PREDICTED BY IDOCK:   -5.26 KCAL/MOL
REMARK 923 INTER-LIGAND FREE ENERGY PREDICTED BY IDOCK:   -5.33 KCAL/MOL
REMARK 924 INTRA-LIGAND FREE ENERGY PREDICTED BY IDOCK:    0.07 KCAL/MOL
REMARK 927      BINDING AFFINITY PREDICTED BY RF-SCORE:    0.00 PKD
ROOT
HETATM    1  C   UNL     1     -10.252   9.854  64.896  1.00  0.00     0.133 C  
HETATM    2  C   UNL     1      -9.630  11.041  65.639  1.00  0.00    -0.265 C  
HETATM    3  C   UNL     1      -8.177  10.880  66.078  1.00  0.00    -0.155 C  
HETATM    4  C   UNL     1      -8.267  10.320  67.490  1.00  0.00    -0.114 C  
HETATM    5  C   UNL     1      -8.653   8.807  67.489  1.00  0.00    -0.127 C  
HETATM    6  C   UNL     1      -7.722   7.985  66.595  1.00  0.00    -0.094 C  
HETATM    7  C   UNL     1      -8.193   6.554  66.569  1.00  0.00    -0.113 C  
HETATM    8  C   UNL     1      -7.938   5.960  67.923  1.00  0.00    -0.105 C  
HETATM    9  F   UNL     1      -9.523   6.543  66.271  1.00  0.00    -0.180 F  
HETATM   10  C   UNL     1      -7.747   4.621  67.949  1.00  0.00    -0.082 C  
HETATM   11  C   UNL     1      -9.093   3.950  67.889  1.00  0.00    -0.149 C  
HETATM   12  O   UNL     1      -9.232   2.865  67.345  1.00  0.00    -0.170 OA 
HETATM   13  C   UNL     1     -10.224   4.647  68.595  1.00  0.00     0.001 C  
HETATM   14  C   UNL     1     -10.050   5.869  69.145  1.00  0.00    -0.244 C  
HETATM   15  C   UNL     1      -8.719   6.640  69.077  1.00  0.00    -0.129 C  
HETATM   16  C   UNL     1      -7.974   6.316  70.408  1.00  0.00    -0.111 C  
HETATM   17  C   UNL     1      -8.766   8.256  68.924  1.00  0.00    -0.137 C  
HETATM   18  F   UNL     1      -7.647   8.724  69.591  1.00  0.00    -0.068 F  
HETATM   19  C   UNL     1      -9.981   9.005  69.536  1.00  0.00    -0.191 C  
HETATM   20  C   UNL     1      -9.862  10.552  69.467  1.00  0.00    -0.170 C  
HETATM   21  O   UNL     1     -10.174   8.644  70.909  1.00  0.00    -0.191 OA 
HETATM   22  C   UNL     1      -9.346  11.241  68.150  1.00  0.00    -0.181 C  
HETATM   23  H   UNL     1     -10.918   9.103  71.284  1.00  0.00     0.000 HD 
HETATM   24  C   UNL     1     -10.388  11.506  66.946  1.00  0.00    -0.223 C  
HETATM   25  C   UNL     1      -8.709  12.578  68.621  1.00  0.00     0.047 C  
HETATM   26  H   UNL     1     -11.980  10.966  67.995  1.00  0.00     0.000 HD 
HETATM   27  O   UNL     1     -11.525  10.687  67.210  1.00  0.00    -0.412 OA 
ENDROOT
BRANCH  24  28
HETATM   28  C   UNL     1     -10.800  12.982  66.529  1.00  0.00    -0.279 C  
HETATM   29  O   UNL     1     -11.158  13.864  67.293  1.00  0.00    -0.288 OA 
BRANCH  28  30
HETATM   30  S   UNL     1     -10.455  13.400  64.835  1.00  0.00    -0.389 SA 
HETATM   31  C   UNL     1     -12.106  13.116  64.140  1.00  0.00    -0.430 C  
HETATM   32  F   UNL     1     -12.117  13.538  62.844  1.00  0.00    -0.517 F  
ENDBRANCH  28  30
ENDBRANCH  24  28
TORSDOF 2
ENDMDL
MODEL       72
REMARK 921   NORMALIZED FREE ENERGY PREDICTED BY IDOCK:   -4.61 KCAL/MOL
REMARK 922        TOTAL FREE ENERGY PREDICTED BY IDOCK:   -5.18 KCAL/MOL
REMARK 923 INTER-LIGAND FREE ENERGY PREDICTED BY IDOCK:   -5.08 KCAL/MOL
REMARK 924 INTRA-LIGAND FREE ENERGY PREDICTED BY IDOCK:   -0.09 KCAL/MOL
REMARK 927      BINDING AFFINITY PREDICTED BY RF-SCORE:    0.00 PKD
ROOT
HETATM    1  C   UNL     1      -5.976   8.404  69.272  1.00  0.00    -0.038 C  
HETATM    2  C   UNL     1      -6.838   9.603  68.863  1.00  0.00    -0.054 C  
HETATM    3  C   UNL     1      -7.603  10.301  69.985  1.00  0.00    -0.116 C  
HETATM    4  C   UNL     1      -8.958   9.609  70.008  1.00  0.00    -0.266 C  
HETATM    5  C   UNL     1      -8.873   8.195  70.664  1.00  0.00    -0.143 C  
HETATM    6  C   UNL     1      -8.222   8.249  72.048  1.00  0.00    -0.211 C  
HETATM    7  C   UNL     1      -8.093   6.850  72.592  1.00  0.00    -0.105 C  
HETATM    8  C   UNL     1      -9.472   6.350  72.910  1.00  0.00    -0.150 C  
HETATM    9  F   UNL     1      -7.496   6.073  71.647  1.00  0.00    -0.085 F  
HETATM   10  C   UNL     1      -9.547   5.419  73.889  1.00  0.00    -0.142 C  
HETATM   11  C   UNL     1      -9.179   4.084  73.301  1.00  0.00    -0.105 C  
HETATM   12  O   UNL     1      -8.622   3.231  73.975  1.00  0.00    -0.076 OA 
HETATM   13  C   UNL     1      -9.601   3.836  71.878  1.00  0.00    -0.220 C  
HETATM   14  C   UNL     1     -10.171   4.817  71.144  1.00  0.00    -0.229 C  
HETATM   15  C   UNL     1     -10.411   6.239  71.681  1.00  0.00    -0.258 C  
HETATM   16  C   UNL     1     -11.879   6.252  72.204  1.00  0.00    -0.365 C  
HETATM   17  C   UNL     1     -10.245   7.492  70.661  1.00  0.00    -0.202 C  
HETATM   18  F   UNL     1     -11.151   8.444  71.094  1.00  0.00    -0.252 F  
HETATM   19  C   UNL     1     -10.556   7.247  69.159  1.00  0.00    -0.208 C  
HETATM   20  C   UNL     1     -10.510   8.535  68.293  1.00  0.00    -0.222 C  
HETATM   21  O   UNL     1     -11.848   6.652  68.988  1.00  0.00    -0.532 OA 
HETATM   22  C   UNL     1      -9.346   9.575  68.494  1.00  0.00    -0.138 C  
HETATM   23  H   UNL     1     -12.038   6.503  68.068  1.00  0.00     0.000 HD 
HETATM   24  C   UNL     1      -7.932   9.317  67.759  1.00  0.00    -0.100 C  
HETATM   25  C   UNL     1      -9.947  10.938  68.052  1.00  0.00    -0.188 C  
HETATM   26  H   UNL     1      -8.586   7.775  66.699  1.00  0.00     0.000 HD 
HETATM   27  O   UNL     1      -7.928   7.947  67.362  1.00  0.00    -0.118 OA 
ENDROOT
BRANCH  24  28
HETATM   28  C   UNL     1      -7.426  10.275  66.598  1.00  0.00    -0.110 C  
HETATM   29  O   UNL     1      -7.999  10.476  65.539  1.00  0.00    -0.155 OA 
BRANCH  28  30
HETATM   30  S   UNL     1      -6.037  11.298  67.031  1.00  0.00    -0.123 SA 
HETATM   31  C   UNL     1      -6.908  12.874  67.235  1.00  0.00    -0.057 C  
HETATM   32  F   UNL     1      -6.039  13.798  67.736  1.00  0.00    -0.117 F  
ENDBRANCH  28  30
ENDBRANCH  24  28
TORSDOF 2
ENDMDL
MODEL       73
REMARK 921   NORMALIZED FREE ENERGY PREDICTED BY IDOCK:   -4.60 KCAL/MOL
REMARK 922        TOTAL FREE ENERGY PREDICTED BY IDOCK:   -5.17 KCAL/MOL
REMARK 923 INTER-LIGAND FREE ENERGY PREDICTED BY IDOCK:   -4.91 KCAL/MOL
REMARK 924 INTRA-LIGAND FREE ENERGY PREDICTED BY IDOCK:   -0.27 KCAL/MOL
REMARK 927      BINDING AFFINITY PREDICTED BY RF-SCORE:    0.00 PKD
ROOT
HETATM    1  C   UNL     1     -11.907  11.734  66.465  1.00  0.00    -0.011 C  
HETATM    2  C   UNL     1     -11.089  12.998  66.751  1.00  0.00    -0.316 C  
HETATM    3  C   UNL     1      -9.914  13.271  65.815  1.00  0.00    -0.261 C  
HETATM    4  C   UNL     1      -8.725  12.608  66.495  1.00  0.00    -0.011 C  
HETATM    5  C   UNL     1      -8.761  11.055  66.335  1.00  0.00    -0.174 C  
HETATM    6  C   UNL     1      -8.902  10.638  64.869  1.00  0.00    -0.204 C  
HETATM    7  C   UNL     1      -9.014   9.138  64.788  1.00  0.00    -0.127 C  
HETATM    8  C   UNL     1      -7.681   8.555  65.156  1.00  0.00    -0.102 C  
HETATM    9  F   UNL     1      -9.983   8.730  65.653  1.00  0.00    -0.279 F  
HETATM   10  C   UNL     1      -7.399   7.347  64.616  1.00  0.00    -0.082 C  
HETATM   11  C   UNL     1      -8.104   6.292  65.426  1.00  0.00    -0.131 C  
HETATM   12  O   UNL     1      -8.506   5.262  64.905  1.00  0.00    -0.142 OA 
HETATM   13  C   UNL     1      -8.214   6.541  66.905  1.00  0.00    -0.113 C  
HETATM   14  C   UNL     1      -7.804   7.711  67.444  1.00  0.00    -0.118 C  
HETATM   15  C   UNL     1      -7.226   8.866  66.606  1.00  0.00    -0.085 C  
HETATM   16  C   UNL     1      -5.677   8.695  66.662  1.00  0.00    -0.047 C  
HETATM   17  C   UNL     1      -7.567  10.391  67.047  1.00  0.00    -0.101 C  
HETATM   18  F   UNL     1      -6.457  11.137  66.687  1.00  0.00    -0.091 F  
HETATM   19  C   UNL     1      -7.806  10.670  68.556  1.00  0.00    -0.115 C  
HETATM   20  C   UNL     1      -7.978  12.175  68.894  1.00  0.00     0.096 C  
HETATM   21  O   UNL     1      -6.728  10.165  69.354  1.00  0.00    -0.053 OA 
HETATM   22  C   UNL     1      -8.871  13.089  67.975  1.00  0.00    -0.191 C  
HETATM   23  H   UNL     1      -6.875  10.336  70.278  1.00  0.00     0.000 HD 
HETATM   24  C   UNL     1     -10.470  13.101  68.202  1.00  0.00    -0.248 C  
HETATM   25  C   UNL     1      -8.288  14.519  68.145  1.00  0.00    -0.147 C  
HETATM   26  H   UNL     1     -10.401  12.008  69.854  1.00  0.00     0.000 HD 
HETATM   27  O   UNL     1     -10.774  11.947  68.982  1.00  0.00    -0.214 OA 
ENDROOT
BRANCH  24  28
HETATM   28  C   UNL     1     -11.211  14.397  68.739  1.00  0.00    -0.260 C  
HETATM   29  O   UNL     1     -11.573  15.345  68.059  1.00  0.00    -0.344 OA 
BRANCH  28  30
HETATM   30  S   UNL     1     -11.752  14.297  70.431  1.00  0.00    -0.226 SA 
HETATM   31  C   UNL     1     -11.187  15.924  70.997  1.00  0.00    -0.326 C  
HETATM   32  F   UNL     1     -11.649  16.135  72.263  1.00  0.00    -0.482 F  
ENDBRANCH  28  30
ENDBRANCH  24  28
TORSDOF 2
ENDMDL
MODEL       74
REMARK 921   NORMALIZED FREE ENERGY PREDICTED BY IDOCK:   -4.60 KCAL/MOL
REMARK 922        TOTAL FREE ENERGY PREDICTED BY IDOCK:   -5.17 KCAL/MOL
REMARK 923 INTER-LIGAND FREE ENERGY PREDICTED BY IDOCK:   -4.87 KCAL/MOL
REMARK 924 INTRA-LIGAND FREE ENERGY PREDICTED BY IDOCK:   -0.30 KCAL/MOL
REMARK 927      BINDING AFFINITY PREDICTED BY RF-SCORE:    0.00 PKD
ROOT
HETATM    1  C   UNL     1      -9.387   8.895  71.608  1.00  0.00    -0.328 C  
HETATM    2  C   UNL     1      -8.268   7.904  71.267  1.00  0.00    -0.107 C  
HETATM    3  C   UNL     1      -6.992   8.500  70.677  1.00  0.00    -0.043 C  
HETATM    4  C   UNL     1      -7.208   8.443  69.171  1.00  0.00    -0.065 C  
HETATM    5  C   UNL     1      -8.197   9.550  68.687  1.00  0.00    -0.112 C  
HETATM    6  C   UNL     1      -7.769  10.941  69.163  1.00  0.00    -0.127 C  
HETATM    7  C   UNL     1      -8.802  11.951  68.737  1.00  0.00     0.054 C  
HETATM    8  C   UNL     1      -8.725  12.089  67.245  1.00  0.00    -0.175 C  
HETATM    9  F   UNL     1     -10.029  11.503  69.124  1.00  0.00    -0.184 F  
HETATM   10  C   UNL     1      -9.117  13.283  66.744  1.00  0.00    -0.216 C  
HETATM   11  C   UNL     1     -10.621  13.300  66.686  1.00  0.00    -0.281 C  
HETATM   12  O   UNL     1     -11.245  14.339  66.834  1.00  0.00    -0.307 OA 
HETATM   13  C   UNL     1     -11.296  11.995  66.360  1.00  0.00    -0.411 C  
HETATM   14  C   UNL     1     -10.581  10.853  66.250  1.00  0.00    -0.276 C  
HETATM   15  C   UNL     1      -9.058  10.790  66.464  1.00  0.00    -0.181 C  
HETATM   16  C   UNL     1      -8.426  10.916  65.045  1.00  0.00    -0.009 C  
HETATM   17  C   UNL     1      -8.428   9.468  67.166  1.00  0.00    -0.131 C  
HETATM   18  F   UNL     1      -7.170   9.317  66.606  1.00  0.00    -0.079 F  
HETATM   19  C   UNL     1      -9.163   8.117  66.953  1.00  0.00    -0.160 C  
HETATM   20  C   UNL     1      -8.406   6.894  67.538  1.00  0.00    -0.123 C  
HETATM   21  O   UNL     1      -9.390   7.864  65.561  1.00  0.00    -0.401 OA 
HETATM   22  C   UNL     1      -7.743   6.989  68.962  1.00  0.00    -0.109 C  
HETATM   23  H   UNL     1      -9.840   7.037  65.431  1.00  0.00     0.000 HD 
HETATM   24  C   UNL     1      -8.660   6.744  70.268  1.00  0.00    -0.140 C  
HETATM   25  C   UNL     1      -6.568   5.973  68.925  1.00  0.00    -0.051 C  
HETATM   26  H   UNL     1     -10.250   6.164  69.237  1.00  0.00     0.000 HD 
HETATM   27  O   UNL     1     -10.014   6.861  69.837  1.00  0.00    -0.174 OA 
ENDROOT
BRANCH  24  28
HETATM   28  C   UNL     1      -8.438   5.477  71.199  1.00  0.00    -0.126 C  
HETATM   29  O   UNL     1      -7.668   5.414  72.144  1.00  0.00    -0.097 OA 
BRANCH  28  30
HETATM   30  S   UNL     1      -9.606   4.159  70.952  1.00  0.00    -0.188 SA 
HETATM   31  C   UNL     1      -9.023   3.572  69.339  1.00  0.00    -0.114 C  
HETATM   32  F   UNL     1      -9.693   2.429  69.017  1.00  0.00    -0.212 F  
ENDBRANCH  28  30
ENDBRANCH  24  28
TORSDOF 2
ENDMDL
MODEL       75
REMARK 921   NORMALIZED FREE ENERGY PREDICTED BY IDOCK:   -4.49 KCAL/MOL
REMARK 922        TOTAL FREE ENERGY PREDICTED BY IDOCK:   -5.05 KCAL/MOL
REMARK 923 INTER-LIGAND FREE ENERGY PREDICTED BY IDOCK:   -4.77 KCAL/MOL
REMARK 924 INTRA-LIGAND FREE ENERGY PREDICTED BY IDOCK:   -0.27 KCAL/MOL
REMARK 927      BINDING AFFINITY PREDICTED BY RF-SCORE:    0.00 PKD
ROOT
HETATM    1  C   UNL     1     -10.137  14.456  70.031  1.00  0.00     0.603 C  
HETATM    2  C   UNL     1     -10.713  15.101  68.765  1.00  0.00    -0.239 C  
HETATM    3  C   UNL     1     -11.937  14.422  68.155  1.00  0.00    -0.320 C  
HETATM    4  C   UNL     1     -11.363  13.448  67.137  1.00  0.00    -0.344 C  
HETATM    5  C   UNL     1     -10.749  12.188  67.826  1.00  0.00    -0.241 C  
HETATM    6  C   UNL     1     -11.744  11.519  68.777  1.00  0.00    -0.397 C  
HETATM    7  C   UNL     1     -11.070  10.364  69.470  1.00  0.00    -0.264 C  
HETATM    8  C   UNL     1     -10.834   9.289  68.451  1.00  0.00    -0.125 C  
HETATM    9  F   UNL     1      -9.895  10.805  69.999  1.00  0.00    -0.097 F  
HETATM   10  C   UNL     1     -10.785   8.025  68.932  1.00  0.00    -0.091 C  
HETATM   11  C   UNL     1      -9.419   7.794  69.520  1.00  0.00    -0.160 C  
HETATM   12  O   UNL     1      -9.261   7.045  70.471  1.00  0.00    -0.158 OA 
HETATM   13  C   UNL     1      -8.267   8.469  68.827  1.00  0.00    -0.122 C  
HETATM   14  C   UNL     1      -8.479   9.330  67.807  1.00  0.00    -0.116 C  
HETATM   15  C   UNL     1      -9.883   9.700  67.297  1.00  0.00    -0.225 C  
HETATM   16  C   UNL     1     -10.160   8.748  66.094  1.00  0.00    -0.154 C  
HETATM   17  C   UNL     1     -10.148  11.219  66.789  1.00  0.00    -0.219 C  
HETATM   18  F   UNL     1     -11.096  11.114  65.786  1.00  0.00    -0.299 F  
HETATM   19  C   UNL     1      -8.951  11.995  66.175  1.00  0.00    -0.079 C  
HETATM   20  C   UNL     1      -9.338  13.380  65.588  1.00  0.00     0.231 C  
HETATM   21  O   UNL     1      -8.323  11.240  65.132  1.00  0.00    -0.379 OA 
HETATM   22  C   UNL     1     -10.310  14.326  66.386  1.00  0.00    -0.287 C  
HETATM   23  H   UNL     1      -7.591  11.715  64.756  1.00  0.00     0.000 HD 
HETATM   24  C   UNL     1      -9.707  15.259  67.557  1.00  0.00    -0.204 C  
HETATM   25  C   UNL     1     -11.001  15.197  65.299  1.00  0.00    -0.405 C  
HETATM   26  H   UNL     1      -7.818  14.821  67.148  1.00  0.00     0.000 HD 
HETATM   27  O   UNL     1      -8.423  14.726  67.874  1.00  0.00    -0.144 OA 
ENDROOT
BRANCH  24  28
HETATM   28  C   UNL     1      -9.678  16.840  67.412  1.00  0.00    -0.245 C  
HETATM   29  O   UNL     1     -10.646  17.580  67.487  1.00  0.00    -0.358 OA 
BRANCH  28  30
HETATM   30  S   UNL     1      -8.049  17.554  67.388  1.00  0.00    -0.205 SA 
HETATM   31  C   UNL     1      -7.652  17.278  65.641  1.00  0.00     0.535 C  
HETATM   32  F   UNL     1      -6.478  17.907  65.351  1.00  0.00    -0.267 F  
ENDBRANCH  28  30
ENDBRANCH  24  28
TORSDOF 2
ENDMDL
MODEL       76
REMARK 921   NORMALIZED FREE ENERGY PREDICTED BY IDOCK:   -4.48 KCAL/MOL
REMARK 922        TOTAL FREE ENERGY PREDICTED BY IDOCK:   -5.04 KCAL/MOL
REMARK 923 INTER-LIGAND FREE ENERGY PREDICTED BY IDOCK:   -4.72 KCAL/MOL
REMARK 924 INTRA-LIGAND FREE ENERGY PREDICTED BY IDOCK:   -0.32 KCAL/MOL
REMARK 927      BINDING AFFINITY PREDICTED BY RF-SCORE:    0.00 PKD
ROOT
HETATM    1  C   UNL     1      -9.145   8.848  71.656  1.00  0.00    -0.280 C  
HETATM    2  C   UNL     1      -9.812   9.185  70.318  1.00  0.00    -0.245 C  
HETATM    3  C   UNL     1     -11.082   8.408  69.979  1.00  0.00    -0.148 C  
HETATM    4  C   UNL     1     -10.591   7.206  69.186  1.00  0.00    -0.227 C  
HETATM    5  C   UNL     1      -9.932   6.134  70.110  1.00  0.00    -0.218 C  
HETATM    6  C   UNL     1     -10.856   5.733  71.263  1.00  0.00    -0.313 C  
HETATM    7  C   UNL     1     -10.136   4.763  72.162  1.00  0.00    -0.191 C  
HETATM    8  C   UNL     1      -9.982   3.470  71.417  1.00  0.00    -0.151 C  
HETATM    9  F   UNL     1      -8.922   5.291  72.484  1.00  0.00    -0.128 F  
HETATM   10  C   UNL     1      -9.904   2.357  72.182  1.00  0.00    -0.221 C  
HETATM   11  C   UNL     1      -8.498   2.242  72.707  1.00  0.00    -0.063 C  
HETATM   12  O   UNL     1      -8.272   1.739  73.797  1.00  0.00    -0.045 OA 
HETATM   13  C   UNL     1      -7.398   2.706  71.791  1.00  0.00    -0.040 C  
HETATM   14  C   UNL     1      -7.683   3.303  70.612  1.00  0.00    -0.043 C  
HETATM   15  C   UNL     1      -9.120   3.572  70.131  1.00  0.00    -0.202 C  
HETATM   16  C   UNL     1      -9.492   2.367  69.215  1.00  0.00    -0.136 C  
HETATM   17  C   UNL     1      -9.416   4.932  69.295  1.00  0.00    -0.142 C  
HETATM   18  F   UNL     1     -10.438   4.611  68.418  1.00  0.00    -0.122 F  
HETATM   19  C   UNL     1      -8.266   5.512  68.428  1.00  0.00    -0.099 C  
HETATM   20  C   UNL     1      -8.690   6.724  67.555  1.00  0.00    -0.119 C  
HETATM   21  O   UNL     1      -7.722   4.515  67.553  1.00  0.00    -0.084 OA 
HETATM   22  C   UNL     1      -9.595   7.856  68.171  1.00  0.00    -0.163 C  
HETATM   23  H   UNL     1      -7.018   4.870  67.023  1.00  0.00     0.000 HD 
HETATM   24  C   UNL     1      -8.900   9.027  69.038  1.00  0.00    -0.136 C  
HETATM   25  C   UNL     1     -10.361   8.458  66.961  1.00  0.00    -0.385 C  
HETATM   26  H   UNL     1      -7.049   8.462  68.609  1.00  0.00     0.000 HD 
HETATM   27  O   UNL     1      -7.597   8.557  69.379  1.00  0.00    -0.086 OA 
ENDROOT
BRANCH  24  28
HETATM   28  C   UNL     1      -8.875  10.527  68.516  1.00  0.00    -0.144 C  
HETATM   29  O   UNL     1      -9.637  11.415  68.864  1.00  0.00    -0.170 OA 
BRANCH  28  30
HETATM   30  S   UNL     1      -7.451  10.950  67.538  1.00  0.00    -0.100 SA 
HETATM   31  C   UNL     1      -7.557  12.755  67.663  1.00  0.00    -0.152 C  
HETATM   32  F   UNL     1      -6.442  13.303  67.103  1.00  0.00    -0.168 F  
ENDBRANCH  28  30
ENDBRANCH  24  28
TORSDOF 2
ENDMDL
MODEL       77
REMARK 921   NORMALIZED FREE ENERGY PREDICTED BY IDOCK:   -4.48 KCAL/MOL
REMARK 922        TOTAL FREE ENERGY PREDICTED BY IDOCK:   -5.03 KCAL/MOL
REMARK 923 INTER-LIGAND FREE ENERGY PREDICTED BY IDOCK:   -4.72 KCAL/MOL
REMARK 924 INTRA-LIGAND FREE ENERGY PREDICTED BY IDOCK:   -0.31 KCAL/MOL
REMARK 927      BINDING AFFINITY PREDICTED BY RF-SCORE:    0.00 PKD
ROOT
HETATM    1  C   UNL     1     -10.609  10.003  70.263  1.00  0.00    -0.354 C  
HETATM    2  C   UNL     1     -10.371  10.497  68.832  1.00  0.00    -0.226 C  
HETATM    3  C   UNL     1     -10.874   9.592  67.709  1.00  0.00    -0.278 C  
HETATM    4  C   UNL     1      -9.682   8.708  67.372  1.00  0.00    -0.227 C  
HETATM    5  C   UNL     1      -9.462   7.599  68.450  1.00  0.00    -0.150 C  
HETATM    6  C   UNL     1     -10.737   6.790  68.700  1.00  0.00    -0.279 C  
HETATM    7  C   UNL     1     -10.485   5.796  69.804  1.00  0.00    -0.292 C  
HETATM    8  C   UNL     1      -9.545   4.751  69.278  1.00  0.00    -0.243 C  
HETATM    9  F   UNL     1      -9.942   6.456  70.864  1.00  0.00    -0.189 F  
HETATM   10  C   UNL     1      -9.641   3.531  69.855  1.00  0.00    -0.219 C  
HETATM   11  C   UNL     1      -8.899   3.567  71.164  1.00  0.00    -0.082 C  
HETATM   12  O   UNL     1      -9.261   2.886  72.111  1.00  0.00    -0.087 OA 
HETATM   13  C   UNL     1      -7.659   4.418  71.210  1.00  0.00    -0.064 C  
HETATM   14  C   UNL     1      -7.313   5.197  70.162  1.00  0.00    -0.062 C  
HETATM   15  C   UNL     1      -8.149   5.293  68.873  1.00  0.00    -0.086 C  
HETATM   16  C   UNL     1      -7.515   4.272  67.880  1.00  0.00    -0.068 C  
HETATM   17  C   UNL     1      -8.239   6.725  68.112  1.00  0.00    -0.114 C  
HETATM   18  F   UNL     1      -8.358   6.422  66.767  1.00  0.00    -0.107 F  
HETATM   19  C   UNL     1      -7.025   7.686  68.235  1.00  0.00    -0.072 C  
HETATM   20  C   UNL     1      -7.145   8.960  67.356  1.00  0.00    -0.079 C  
HETATM   21  O   UNL     1      -5.803   7.026  67.880  1.00  0.00    -0.023 OA 
HETATM   22  C   UNL     1      -8.510   9.740  67.286  1.00  0.00    -0.125 C  
HETATM   23  H   UNL     1      -5.060   7.614  67.955  1.00  0.00     0.000 HD 
HETATM   24  C   UNL     1      -8.867  10.799  68.451  1.00  0.00    -0.146 C  
HETATM   25  C   UNL     1      -8.500  10.440  65.899  1.00  0.00    -0.160 C  
HETATM   26  H   UNL     1      -7.082  10.696  69.307  1.00  0.00     0.000 HD 
HETATM   27  O   UNL     1      -7.986  10.515  69.536  1.00  0.00    -0.154 OA 
ENDROOT
BRANCH  24  28
HETATM   28  C   UNL     1      -8.954  12.354  68.144  1.00  0.00    -0.196 C  
HETATM   29  O   UNL     1      -9.978  12.979  67.918  1.00  0.00    -0.217 OA 
BRANCH  28  30
HETATM   30  S   UNL     1      -7.441  13.250  68.410  1.00  0.00    -0.130 SA 
HETATM   31  C   UNL     1      -8.146  14.884  68.760  1.00  0.00    -0.162 C  
HETATM   32  F   UNL     1      -7.146  15.720  69.160  1.00  0.00    -0.130 F  
ENDBRANCH  28  30
ENDBRANCH  24  28
TORSDOF 2
ENDMDL
MODEL       78
REMARK 921   NORMALIZED FREE ENERGY PREDICTED BY IDOCK:   -4.40 KCAL/MOL
REMARK 922        TOTAL FREE ENERGY PREDICTED BY IDOCK:   -4.94 KCAL/MOL
REMARK 923 INTER-LIGAND FREE ENERGY PREDICTED BY IDOCK:   -4.92 KCAL/MOL
REMARK 924 INTRA-LIGAND FREE ENERGY PREDICTED BY IDOCK:   -0.03 KCAL/MOL
REMARK 927      BINDING AFFINITY PREDICTED BY RF-SCORE:    0.00 PKD
ROOT
HETATM    1  C   UNL     1      -7.242  10.377  65.280  1.00  0.00    -0.106 C  
HETATM    2  C   UNL     1      -7.890  11.004  66.519  1.00  0.00    -0.155 C  
HETATM    3  C   UNL     1      -7.438  10.456  67.871  1.00  0.00    -0.087 C  
HETATM    4  C   UNL     1      -8.430   9.344  68.181  1.00  0.00    -0.120 C  
HETATM    5  C   UNL     1      -8.147   8.065  67.332  1.00  0.00    -0.122 C  
HETATM    6  C   UNL     1      -6.693   7.604  67.469  1.00  0.00    -0.068 C  
HETATM    7  C   UNL     1      -6.461   6.420  66.567  1.00  0.00    -0.047 C  
HETATM    8  C   UNL     1      -7.217   5.254  67.132  1.00  0.00    -0.078 C  
HETATM    9  F   UNL     1      -6.906   6.734  65.319  1.00  0.00    -0.046 F  
HETATM   10  C   UNL     1      -6.713   4.032  66.843  1.00  0.00    -0.047 C  
HETATM   11  C   UNL     1      -7.146   3.660  65.450  1.00  0.00    -0.066 C  
HETATM   12  O   UNL     1      -6.440   2.965  64.736  1.00  0.00    -0.026 OA 
HETATM   13  C   UNL     1      -8.513   4.123  65.024  1.00  0.00    -0.115 C  
HETATM   14  C   UNL     1      -9.249   4.931  65.818  1.00  0.00    -0.155 C  
HETATM   15  C   UNL     1      -8.755   5.451  67.180  1.00  0.00    -0.107 C  
HETATM   16  C   UNL     1      -9.326   4.464  68.243  1.00  0.00    -0.199 C  
HETATM   17  C   UNL     1      -9.171   6.954  67.634  1.00  0.00    -0.119 C  
HETATM   18  F   UNL     1      -9.273   6.907  69.014  1.00  0.00    -0.137 F  
HETATM   19  C   UNL     1     -10.523   7.516  67.118  1.00  0.00    -0.336 C  
HETATM   20  C   UNL     1     -10.899   8.896  67.723  1.00  0.00    -0.106 C  
HETATM   21  O   UNL     1     -11.600   6.612  67.393  1.00  0.00    -0.727 OA 
HETATM   22  C   UNL     1      -9.804  10.019  67.857  1.00  0.00    -0.171 C  
HETATM   23  H   UNL     1     -12.427   6.957  67.076  1.00  0.00     0.000 HD 
HETATM   24  C   UNL     1      -9.468  10.940  66.575  1.00  0.00    -0.185 C  
HETATM   25  C   UNL     1     -10.276  10.897  69.049  1.00  0.00    -0.219 C  
HETATM   26  H   UNL     1     -10.952  10.224  65.474  1.00  0.00     0.000 HD 
HETATM   27  O   UNL     1     -10.004  10.262  65.441  1.00  0.00    -0.274 OA 
ENDROOT
BRANCH  24  28
HETATM   28  C   UNL     1      -9.819  12.489  66.566  1.00  0.00    -0.246 C  
HETATM   29  O   UNL     1     -10.908  12.971  66.296  1.00  0.00    -0.275 OA 
BRANCH  28  30
HETATM   30  S   UNL     1      -8.558  13.541  67.248  1.00  0.00    -0.202 SA 
HETATM   31  C   UNL     1      -9.608  14.594  68.284  1.00  0.00    -0.208 C  
HETATM   32  F   UNL     1      -8.813  15.399  69.045  1.00  0.00    -0.168 F  
ENDBRANCH  28  30
ENDBRANCH  24  28
TORSDOF 2
ENDMDL
MODEL       79
REMARK 921   NORMALIZED FREE ENERGY PREDICTED BY IDOCK:   -4.39 KCAL/MOL
REMARK 922        TOTAL FREE ENERGY PREDICTED BY IDOCK:   -4.94 KCAL/MOL
REMARK 923 INTER-LIGAND FREE ENERGY PREDICTED BY IDOCK:   -4.69 KCAL/MOL
REMARK 924 INTRA-LIGAND FREE ENERGY PREDICTED BY IDOCK:   -0.25 KCAL/MOL
REMARK 927      BINDING AFFINITY PREDICTED BY RF-SCORE:    0.00 PKD
ROOT
HETATM    1  C   UNL     1     -10.152  10.157  65.373  1.00  0.00    -0.342 C  
HETATM    2  C   UNL     1      -9.096  11.164  65.841  1.00  0.00    -0.218 C  
HETATM    3  C   UNL     1      -7.641  10.711  65.753  1.00  0.00    -0.120 C  
HETATM    4  C   UNL     1      -7.350  10.100  67.115  1.00  0.00    -0.091 C  
HETATM    5  C   UNL     1      -7.998   8.687  67.265  1.00  0.00    -0.101 C  
HETATM    6  C   UNL     1      -7.607   7.758  66.114  1.00  0.00    -0.087 C  
HETATM    7  C   UNL     1      -8.326   6.444  66.269  1.00  0.00    -0.123 C  
HETATM    8  C   UNL     1      -7.744   5.737  67.458  1.00  0.00    -0.097 C  
HETATM    9  F   UNL     1      -9.652   6.696  66.450  1.00  0.00    -0.187 F  
HETATM   10  C   UNL     1      -7.819   4.387  67.432  1.00  0.00    -0.096 C  
HETATM   11  C   UNL     1      -9.207   3.981  67.849  1.00  0.00    -0.158 C  
HETATM   12  O   UNL     1      -9.731   2.974  67.400  1.00  0.00    -0.089 OA 
HETATM   13  C   UNL     1      -9.871   4.836  68.895  1.00  0.00    -0.230 C  
HETATM   14  C   UNL     1      -9.287   5.971  69.336  1.00  0.00    -0.146 C  
HETATM   15  C   UNL     1      -7.937   6.484  68.803  1.00  0.00    -0.111 C  
HETATM   16  C   UNL     1      -6.860   5.954  69.798  1.00  0.00    -0.064 C  
HETATM   17  C   UNL     1      -7.720   8.087  68.657  1.00  0.00    -0.105 C  
HETATM   18  F   UNL     1      -6.371   8.300  68.890  1.00  0.00    -0.040 F  
HETATM   19  C   UNL     1      -8.483   9.013  69.643  1.00  0.00    -0.128 C  
HETATM   20  C   UNL     1      -8.097  10.512  69.519  1.00  0.00    -0.105 C  
HETATM   21  O   UNL     1      -8.261   8.617  71.002  1.00  0.00    -0.120 OA 
HETATM   22  C   UNL     1      -7.938  11.166  68.096  1.00  0.00    -0.125 C  
HETATM   23  H   UNL     1      -8.728   9.184  71.606  1.00  0.00     0.000 HD 
HETATM   24  C   UNL     1      -9.257  11.688  67.324  1.00  0.00    -0.170 C  
HETATM   25  C   UNL     1      -6.933  12.333  68.303  1.00  0.00    -0.082 C  
HETATM   26  H   UNL     1     -10.467  11.394  68.866  1.00  0.00     0.000 HD 
HETATM   27  O   UNL     1     -10.371  11.080  67.974  1.00  0.00    -0.175 OA 
ENDROOT
BRANCH  24  28
HETATM   28  C   UNL     1      -9.492  13.235  67.059  1.00  0.00    -0.243 C  
HETATM   29  O   UNL     1      -9.515  13.775  65.964  1.00  0.00    -0.215 OA 
BRANCH  28  30
HETATM   30  S   UNL     1     -10.003  14.165  68.486  1.00  0.00    -0.225 SA 
HETATM   31  C   UNL     1     -11.422  15.028  67.759  1.00  0.00    -0.334 C  
HETATM   32  F   UNL     1     -12.083  15.698  68.745  1.00  0.00    -0.358 F  
ENDBRANCH  28  30
ENDBRANCH  24  28
TORSDOF 2
ENDMDL
MODEL       80
REMARK 921   NORMALIZED FREE ENERGY PREDICTED BY IDOCK:   -4.38 KCAL/MOL
REMARK 922        TOTAL FREE ENERGY PREDICTED BY IDOCK:   -4.92 KCAL/MOL
REMARK 923 INTER-LIGAND FREE ENERGY PREDICTED BY IDOCK:   -4.58 KCAL/MOL
REMARK 924 INTRA-LIGAND FREE ENERGY PREDICTED BY IDOCK:   -0.34 KCAL/MOL
REMARK 927      BINDING AFFINITY PREDICTED BY RF-SCORE:    0.00 PKD
ROOT
HETATM    1  C   UNL     1     -11.531  15.752  71.191  1.00  0.00    -0.466 C  
HETATM    2  C   UNL     1     -11.389  16.202  69.733  1.00  0.00    -0.323 C  
HETATM    3  C   UNL     1     -12.387  15.610  68.740  1.00  0.00     0.203 C  
HETATM    4  C   UNL     1     -11.693  14.368  68.200  1.00  0.00    -0.377 C  
HETATM    5  C   UNL     1     -11.710  13.199  69.235  1.00  0.00    -0.376 C  
HETATM    6  C   UNL     1     -13.127  12.904  69.734  1.00  0.00     1.223 C  
HETATM    7  C   UNL     1     -13.070  11.829  70.787  1.00  0.00     0.219 C  
HETATM    8  C   UNL     1     -12.698  10.542  70.111  1.00  0.00    -0.191 C  
HETATM    9  F   UNL     1     -12.137  12.183  71.715  1.00  0.00     0.001 F  
HETATM   10  C   UNL     1     -13.136   9.414  70.716  1.00  0.00     0.014 C  
HETATM   11  C   UNL     1     -12.211   9.101  71.862  1.00  0.00    -0.379 C  
HETATM   12  O   UNL     1     -12.623   8.551  72.871  1.00  0.00    -0.266 OA 
HETATM   13  C   UNL     1     -10.757   9.430  71.660  1.00  0.00    -0.298 C  
HETATM   14  C   UNL     1     -10.341  10.083  70.552  1.00  0.00    -0.215 C  
HETATM   15  C   UNL     1     -11.298  10.552  69.443  1.00  0.00    -0.331 C  
HETATM   16  C   UNL     1     -11.281   9.425  68.365  1.00  0.00     0.132 C  
HETATM   17  C   UNL     1     -10.984  11.955  68.688  1.00  0.00    -0.228 C  
HETATM   18  F   UNL     1     -11.448  11.792  67.394  1.00  0.00    -0.316 F  
HETATM   19  C   UNL     1      -9.499  12.392  68.565  1.00  0.00    -0.098 C  
HETATM   20  C   UNL     1      -9.291  13.667  67.703  1.00  0.00    -0.215 C  
HETATM   21  O   UNL     1      -8.697  11.348  67.998  1.00  0.00    -0.136 OA 
HETATM   22  C   UNL     1     -10.257  14.898  67.878  1.00  0.00    -0.228 C  
HETATM   23  H   UNL     1      -7.788  11.616  67.922  1.00  0.00     0.000 HD 
HETATM   24  C   UNL     1      -9.976  15.948  69.071  1.00  0.00    -0.233 C  
HETATM   25  C   UNL     1     -10.236  15.620  66.502  1.00  0.00    -0.291 C  
HETATM   26  H   UNL     1      -8.236  15.147  69.579  1.00  0.00     0.000 HD 
HETATM   27  O   UNL     1      -9.085  15.300  69.976  1.00  0.00    -0.060 OA 
ENDROOT
BRANCH  24  28
HETATM   28  C   UNL     1      -9.532  17.440  68.761  1.00  0.00    -0.256 C  
HETATM   29  O   UNL     1     -10.243  18.428  68.849  1.00  0.00    -0.382 OA 
BRANCH  28  30
HETATM   30  S   UNL     1      -7.785  17.658  68.510  1.00  0.00    -0.284 SA 
HETATM   31  C   UNL     1      -7.848  18.933  67.223  1.00  0.00    -0.235 C  
HETATM   32  F   UNL     1      -6.583  19.380  66.981  1.00  0.00    -0.191 F  
ENDBRANCH  28  30
ENDBRANCH  24  28
TORSDOF 2
ENDMDL
MODEL       81
REMARK 921   NORMALIZED FREE ENERGY PREDICTED BY IDOCK:   -4.28 KCAL/MOL
REMARK 922        TOTAL FREE ENERGY PREDICTED BY IDOCK:   -4.81 KCAL/MOL
REMARK 923 INTER-LIGAND FREE ENERGY PREDICTED BY IDOCK:   -4.69 KCAL/MOL
REMARK 924 INTRA-LIGAND FREE ENERGY PREDICTED BY IDOCK:   -0.12 KCAL/MOL
REMARK 927      BINDING AFFINITY PREDICTED BY RF-SCORE:    0.00 PKD
ROOT
HETATM    1  C   UNL     1      -9.425   8.348  66.250  1.00  0.00    -0.292 C  
HETATM    2  C   UNL     1      -8.755   7.048  65.791  1.00  0.00    -0.116 C  
HETATM    3  C   UNL     1      -9.532   5.759  66.045  1.00  0.00    -0.108 C  
HETATM    4  C   UNL     1      -9.039   5.280  67.403  1.00  0.00    -0.112 C  
HETATM    5  C   UNL     1      -9.647   6.122  68.568  1.00  0.00    -0.127 C  
HETATM    6  C   UNL     1     -11.175   6.179  68.490  1.00  0.00    -0.241 C  
HETATM    7  C   UNL     1     -11.696   7.070  69.587  1.00  0.00     0.071 C  
HETATM    8  C   UNL     1     -11.472   6.370  70.895  1.00  0.00    -0.406 C  
HETATM    9  F   UNL     1     -11.019   8.251  69.542  1.00  0.00    -0.233 F  
HETATM   10  C   UNL     1     -12.333   6.692  71.888  1.00  0.00    -0.364 C  
HETATM   11  C   UNL     1     -11.891   7.998  72.492  1.00  0.00    -0.361 C  
HETATM   12  O   UNL     1     -12.703   8.784  72.954  1.00  0.00    -0.306 OA 
HETATM   13  C   UNL     1     -10.408   8.239  72.560  1.00  0.00    -0.401 C  
HETATM   14  C   UNL     1      -9.537   7.373  71.996  1.00  0.00    -0.177 C  
HETATM   15  C   UNL     1      -9.981   6.111  71.235  1.00  0.00    -0.215 C  
HETATM   16  C   UNL     1      -9.927   4.950  72.274  1.00  0.00    -0.232 C  
HETATM   17  C   UNL     1      -9.123   5.646  69.937  1.00  0.00    -0.136 C  
HETATM   18  F   UNL     1      -9.213   4.265  69.909  1.00  0.00    -0.139 F  
HETATM   19  C   UNL     1      -7.607   5.983  69.914  1.00  0.00    -0.081 C  
HETATM   20  C   UNL     1      -6.848   5.371  68.706  1.00  0.00    -0.055 C  
HETATM   21  O   UNL     1      -6.958   5.532  71.110  1.00  0.00    -0.060 OA 
HETATM   22  C   UNL     1      -7.487   5.425  67.268  1.00  0.00    -0.084 C  
HETATM   23  H   UNL     1      -6.030   5.738  71.096  1.00  0.00     0.000 HD 
HETATM   24  C   UNL     1      -7.319   6.768  66.389  1.00  0.00    -0.073 C  
HETATM   25  C   UNL     1      -6.887   4.205  66.517  1.00  0.00    -0.055 C  
HETATM   26  H   UNL     1      -6.058   7.627  67.653  1.00  0.00     0.000 HD 
HETATM   27  O   UNL     1      -6.921   7.795  67.294  1.00  0.00    -0.073 OA 
ENDROOT
BRANCH  24  28
HETATM   28  C   UNL     1      -6.449   6.773  65.060  1.00  0.00    -0.042 C  
HETATM   29  O   UNL     1      -6.634   6.063  64.085  1.00  0.00    -0.035 OA 
BRANCH  28  30
HETATM   30  S   UNL     1      -5.281   8.109  64.942  1.00  0.00    -0.036 SA 
HETATM   31  C   UNL     1      -6.270   9.253  63.943  1.00  0.00    -0.089 C  
HETATM   32  F   UNL     1      -5.615  10.446  63.858  1.00  0.00    -0.109 F  
ENDBRANCH  28  30
ENDBRANCH  24  28
TORSDOF 2
ENDMDL
MODEL       82
REMARK 921   NORMALIZED FREE ENERGY PREDICTED BY IDOCK:   -4.18 KCAL/MOL
REMARK 922        TOTAL FREE ENERGY PREDICTED BY IDOCK:   -4.71 KCAL/MOL
REMARK 923 INTER-LIGAND FREE ENERGY PREDICTED BY IDOCK:   -4.96 KCAL/MOL
REMARK 924 INTRA-LIGAND FREE ENERGY PREDICTED BY IDOCK:    0.26 KCAL/MOL
REMARK 927      BINDING AFFINITY PREDICTED BY RF-SCORE:    0.00 PKD
ROOT
HETATM    1  C   UNL     1      -8.031   9.059  67.051  1.00  0.00    -0.102 C  
HETATM    2  C   UNL     1      -8.928   8.097  66.265  1.00  0.00    -0.215 C  
HETATM    3  C   UNL     1     -10.359   7.935  66.773  1.00  0.00    -0.357 C  
HETATM    4  C   UNL     1     -10.291   6.752  67.728  1.00  0.00    -0.245 C  
HETATM    5  C   UNL     1      -9.631   7.142  69.087  1.00  0.00    -0.154 C  
HETATM    6  C   UNL     1     -10.308   8.362  69.718  1.00  0.00    -0.216 C  
HETATM    7  C   UNL     1      -9.577   8.739  70.979  1.00  0.00    -0.229 C  
HETATM    8  C   UNL     1      -9.836   7.670  72.000  1.00  0.00    -0.211 C  
HETATM    9  F   UNL     1      -8.248   8.835  70.696  1.00  0.00    -0.093 F  
HETATM   10  C   UNL     1      -9.775   8.065  73.292  1.00  0.00    -0.308 C  
HETATM   11  C   UNL     1      -8.327   8.129  73.700  1.00  0.00    -0.242 C  
HETATM   12  O   UNL     1      -7.940   8.941  74.525  1.00  0.00    -0.320 OA 
HETATM   13  C   UNL     1      -7.414   7.096  73.097  1.00  0.00    -0.079 C  
HETATM   14  C   UNL     1      -7.862   6.242  72.151  1.00  0.00    -0.104 C  
HETATM   15  C   UNL     1      -9.301   6.268  71.607  1.00  0.00    -0.153 C  
HETATM   16  C   UNL     1     -10.088   5.211  72.440  1.00  0.00    -0.233 C  
HETATM   17  C   UNL     1      -9.544   5.932  70.037  1.00  0.00    -0.163 C  
HETATM   18  F   UNL     1     -10.786   5.323  69.977  1.00  0.00    -0.371 F  
HETATM   19  C   UNL     1      -8.550   4.961  69.344  1.00  0.00    -0.087 C  
HETATM   20  C   UNL     1      -8.950   4.589  67.890  1.00  0.00    -0.133 C  
HETATM   21  O   UNL     1      -8.415   3.741  70.084  1.00  0.00    -0.059 OA 
HETATM   22  C   UNL     1      -9.467   5.705  66.909  1.00  0.00    -0.142 C  
HETATM   23  H   UNL     1      -7.807   3.147  69.660  1.00  0.00     0.000 HD 
HETATM   24  C   UNL     1      -8.390   6.617  66.125  1.00  0.00    -0.130 C  
HETATM   25  C   UNL     1     -10.382   4.957  65.899  1.00  0.00    -0.271 C  
HETATM   26  H   UNL     1      -6.824   5.558  66.721  1.00  0.00     0.000 HD 
HETATM   27  O   UNL     1      -7.148   6.447  66.805  1.00  0.00    -0.069 OA 
ENDROOT
BRANCH  24  28
HETATM   28  C   UNL     1      -8.226   6.519  64.549  1.00  0.00    -0.027 C  
HETATM   29  O   UNL     1      -8.099   7.464  63.786  1.00  0.00    -0.111 OA 
BRANCH  28  30
HETATM   30  S   UNL     1      -7.965   4.873  63.930  1.00  0.00    -0.105 SA 
HETATM   31  C   UNL     1      -6.174   4.763  64.185  1.00  0.00    -0.022 C  
HETATM   32  F   UNL     1      -5.767   3.489  63.918  1.00  0.00    -0.012 F  
ENDBRANCH  28  30
ENDBRANCH  24  28
TORSDOF 2
ENDMDL
MODEL       83
REMARK 921   NORMALIZED FREE ENERGY PREDICTED BY IDOCK:   -4.01 KCAL/MOL
REMARK 922        TOTAL FREE ENERGY PREDICTED BY IDOCK:   -4.51 KCAL/MOL
REMARK 923 INTER-LIGAND FREE ENERGY PREDICTED BY IDOCK:   -4.63 KCAL/MOL
REMARK 924 INTRA-LIGAND FREE ENERGY PREDICTED BY IDOCK:    0.12 KCAL/MOL
REMARK 927      BINDING AFFINITY PREDICTED BY RF-SCORE:    0.00 PKD
ROOT
HETATM    1  C   UNL     1      -8.479  10.798  69.397  1.00  0.00     0.000 C  
HETATM    2  C   UNL     1      -9.590  11.324  68.482  1.00  0.00    -0.199 C  
HETATM    3  C   UNL     1     -10.880  10.508  68.443  1.00  0.00    -0.284 C  
HETATM    4  C   UNL     1     -10.681   9.539  67.287  1.00  0.00    -0.269 C  
HETATM    5  C   UNL     1      -9.711   8.376  67.667  1.00  0.00    -0.201 C  
HETATM    6  C   UNL     1     -10.149   7.669  68.952  1.00  0.00    -0.202 C  
HETATM    7  C   UNL     1      -9.133   6.616  69.311  1.00  0.00    -0.138 C  
HETATM    8  C   UNL     1      -9.230   5.516  68.296  1.00  0.00    -0.118 C  
HETATM    9  F   UNL     1      -7.897   7.188  69.299  1.00  0.00    -0.105 F  
HETATM   10  C   UNL     1      -8.857   4.288  68.723  1.00  0.00    -0.138 C  
HETATM   11  C   UNL     1      -7.355   4.211  68.690  1.00  0.00    -0.055 C  
HETATM   12  O   UNL     1      -6.741   3.528  69.496  1.00  0.00    -0.033 OA 
HETATM   13  C   UNL     1      -6.668   4.951  67.574  1.00  0.00    -0.055 C  
HETATM   14  C   UNL     1      -7.371   5.737  66.728  1.00  0.00    -0.079 C  
HETATM   15  C   UNL     1      -8.890   5.952  66.846  1.00  0.00    -0.115 C  
HETATM   16  C   UNL     1      -9.541   4.920  65.876  1.00  0.00    -0.185 C  
HETATM   17  C   UNL     1      -9.497   7.414  66.483  1.00  0.00    -0.172 C  
HETATM   18  F   UNL     1     -10.759   7.173  65.967  1.00  0.00     0.223 F  
HETATM   19  C   UNL     1      -8.748   8.263  65.419  1.00  0.00    -0.113 C  
HETATM   20  C   UNL     1      -9.484   9.575  65.035  1.00  0.00    -0.273 C  
HETATM   21  O   UNL     1      -8.534   7.516  64.216  1.00  0.00    -0.367 OA 
HETATM   22  C   UNL     1     -10.130  10.470  66.157  1.00  0.00    -0.306 C  
HETATM   23  H   UNL     1      -8.075   8.035  63.565  1.00  0.00     0.000 HD 
HETATM   24  C   UNL     1      -9.196  11.511  66.963  1.00  0.00    -0.176 C  
HETATM   25  C   UNL     1     -11.294  11.219  65.450  1.00  0.00     0.027 C  
HETATM   26  H   UNL     1      -7.611  11.225  65.807  1.00  0.00     0.000 HD 
HETATM   27  O   UNL     1      -7.848  11.113  66.720  1.00  0.00    -0.140 OA 
ENDROOT
BRANCH  24  28
HETATM   28  C   UNL     1      -9.392  13.079  66.806  1.00  0.00    -0.244 C  
HETATM   29  O   UNL     1      -9.498  13.681  65.749  1.00  0.00    -0.123 OA 
BRANCH  28  30
HETATM   30  S   UNL     1      -9.725  13.942  68.324  1.00  0.00    -0.223 SA 
HETATM   31  C   UNL     1     -10.756  15.278  67.662  1.00  0.00    -0.282 C  
HETATM   32  F   UNL     1     -11.271  15.995  68.701  1.00  0.00    -0.286 F  
ENDBRANCH  28  30
ENDBRANCH  24  28
TORSDOF 2
ENDMDL
MODEL       84
REMARK 921   NORMALIZED FREE ENERGY PREDICTED BY IDOCK:   -3.98 KCAL/MOL
REMARK 922        TOTAL FREE ENERGY PREDICTED BY IDOCK:   -4.48 KCAL/MOL
REMARK 923 INTER-LIGAND FREE ENERGY PREDICTED BY IDOCK:   -4.19 KCAL/MOL
REMARK 924 INTRA-LIGAND FREE ENERGY PREDICTED BY IDOCK:   -0.29 KCAL/MOL
REMARK 927      BINDING AFFINITY PREDICTED BY RF-SCORE:    0.00 PKD
ROOT
HETATM    1  C   UNL     1      -5.939   6.986  66.060  1.00  0.00    -0.036 C  
HETATM    2  C   UNL     1      -6.983   5.865  65.996  1.00  0.00    -0.062 C  
HETATM    3  C   UNL     1      -8.215   6.135  65.135  1.00  0.00    -0.141 C  
HETATM    4  C   UNL     1      -9.229   6.731  66.101  1.00  0.00    -0.120 C  
HETATM    5  C   UNL     1      -8.891   8.215  66.450  1.00  0.00    -0.182 C  
HETATM    6  C   UNL     1      -8.713   9.068  65.191  1.00  0.00    -0.223 C  
HETATM    7  C   UNL     1      -8.308  10.463  65.589  1.00  0.00    -0.163 C  
HETATM    8  C   UNL     1      -9.488  11.115  66.248  1.00  0.00    -0.220 C  
HETATM    9  F   UNL     1      -7.253  10.378  66.446  1.00  0.00    -0.095 F  
HETATM   10  C   UNL     1      -9.540  12.464  66.158  1.00  0.00    -0.238 C  
HETATM   11  C   UNL     1      -8.617  13.044  67.195  1.00  0.00    -0.195 C  
HETATM   12  O   UNL     1      -8.035  14.099  67.001  1.00  0.00    -0.129 OA 
HETATM   13  C   UNL     1      -8.516  12.297  68.498  1.00  0.00    -0.077 C  
HETATM   14  C   UNL     1      -9.134  11.107  68.664  1.00  0.00    -0.166 C  
HETATM   15  C   UNL     1      -9.954  10.422  67.556  1.00  0.00    -0.215 C  
HETATM   16  C   UNL     1     -11.435  10.835  67.808  1.00  0.00    -0.283 C  
HETATM   17  C   UNL     1      -9.909   8.802  67.446  1.00  0.00    -0.194 C  
HETATM   18  F   UNL     1     -11.154   8.430  66.969  1.00  0.00    -0.274 F  
HETATM   19  C   UNL     1      -9.687   7.996  68.754  1.00  0.00    -0.156 C  
HETATM   20  C   UNL     1      -9.807   6.459  68.570  1.00  0.00    -0.145 C  
HETATM   21  O   UNL     1     -10.620   8.386  69.770  1.00  0.00    -0.220 OA 
HETATM   22  C   UNL     1      -9.139   5.763  67.325  1.00  0.00    -0.110 C  
HETATM   23  H   UNL     1     -10.483   7.892  70.570  1.00  0.00     0.000 HD 
HETATM   24  C   UNL     1      -7.569   5.393  67.386  1.00  0.00    -0.088 C  
HETATM   25  C   UNL     1      -9.989   4.486  67.077  1.00  0.00    -0.215 C  
HETATM   26  H   UNL     1      -7.372   5.861  69.302  1.00  0.00     0.000 HD 
HETATM   27  O   UNL     1      -7.020   6.145  68.466  1.00  0.00    -0.071 OA 
ENDROOT
BRANCH  24  28
HETATM   28  C   UNL     1      -7.084   3.882  67.404  1.00  0.00    -0.063 C  
HETATM   29  O   UNL     1      -6.504   3.309  66.495  1.00  0.00    -0.034 OA 
BRANCH  28  30
HETATM   30  S   UNL     1      -7.200   3.082  68.988  1.00  0.00    -0.048 SA 
HETATM   31  C   UNL     1      -5.586   2.256  68.999  1.00  0.00    -0.021 C  
HETATM   32  F   UNL     1      -5.386   1.694  70.225  1.00  0.00    -0.004 F  
ENDBRANCH  28  30
ENDBRANCH  24  28
TORSDOF 2
ENDMDL
MODEL       85
REMARK 921   NORMALIZED FREE ENERGY PREDICTED BY IDOCK:   -3.96 KCAL/MOL
REMARK 922        TOTAL FREE ENERGY PREDICTED BY IDOCK:   -4.46 KCAL/MOL
REMARK 923 INTER-LIGAND FREE ENERGY PREDICTED BY IDOCK:   -4.42 KCAL/MOL
REMARK 924 INTRA-LIGAND FREE ENERGY PREDICTED BY IDOCK:   -0.04 KCAL/MOL
REMARK 927      BINDING AFFINITY PREDICTED BY RF-SCORE:    0.00 PKD
ROOT
HETATM    1  C   UNL     1     -10.620  17.674  67.891  1.00  0.00    -0.390 C  
HETATM    2  C   UNL     1      -9.279  17.968  67.210  1.00  0.00    -0.255 C  
HETATM    3  C   UNL     1      -8.960  17.154  65.958  1.00  0.00    -0.141 C  
HETATM    4  C   UNL     1      -8.187  15.949  66.476  1.00  0.00    -0.307 C  
HETATM    5  C   UNL     1      -9.129  14.911  67.165  1.00  0.00    -0.236 C  
HETATM    6  C   UNL     1     -10.294  14.511  66.257  1.00  0.00    -0.300 C  
HETATM    7  C   UNL     1     -11.208  13.576  67.004  1.00  0.00    -0.312 C  
HETATM    8  C   UNL     1     -10.487  12.273  67.187  1.00  0.00    -0.238 C  
HETATM    9  F   UNL     1     -11.514  14.140  68.205  1.00  0.00    -0.266 F  
HETATM   10  C   UNL     1     -11.272  11.177  67.297  1.00  0.00    -0.347 C  
HETATM   11  C   UNL     1     -11.793  11.107  68.707  1.00  0.00    -0.320 C  
HETATM   12  O   UNL     1     -12.891  10.631  68.950  1.00  0.00     0.154 OA 
HETATM   13  C   UNL     1     -10.863  11.581  69.791  1.00  0.00     0.049 C  
HETATM   14  C   UNL     1      -9.675  12.148  69.487  1.00  0.00     1.120 C  
HETATM   15  C   UNL     1      -9.195  12.372  68.042  1.00  0.00    -0.203 C  
HETATM   16  C   UNL     1      -8.304  11.140  67.696  1.00  0.00    -0.122 C  
HETATM   17  C   UNL     1      -8.335  13.708  67.708  1.00  0.00    -0.181 C  
HETATM   18  F   UNL     1      -7.468  13.345  66.691  1.00  0.00     0.165 F  
HETATM   19  C   UNL     1      -7.452  14.300  68.840  1.00  0.00    -0.123 C  
HETATM   20  C   UNL     1      -6.558  15.484  68.382  1.00  0.00    -0.117 C  
HETATM   21  O   UNL     1      -6.594  13.300  69.405  1.00  0.00    -0.131 OA 
HETATM   22  C   UNL     1      -7.156  16.604  67.452  1.00  0.00    -0.189 C  
HETATM   23  H   UNL     1      -6.053  13.662  70.098  1.00  0.00     0.000 HD 
HETATM   24  C   UNL     1      -7.997  17.809  68.121  1.00  0.00    -0.263 C  
HETATM   25  C   UNL     1      -5.938  17.163  66.666  1.00  0.00    -0.240 C  
HETATM   26  H   UNL     1      -7.572  17.281  69.984  1.00  0.00     0.000 HD 
HETATM   27  O   UNL     1      -8.342  17.378  69.436  1.00  0.00     0.109 OA 
ENDROOT
BRANCH  24  28
HETATM   28  C   UNL     1      -7.447  19.298  68.107  1.00  0.00    -0.289 C  
HETATM   29  O   UNL     1      -6.520  19.722  68.778  1.00  0.00    -0.266 OA 
BRANCH  28  30
HETATM   30  S   UNL     1      -8.110  20.323  66.813  1.00  0.00    -0.235 SA 
HETATM   31  C   UNL     1      -6.683  20.310  65.694  1.00  0.00    -0.259 C  
HETATM   32  F   UNL     1      -7.033  20.922  64.526  1.00  0.00    -0.285 F  
ENDBRANCH  28  30
ENDBRANCH  24  28
TORSDOF 2
ENDMDL
MODEL       86
REMARK 921   NORMALIZED FREE ENERGY PREDICTED BY IDOCK:   -3.89 KCAL/MOL
REMARK 922        TOTAL FREE ENERGY PREDICTED BY IDOCK:   -4.37 KCAL/MOL
REMARK 923 INTER-LIGAND FREE ENERGY PREDICTED BY IDOCK:   -4.04 KCAL/MOL
REMARK 924 INTRA-LIGAND FREE ENERGY PREDICTED BY IDOCK:   -0.33 KCAL/MOL
REMARK 927      BINDING AFFINITY PREDICTED BY RF-SCORE:    0.00 PKD
ROOT
HETATM    1  C   UNL     1     -10.339   5.826  65.989  1.00  0.00     0.075 C  
HETATM    2  C   UNL     1      -8.896   6.059  65.527  1.00  0.00    -0.083 C  
HETATM    3  C   UNL     1      -7.841   5.112  66.095  1.00  0.00    -0.103 C  
HETATM    4  C   UNL     1      -7.329   5.818  67.342  1.00  0.00    -0.077 C  
HETATM    5  C   UNL     1      -8.348   5.724  68.520  1.00  0.00    -0.107 C  
HETATM    6  C   UNL     1      -8.762   4.276  68.798  1.00  0.00    -0.124 C  
HETATM    7  C   UNL     1      -9.805   4.257  69.885  1.00  0.00    -0.197 C  
HETATM    8  C   UNL     1      -9.138   4.648  71.171  1.00  0.00    -0.180 C  
HETATM    9  F   UNL     1     -10.788   5.139  69.554  1.00  0.00    -0.331 F  
HETATM   10  C   UNL     1      -9.704   4.160  72.298  1.00  0.00    -0.214 C  
HETATM   11  C   UNL     1     -10.898   5.012  72.636  1.00  0.00    -0.226 C  
HETATM   12  O   UNL     1     -11.876   4.535  73.190  1.00  0.00    -0.184 OA 
HETATM   13  C   UNL     1     -10.784   6.481  72.327  1.00  0.00    -0.252 C  
HETATM   14  C   UNL     1      -9.709   6.969  71.670  1.00  0.00    -0.164 C  
HETATM   15  C   UNL     1      -8.551   6.085  71.175  1.00  0.00    -0.129 C  
HETATM   16  C   UNL     1      -7.464   6.148  72.291  1.00  0.00    -0.095 C  
HETATM   17  C   UNL     1      -7.832   6.462  69.770  1.00  0.00    -0.114 C  
HETATM   18  F   UNL     1      -6.511   6.071  69.913  1.00  0.00    -0.035 F  
HETATM   19  C   UNL     1      -7.798   7.958  69.354  1.00  0.00    -0.114 C  
HETATM   20  C   UNL     1      -6.964   8.234  68.074  1.00  0.00    -0.081 C  
HETATM   21  O   UNL     1      -7.268   8.776  70.404  1.00  0.00    -0.041 OA 
HETATM   22  C   UNL     1      -7.096   7.278  66.830  1.00  0.00    -0.086 C  
HETATM   23  H   UNL     1      -7.247   9.692  70.150  1.00  0.00     0.000 HD 
HETATM   24  C   UNL     1      -8.314   7.504  65.796  1.00  0.00    -0.142 C  
HETATM   25  C   UNL     1      -5.731   7.388  66.095  1.00  0.00    -0.036 C  
HETATM   26  H   UNL     1      -8.913   9.200  66.628  1.00  0.00     0.000 HD 
HETATM   27  O   UNL     1      -9.262   8.332  66.466  1.00  0.00    -0.163 OA 
ENDROOT
BRANCH  24  28
HETATM   28  C   UNL     1      -8.046   7.987  64.308  1.00  0.00    -0.117 C  
HETATM   29  O   UNL     1      -8.166   7.303  63.304  1.00  0.00    -0.058 OA 
BRANCH  28  30
HETATM   30  S   UNL     1      -7.795   9.739  64.129  1.00  0.00    -0.141 SA 
HETATM   31  C   UNL     1      -9.430  10.189  63.490  1.00  0.00    -0.260 C  
HETATM   32  F   UNL     1      -9.521  11.548  63.426  1.00  0.00    -0.261 F  
ENDBRANCH  28  30
ENDBRANCH  24  28
TORSDOF 2
ENDMDL
MODEL       87
REMARK 921   NORMALIZED FREE ENERGY PREDICTED BY IDOCK:   -3.77 KCAL/MOL
REMARK 922        TOTAL FREE ENERGY PREDICTED BY IDOCK:   -4.24 KCAL/MOL
REMARK 923 INTER-LIGAND FREE ENERGY PREDICTED BY IDOCK:   -4.45 KCAL/MOL
REMARK 924 INTRA-LIGAND FREE ENERGY PREDICTED BY IDOCK:    0.21 KCAL/MOL
REMARK 927      BINDING AFFINITY PREDICTED BY RF-SCORE:    0.00 PKD
ROOT
HETATM    1  C   UNL     1      -8.020   9.965  67.150  1.00  0.00    -0.109 C  
HETATM    2  C   UNL     1      -8.780   8.960  66.278  1.00  0.00    -0.162 C  
HETATM    3  C   UNL     1     -10.150   8.520  66.787  1.00  0.00    -0.369 C  
HETATM    4  C   UNL     1      -9.868   7.269  67.606  1.00  0.00    -0.189 C  
HETATM    5  C   UNL     1      -9.233   7.615  68.990  1.00  0.00    -0.140 C  
HETATM    6  C   UNL     1     -10.073   8.638  69.759  1.00  0.00    -0.199 C  
HETATM    7  C   UNL     1      -9.370   8.993  71.043  1.00  0.00    -0.271 C  
HETATM    8  C   UNL     1      -9.426   7.796  71.946  1.00  0.00    -0.197 C  
HETATM    9  F   UNL     1      -8.083   9.328  70.752  1.00  0.00    -0.134 F  
HETATM   10  C   UNL     1      -9.386   8.058  73.272  1.00  0.00    -0.344 C  
HETATM   11  C   UNL     1      -7.954   8.308  73.662  1.00  0.00    -0.172 C  
HETATM   12  O   UNL     1      -7.672   9.081  74.565  1.00  0.00    -0.367 OA 
HETATM   13  C   UNL     1      -6.909   7.502  72.938  1.00  0.00    -0.068 C  
HETATM   14  C   UNL     1      -7.248   6.692  71.911  1.00  0.00    -0.085 C  
HETATM   15  C   UNL     1      -8.691   6.546  71.395  1.00  0.00    -0.130 C  
HETATM   16  C   UNL     1      -9.275   5.296  72.121  1.00  0.00    -0.156 C  
HETATM   17  C   UNL     1      -8.928   6.342  69.802  1.00  0.00    -0.140 C  
HETATM   18  F   UNL     1     -10.060   5.552  69.694  1.00  0.00    -0.214 F  
HETATM   19  C   UNL     1      -7.817   5.619  68.992  1.00  0.00    -0.096 C  
HETATM   20  C   UNL     1      -8.199   5.342  67.513  1.00  0.00    -0.100 C  
HETATM   21  O   UNL     1      -7.469   4.366  69.594  1.00  0.00    -0.050 OA 
HETATM   22  C   UNL     1      -8.916   6.459  66.666  1.00  0.00    -0.145 C  
HETATM   23  H   UNL     1      -6.789   3.923  69.099  1.00  0.00     0.000 HD 
HETATM   24  C   UNL     1      -8.021   7.608  65.970  1.00  0.00    -0.112 C  
HETATM   25  C   UNL     1      -9.735   5.684  65.596  1.00  0.00     0.134 C  
HETATM   26  H   UNL     1      -6.291   6.754  66.424  1.00  0.00     0.000 HD 
HETATM   27  O   UNL     1      -6.747   7.567  66.609  1.00  0.00    -0.055 OA 
ENDROOT
BRANCH  24  28
HETATM   28  C   UNL     1      -7.894   7.703  64.391  1.00  0.00    -0.137 C  
HETATM   29  O   UNL     1      -7.885   6.757  63.619  1.00  0.00    -0.117 OA 
BRANCH  28  30
HETATM   30  S   UNL     1      -8.029   9.349  63.731  1.00  0.00    -0.153 SA 
HETATM   31  C   UNL     1      -6.292   9.846  63.874  1.00  0.00    -0.126 C  
HETATM   32  F   UNL     1      -6.127  11.054  63.264  1.00  0.00    -0.053 F  
ENDBRANCH  28  30
ENDBRANCH  24  28
TORSDOF 2
ENDMDL
MODEL       88
REMARK 921   NORMALIZED FREE ENERGY PREDICTED BY IDOCK:   -3.63 KCAL/MOL
REMARK 922        TOTAL FREE ENERGY PREDICTED BY IDOCK:   -4.09 KCAL/MOL
REMARK 923 INTER-LIGAND FREE ENERGY PREDICTED BY IDOCK:   -4.51 KCAL/MOL
REMARK 924 INTRA-LIGAND FREE ENERGY PREDICTED BY IDOCK:    0.42 KCAL/MOL
REMARK 927      BINDING AFFINITY PREDICTED BY RF-SCORE:    0.00 PKD
ROOT
HETATM    1  C   UNL     1      -8.138   6.851  66.330  1.00  0.00    -0.112 C  
HETATM    2  C   UNL     1      -8.849   5.910  67.308  1.00  0.00    -0.106 C  
HETATM    3  C   UNL     1     -10.363   6.066  67.419  1.00  0.00    -0.268 C  
HETATM    4  C   UNL     1     -10.561   7.053  68.561  1.00  0.00    -0.235 C  
HETATM    5  C   UNL     1     -10.233   8.516  68.123  1.00  0.00    -0.254 C  
HETATM    6  C   UNL     1     -11.005   8.918  66.864  1.00  0.00     0.229 C  
HETATM    7  C   UNL     1     -10.586  10.303  66.446  1.00  0.00    -0.107 C  
HETATM    8  C   UNL     1     -11.113  11.271  67.463  1.00  0.00    -0.346 C  
HETATM    9  F   UNL     1      -9.226  10.343  66.389  1.00  0.00    -0.164 F  
HETATM   10  C   UNL     1     -11.350  12.525  67.013  1.00  0.00    -0.386 C  
HETATM   11  C   UNL     1     -10.041  13.265  66.960  1.00  0.00    -0.242 C  
HETATM   12  O   UNL     1      -9.838  14.127  66.119  1.00  0.00    -0.292 OA 
HETATM   13  C   UNL     1      -9.041  12.939  68.036  1.00  0.00    -0.211 C  
HETATM   14  C   UNL     1      -9.275  11.946  68.922  1.00  0.00     0.135 C  
HETATM   15  C   UNL     1     -10.542  11.072  68.892  1.00  0.00    -0.239 C  
HETATM   16  C   UNL     1     -11.535  11.732  69.895  1.00  0.00    -0.285 C  
HETATM   17  C   UNL     1     -10.412   9.504  69.292  1.00  0.00    -0.212 C  
HETATM   18  F   UNL     1     -11.621   9.171  69.878  1.00  0.00    -0.182 F  
HETATM   19  C   UNL     1      -9.310   9.107  70.312  1.00  0.00    -0.220 C  
HETATM   20  C   UNL     1      -9.362   7.615  70.740  1.00  0.00    -0.162 C  
HETATM   21  O   UNL     1      -9.393   9.904  71.500  1.00  0.00     0.065 OA 
HETATM   22  C   UNL     1      -9.596   6.496  69.658  1.00  0.00    -0.155 C  
HETATM   23  H   UNL     1      -8.719   9.661  72.125  1.00  0.00     0.000 HD 
HETATM   24  C   UNL     1      -8.337   5.960  68.803  1.00  0.00    -0.105 C  
HETATM   25  C   UNL     1     -10.265   5.326  70.432  1.00  0.00    -0.338 C  
HETATM   26  H   UNL     1      -6.991   6.954  69.866  1.00  0.00     0.000 HD 
HETATM   27  O   UNL     1      -7.299   6.924  68.967  1.00  0.00    -0.088 OA 
ENDROOT
BRANCH  24  28
HETATM   28  C   UNL     1      -7.804   4.474  68.974  1.00  0.00    -0.070 C  
HETATM   29  O   UNL     1      -8.348   3.592  69.619  1.00  0.00    -0.052 OA 
BRANCH  28  30
HETATM   30  S   UNL     1      -6.436   4.049  67.920  1.00  0.00    -0.038 SA 
HETATM   31  C   UNL     1      -7.125   2.553  67.163  1.00  0.00    -0.052 C  
HETATM   32  F   UNL     1      -6.286   2.132  66.174  1.00  0.00    -0.021 F  
ENDBRANCH  28  30
ENDBRANCH  24  28
TORSDOF 2
ENDMDL
MODEL       89
REMARK 921   NORMALIZED FREE ENERGY PREDICTED BY IDOCK:   -3.61 KCAL/MOL
REMARK 922        TOTAL FREE ENERGY PREDICTED BY IDOCK:   -4.06 KCAL/MOL
REMARK 923 INTER-LIGAND FREE ENERGY PREDICTED BY IDOCK:   -3.70 KCAL/MOL
REMARK 924 INTRA-LIGAND FREE ENERGY PREDICTED BY IDOCK:   -0.37 KCAL/MOL
REMARK 927      BINDING AFFINITY PREDICTED BY RF-SCORE:    0.00 PKD
ROOT
HETATM    1  C   UNL     1      -5.462   5.716  68.901  1.00  0.00    -0.010 C  
HETATM    2  C   UNL     1      -6.413   4.579  68.512  1.00  0.00    -0.037 C  
HETATM    3  C   UNL     1      -7.013   4.647  67.109  1.00  0.00    -0.060 C  
HETATM    4  C   UNL     1      -8.326   5.393  67.294  1.00  0.00    -0.107 C  
HETATM    5  C   UNL     1      -8.098   6.924  67.498  1.00  0.00    -0.116 C  
HETATM    6  C   UNL     1      -7.239   7.523  66.381  1.00  0.00    -0.075 C  
HETATM    7  C   UNL     1      -6.985   8.978  66.675  1.00  0.00    -0.081 C  
HETATM    8  C   UNL     1      -8.281   9.716  66.508  1.00  0.00    -0.119 C  
HETATM    9  F   UNL     1      -6.521   9.086  67.951  1.00  0.00    -0.053 F  
HETATM   10  C   UNL     1      -8.175  11.020  66.166  1.00  0.00    -0.155 C  
HETATM   11  C   UNL     1      -7.864  11.812  67.408  1.00  0.00    -0.155 C  
HETATM   12  O   UNL     1      -7.183  12.824  67.356  1.00  0.00    -0.146 OA 
HETATM   13  C   UNL     1      -8.496  11.332  68.686  1.00  0.00    -0.143 C  
HETATM   14  C   UNL     1      -9.204  10.181  68.720  1.00  0.00    -0.164 C  
HETATM   15  C   UNL     1      -9.398   9.276  67.491  1.00  0.00    -0.148 C  
HETATM   16  C   UNL     1     -10.766   9.694  66.870  1.00  0.00    -0.185 C  
HETATM   17  C   UNL     1      -9.431   7.667  67.709  1.00  0.00    -0.142 C  
HETATM   18  F   UNL     1     -10.286   7.179  66.736  1.00  0.00    -0.285 F  
HETATM   19  C   UNL     1      -9.966   7.133  69.065  1.00  0.00    -0.174 C  
HETATM   20  C   UNL     1     -10.096   5.587  69.121  1.00  0.00    -0.286 C  
HETATM   21  O   UNL     1     -11.251   7.688  69.371  1.00  0.00    -0.449 OA 
HETATM   22  C   UNL     1      -8.945   4.681  68.542  1.00  0.00    -0.139 C  
HETATM   23  H   UNL     1     -11.579   7.361  70.201  1.00  0.00     0.000 HD 
HETATM   24  C   UNL     1      -7.658   4.369  69.463  1.00  0.00    -0.054 C  
HETATM   25  C   UNL     1      -9.649   3.360  68.124  1.00  0.00    -0.158 C  
HETATM   26  H   UNL     1      -8.423   5.201  71.090  1.00  0.00     0.000 HD 
HETATM   27  O   UNL     1      -7.675   5.327  70.519  1.00  0.00    -0.076 OA 
ENDROOT
BRANCH  24  28
HETATM   28  C   UNL     1      -7.368   2.901  69.995  1.00  0.00    -0.044 C  
HETATM   29  O   UNL     1      -6.554   2.121  69.526  1.00  0.00    -0.029 OA 
BRANCH  28  30
HETATM   30  S   UNL     1      -8.141   2.506  71.547  1.00  0.00    -0.052 SA 
HETATM   31  C   UNL     1      -6.681   2.610  72.616  1.00  0.00    -0.022 C  
HETATM   32  F   UNL     1      -7.076   2.495  73.916  1.00  0.00    -0.030 F  
ENDBRANCH  28  30
ENDBRANCH  24  28
TORSDOF 2
ENDMDL
MODEL       90
REMARK 921   NORMALIZED FREE ENERGY PREDICTED BY IDOCK:   -3.51 KCAL/MOL
REMARK 922        TOTAL FREE ENERGY PREDICTED BY IDOCK:   -3.95 KCAL/MOL
REMARK 923 INTER-LIGAND FREE ENERGY PREDICTED BY IDOCK:   -3.84 KCAL/MOL
REMARK 924 INTRA-LIGAND FREE ENERGY PREDICTED BY IDOCK:   -0.11 KCAL/MOL
REMARK 927      BINDING AFFINITY PREDICTED BY RF-SCORE:    0.00 PKD
ROOT
HETATM    1  C   UNL     1      -7.142  13.164  67.278  1.00  0.00    -0.033 C  
HETATM    2  C   UNL     1      -8.580  13.657  67.471  1.00  0.00    -0.197 C  
HETATM    3  C   UNL     1      -9.228  13.345  68.818  1.00  0.00     0.106 C  
HETATM    4  C   UNL     1      -9.942  12.019  68.597  1.00  0.00    -0.151 C  
HETATM    5  C   UNL     1      -8.940  10.822  68.567  1.00  0.00    -0.160 C  
HETATM    6  C   UNL     1      -8.042  10.802  69.807  1.00  0.00     0.240 C  
HETATM    7  C   UNL     1      -7.046   9.679  69.681  1.00  0.00    -0.075 C  
HETATM    8  C   UNL     1      -7.792   8.384  69.810  1.00  0.00    -0.099 C  
HETATM    9  F   UNL     1      -6.438   9.776  68.466  1.00  0.00    -0.050 F  
HETATM   10  C   UNL     1      -7.077   7.340  70.288  1.00  0.00    -0.065 C  
HETATM   11  C   UNL     1      -6.255   6.774  69.162  1.00  0.00    -0.027 C  
HETATM   12  O   UNL     1      -5.165   6.265  69.372  1.00  0.00    -0.011 OA 
HETATM   13  C   UNL     1      -6.880   6.803  67.793  1.00  0.00    -0.081 C  
HETATM   14  C   UNL     1      -8.065   7.417  67.585  1.00  0.00    -0.114 C  
HETATM   15  C   UNL     1      -8.845   8.139  68.698  1.00  0.00    -0.134 C  
HETATM   16  C   UNL     1      -9.872   7.099  69.239  1.00  0.00    -0.161 C  
HETATM   17  C   UNL     1      -9.668   9.487  68.319  1.00  0.00    -0.147 C  
HETATM   18  F   UNL     1     -10.766   9.500  69.163  1.00  0.00    -0.215 F  
HETATM   19  C   UNL     1     -10.229   9.610  66.876  1.00  0.00    -0.237 C  
HETATM   20  C   UNL     1     -11.122  10.861  66.656  1.00  0.00    -0.155 C  
HETATM   21  O   UNL     1     -11.000   8.456  66.520  1.00  0.00    -0.019 OA 
HETATM   22  C   UNL     1     -10.678  12.254  67.238  1.00  0.00    -0.263 C  
HETATM   23  H   UNL     1     -11.344   8.531  65.636  1.00  0.00     0.000 HD 
HETATM   24  C   UNL     1      -9.628  13.151  66.402  1.00  0.00    -0.255 C  
HETATM   25  C   UNL     1     -12.003  13.035  67.461  1.00  0.00    -0.360 C  
HETATM   26  H   UNL     1      -9.653  11.976  64.806  1.00  0.00     0.000 HD 
HETATM   27  O   UNL     1      -9.023  12.280  65.449  1.00  0.00     0.233 OA 
ENDROOT
BRANCH  24  28
HETATM   28  C   UNL     1     -10.066  14.533  65.754  1.00  0.00    -0.342 C  
HETATM   29  O   UNL     1     -10.904  14.675  64.878  1.00  0.00    -0.388 OA 
BRANCH  28  30
HETATM   30  S   UNL     1      -9.432  15.976  66.579  1.00  0.00    -0.296 SA 
HETATM   31  C   UNL     1     -11.002  16.673  67.159  1.00  0.00    -0.023 C  
HETATM   32  F   UNL     1     -10.739  17.731  67.977  1.00  0.00    -0.364 F  
ENDBRANCH  28  30
ENDBRANCH  24  28
TORSDOF 2
ENDMDL
MODEL       91
REMARK 921   NORMALIZED FREE ENERGY PREDICTED BY IDOCK:   -3.50 KCAL/MOL
REMARK 922        TOTAL FREE ENERGY PREDICTED BY IDOCK:   -3.94 KCAL/MOL
REMARK 923 INTER-LIGAND FREE ENERGY PREDICTED BY IDOCK:   -3.86 KCAL/MOL
REMARK 924 INTRA-LIGAND FREE ENERGY PREDICTED BY IDOCK:   -0.08 KCAL/MOL
REMARK 927      BINDING AFFINITY PREDICTED BY RF-SCORE:    0.00 PKD
ROOT
HETATM    1  C   UNL     1      -9.420  12.952  68.791  1.00  0.00     0.110 C  
HETATM    2  C   UNL     1     -10.442  12.865  67.653  1.00  0.00    -0.228 C  
HETATM    3  C   UNL     1     -11.710  12.063  67.940  1.00  0.00    -0.393 C  
HETATM    4  C   UNL     1     -11.383  10.654  67.466  1.00  0.00    -0.241 C  
HETATM    5  C   UNL     1     -10.437   9.913  68.463  1.00  0.00    -0.232 C  
HETATM    6  C   UNL     1     -10.989   9.934  69.891  1.00  0.00    -0.321 C  
HETATM    7  C   UNL     1      -9.998   9.279  70.816  1.00  0.00    -0.290 C  
HETATM    8  C   UNL     1      -9.977   7.812  70.507  1.00  0.00    -0.187 C  
HETATM    9  F   UNL     1      -8.775   9.842  70.607  1.00  0.00    -0.212 F  
HETATM   10  C   UNL     1      -9.630   7.000  71.532  1.00  0.00    -0.159 C  
HETATM   11  C   UNL     1      -8.130   7.013  71.659  1.00  0.00    -0.103 C  
HETATM   12  O   UNL     1      -7.589   6.878  72.745  1.00  0.00    -0.089 OA 
HETATM   13  C   UNL     1      -7.348   7.122  70.378  1.00  0.00    -0.079 C  
HETATM   14  C   UNL     1      -7.975   7.320  69.197  1.00  0.00    -0.119 C  
HETATM   15  C   UNL     1      -9.502   7.468  69.070  1.00  0.00    -0.145 C  
HETATM   16  C   UNL     1     -10.038   6.046  68.723  1.00  0.00    -0.210 C  
HETATM   17  C   UNL     1     -10.092   8.498  67.962  1.00  0.00    -0.200 C  
HETATM   18  F   UNL     1     -11.293   7.947  67.548  1.00  0.00    -0.053 F  
HETATM   19  C   UNL     1      -9.255   8.731  66.675  1.00  0.00    -0.177 C  
HETATM   20  C   UNL     1      -9.969   9.614  65.616  1.00  0.00    -0.321 C  
HETATM   21  O   UNL     1      -8.912   7.490  66.047  1.00  0.00    -0.198 OA 
HETATM   22  C   UNL     1     -10.737  10.912  66.065  1.00  0.00    -0.208 C  
HETATM   23  H   UNL     1      -8.399   7.632  65.259  1.00  0.00     0.000 HD 
HETATM   24  C   UNL     1      -9.903  12.275  66.290  1.00  0.00    -0.241 C  
HETATM   25  C   UNL     1     -11.837  11.119  64.986  1.00  0.00     0.755 C  
HETATM   26  H   UNL     1      -8.208  11.542  65.571  1.00  0.00     0.000 HD 
HETATM   27  O   UNL     1      -8.532  11.896  66.391  1.00  0.00    -0.145 OA 
ENDROOT
BRANCH  24  28
HETATM   28  C   UNL     1     -10.107  13.527  65.335  1.00  0.00    -0.262 C  
HETATM   29  O   UNL     1      -9.652  13.645  64.208  1.00  0.00     0.263 OA 
BRANCH  28  30
HETATM   30  S   UNL     1     -11.304  14.712  65.907  1.00  0.00    -0.327 SA 
HETATM   31  C   UNL     1     -12.254  14.906  64.375  1.00  0.00    -0.381 C  
HETATM   32  F   UNL     1     -13.353  15.672  64.631  1.00  0.00     0.534 F  
ENDBRANCH  28  30
ENDBRANCH  24  28
TORSDOF 2
ENDMDL
MODEL       92
REMARK 921   NORMALIZED FREE ENERGY PREDICTED BY IDOCK:   -3.47 KCAL/MOL
REMARK 922        TOTAL FREE ENERGY PREDICTED BY IDOCK:   -3.91 KCAL/MOL
REMARK 923 INTER-LIGAND FREE ENERGY PREDICTED BY IDOCK:   -3.82 KCAL/MOL
REMARK 924 INTRA-LIGAND FREE ENERGY PREDICTED BY IDOCK:   -0.10 KCAL/MOL
REMARK 927      BINDING AFFINITY PREDICTED BY RF-SCORE:    0.00 PKD
ROOT
HETATM    1  C   UNL     1     -10.723  10.637  64.777  1.00  0.00    -0.055 C  
HETATM    2  C   UNL     1     -10.395  12.020  65.351  1.00  0.00    -0.301 C  
HETATM    3  C   UNL     1      -8.922  12.420  65.354  1.00  0.00     0.572 C  
HETATM    4  C   UNL     1      -8.409  11.971  66.715  1.00  0.00    -0.135 C  
HETATM    5  C   UNL     1      -8.204  10.425  66.774  1.00  0.00    -0.126 C  
HETATM    6  C   UNL     1      -7.324   9.924  65.626  1.00  0.00    -0.116 C  
HETATM    7  C   UNL     1      -7.232   8.422  65.689  1.00  0.00    -0.075 C  
HETATM    8  C   UNL     1      -6.415   8.060  66.894  1.00  0.00    -0.056 C  
HETATM    9  F   UNL     1      -8.493   7.916  65.780  1.00  0.00    -0.113 F  
HETATM   10  C   UNL     1      -5.752   6.883  66.822  1.00  0.00    -0.018 C  
HETATM   11  C   UNL     1      -6.723   5.774  67.124  1.00  0.00    -0.062 C  
HETATM   12  O   UNL     1      -6.604   4.674  66.607  1.00  0.00    -0.047 OA 
HETATM   13  C   UNL     1      -7.788   6.072  68.145  1.00  0.00    -0.106 C  
HETATM   14  C   UNL     1      -7.925   7.313  68.662  1.00  0.00    -0.124 C  
HETATM   15  C   UNL     1      -7.039   8.500  68.245  1.00  0.00    -0.085 C  
HETATM   16  C   UNL     1      -5.891   8.563  69.298  1.00  0.00    -0.038 C  
HETATM   17  C   UNL     1      -7.709   9.977  68.163  1.00  0.00    -0.085 C  
HETATM   18  F   UNL     1      -6.698  10.861  68.500  1.00  0.00    -0.054 F  
HETATM   19  C   UNL     1      -8.893  10.287  69.119  1.00  0.00    -0.176 C  
HETATM   20  C   UNL     1      -9.367  11.765  69.070  1.00  0.00     0.194 C  
HETATM   21  O   UNL     1      -8.555   9.983  70.478  1.00  0.00    -0.358 OA 
HETATM   22  C   UNL     1      -9.521  12.493  67.683  1.00  0.00    -0.188 C  
HETATM   23  H   UNL     1      -9.280  10.173  71.064  1.00  0.00     0.000 HD 
HETATM   24  C   UNL     1     -10.877  12.279  66.834  1.00  0.00    -0.251 C  
HETATM   25  C   UNL     1      -9.309  14.000  67.998  1.00  0.00    -0.205 C  
HETATM   26  H   UNL     1     -11.809  11.286  68.274  1.00  0.00     0.000 HD 
HETATM   27  O   UNL     1     -11.519  11.130  67.383  1.00  0.00    -0.466 OA 
ENDROOT
BRANCH  24  28
HETATM   28  C   UNL     1     -11.894  13.476  66.600  1.00  0.00    -0.407 C  
HETATM   29  O   UNL     1     -12.463  14.109  67.475  1.00  0.00    -0.174 OA 
BRANCH  28  30
HETATM   30  S   UNL     1     -11.984  14.058  64.921  1.00  0.00    -0.428 SA 
HETATM   31  C   UNL     1     -11.172  15.663  65.142  1.00  0.00    -0.282 C  
HETATM   32  F   UNL     1     -10.983  16.234  63.918  1.00  0.00    -0.051 F  
ENDBRANCH  28  30
ENDBRANCH  24  28
TORSDOF 2
ENDMDL
MODEL       93
REMARK 921   NORMALIZED FREE ENERGY PREDICTED BY IDOCK:   -3.13 KCAL/MOL
REMARK 922        TOTAL FREE ENERGY PREDICTED BY IDOCK:   -3.52 KCAL/MOL
REMARK 923 INTER-LIGAND FREE ENERGY PREDICTED BY IDOCK:   -3.40 KCAL/MOL
REMARK 924 INTRA-LIGAND FREE ENERGY PREDICTED BY IDOCK:   -0.12 KCAL/MOL
REMARK 927      BINDING AFFINITY PREDICTED BY RF-SCORE:    0.00 PKD
ROOT
HETATM    1  C   UNL     1      -6.895   7.981  69.958  1.00  0.00    -0.041 C  
HETATM    2  C   UNL     1      -7.421   6.566  70.222  1.00  0.00    -0.094 C  
HETATM    3  C   UNL     1      -8.546   6.080  69.311  1.00  0.00    -0.118 C  
HETATM    4  C   UNL     1      -9.822   6.460  70.049  1.00  0.00    -0.193 C  
HETATM    5  C   UNL     1     -10.116   7.990  69.945  1.00  0.00    -0.198 C  
HETATM    6  C   UNL     1     -10.118   8.470  68.491  1.00  0.00    -0.214 C  
HETATM    7  C   UNL     1     -10.324   9.962  68.461  1.00  0.00    -0.196 C  
HETATM    8  C   UNL     1     -11.734  10.241  68.889  1.00  0.00    -0.057 C  
HETATM    9  F   UNL     1      -9.430  10.538  69.312  1.00  0.00    -0.191 F  
HETATM   10  C   UNL     1     -12.281  11.379  68.402  1.00  0.00     0.099 C  
HETATM   11  C   UNL     1     -11.782  12.535  69.228  1.00  0.00    -0.321 C  
HETATM   12  O   UNL     1     -11.623  13.640  68.734  1.00  0.00    -0.276 OA 
HETATM   13  C   UNL     1     -11.569  12.270  70.694  1.00  0.00     0.419 C  
HETATM   14  C   UNL     1     -11.707  11.025  71.201  1.00  0.00     0.081 C  
HETATM   15  C   UNL     1     -12.062   9.800  70.339  1.00  0.00    -0.176 C  
HETATM   16  C   UNL     1     -13.609   9.641  70.447  1.00  0.00     0.508 C  
HETATM   17  C   UNL     1     -11.396   8.368  70.715  1.00  0.00    -0.265 C  
HETATM   18  F   UNL     1     -12.338   7.417  70.360  1.00  0.00    -0.175 F  
HETATM   19  C   UNL     1     -11.049   8.101  72.205  1.00  0.00    -0.344 C  
HETATM   20  C   UNL     1     -10.556   6.655  72.483  1.00  0.00    -0.245 C  
HETATM   21  O   UNL     1     -12.179   8.346  73.052  1.00  0.00    -0.573 OA 
HETATM   22  C   UNL     1      -9.525   5.976  71.506  1.00  0.00    -0.164 C  
HETATM   23  H   UNL     1     -11.967   8.182  73.964  1.00  0.00     0.000 HD 
HETATM   24  C   UNL     1      -7.953   6.293  71.685  1.00  0.00    -0.102 C  
HETATM   25  C   UNL     1      -9.792   4.451  71.641  1.00  0.00    -0.255 C  
HETATM   26  H   UNL     1      -8.187   7.297  73.377  1.00  0.00     0.000 HD 
HETATM   27  O   UNL     1      -7.867   7.461  72.498  1.00  0.00    -0.092 OA 
ENDROOT
BRANCH  24  28
HETATM   28  C   UNL     1      -6.938   5.164  72.153  1.00  0.00    -0.081 C  
HETATM   29  O   UNL     1      -6.931   4.623  73.247  1.00  0.00    -0.068 OA 
BRANCH  28  30
HETATM   30  S   UNL     1      -5.914   4.502  70.859  1.00  0.00    -0.018 SA 
HETATM   31  C   UNL     1      -6.566   2.811  70.829  1.00  0.00    -0.031 C  
HETATM   32  F   UNL     1      -6.019   2.146  69.772  1.00  0.00    -0.020 F  
ENDBRANCH  28  30
ENDBRANCH  24  28
TORSDOF 2
ENDMDL
MODEL       94
REMARK 921   NORMALIZED FREE ENERGY PREDICTED BY IDOCK:   -3.12 KCAL/MOL
REMARK 922        TOTAL FREE ENERGY PREDICTED BY IDOCK:   -3.51 KCAL/MOL
REMARK 923 INTER-LIGAND FREE ENERGY PREDICTED BY IDOCK:   -3.26 KCAL/MOL
REMARK 924 INTRA-LIGAND FREE ENERGY PREDICTED BY IDOCK:   -0.25 KCAL/MOL
REMARK 927      BINDING AFFINITY PREDICTED BY RF-SCORE:    0.00 PKD
ROOT
HETATM    1  C   UNL     1      -8.015   8.426  68.117  1.00  0.00    -0.119 C  
HETATM    2  C   UNL     1      -7.714   8.078  69.579  1.00  0.00    -0.103 C  
HETATM    3  C   UNL     1      -6.384   7.380  69.850  1.00  0.00    -0.031 C  
HETATM    4  C   UNL     1      -6.715   5.896  69.789  1.00  0.00    -0.052 C  
HETATM    5  C   UNL     1      -6.911   5.407  68.319  1.00  0.00    -0.060 C  
HETATM    6  C   UNL     1      -5.716   5.774  67.435  1.00  0.00    -0.016 C  
HETATM    7  C   UNL     1      -5.999   5.352  66.017  1.00  0.00    -0.022 C  
HETATM    8  C   UNL     1      -5.978   3.852  65.970  1.00  0.00    -0.027 C  
HETATM    9  F   UNL     1      -7.220   5.837  65.658  1.00  0.00    -0.067 F  
HETATM   10  C   UNL     1      -5.642   3.307  64.778  1.00  0.00    -0.010 C  
HETATM   11  C   UNL     1      -6.854   3.336  63.886  1.00  0.00    -0.040 C  
HETATM   12  O   UNL     1      -6.742   3.460  62.676  1.00  0.00    -0.028 OA 
HETATM   13  C   UNL     1      -8.186   3.128  64.554  1.00  0.00    -0.090 C  
HETATM   14  C   UNL     1      -8.281   3.042  65.899  1.00  0.00    -0.088 C  
HETATM   15  C   UNL     1      -7.068   3.170  66.838  1.00  0.00    -0.058 C  
HETATM   16  C   UNL     1      -6.600   1.711  67.124  1.00  0.00    -0.031 C  
HETATM   17  C   UNL     1      -7.270   3.909  68.270  1.00  0.00    -0.055 C  
HETATM   18  F   UNL     1      -6.386   3.286  69.135  1.00  0.00    -0.027 F  
HETATM   19  C   UNL     1      -8.668   3.819  68.939  1.00  0.00    -0.092 C  
HETATM   20  C   UNL     1      -8.719   4.429  70.366  1.00  0.00    -0.122 C  
HETATM   21  O   UNL     1      -9.114   2.460  69.029  1.00  0.00    -0.102 OA 
HETATM   22  C   UNL     1      -8.012   5.804  70.658  1.00  0.00    -0.109 C  
HETATM   23  H   UNL     1      -9.970   2.405  69.438  1.00  0.00     0.000 HD 
HETATM   24  C   UNL     1      -8.789   7.174  70.304  1.00  0.00    -0.148 C  
HETATM   25  C   UNL     1      -7.655   5.757  72.170  1.00  0.00    -0.101 C  
HETATM   26  H   UNL     1     -10.497   6.274  69.858  1.00  0.00     0.000 HD 
HETATM   27  O   UNL     1      -9.852   6.817  69.422  1.00  0.00    -0.155 OA 
ENDROOT
BRANCH  24  28
HETATM   28  C   UNL     1      -9.270   8.162  71.449  1.00  0.00    -0.153 C  
HETATM   29  O   UNL     1      -8.556   8.931  72.073  1.00  0.00    -0.367 OA 
BRANCH  28  30
HETATM   30  S   UNL     1     -11.035   8.294  71.625  1.00  0.00    -0.284 SA 
HETATM   31  C   UNL     1     -11.257   9.955  70.933  1.00  0.00    -0.360 C  
HETATM   32  F   UNL     1     -12.591  10.211  70.819  1.00  0.00    -0.346 F  
ENDBRANCH  28  30
ENDBRANCH  24  28
TORSDOF 2
ENDMDL
MODEL       95
REMARK 921   NORMALIZED FREE ENERGY PREDICTED BY IDOCK:   -2.97 KCAL/MOL
REMARK 922        TOTAL FREE ENERGY PREDICTED BY IDOCK:   -3.35 KCAL/MOL
REMARK 923 INTER-LIGAND FREE ENERGY PREDICTED BY IDOCK:   -3.27 KCAL/MOL
REMARK 924 INTRA-LIGAND FREE ENERGY PREDICTED BY IDOCK:   -0.09 KCAL/MOL
REMARK 927      BINDING AFFINITY PREDICTED BY RF-SCORE:    0.00 PKD
ROOT
HETATM    1  C   UNL     1      -9.785   7.576  69.837  1.00  0.00    -0.171 C  
HETATM    2  C   UNL     1      -9.029   6.464  69.100  1.00  0.00    -0.129 C  
HETATM    3  C   UNL     1      -7.509   6.464  69.249  1.00  0.00    -0.094 C  
HETATM    4  C   UNL     1      -7.013   7.289  68.069  1.00  0.00    -0.079 C  
HETATM    5  C   UNL     1      -7.244   8.816  68.294  1.00  0.00    -0.082 C  
HETATM    6  C   UNL     1      -6.654   9.290  69.625  1.00  0.00    -0.043 C  
HETATM    7  C   UNL     1      -6.980  10.747  69.823  1.00  0.00    -0.141 C  
HETATM    8  C   UNL     1      -6.184  11.537  68.826  1.00  0.00    -0.051 C  
HETATM    9  F   UNL     1      -8.317  10.920  69.630  1.00  0.00    -0.090 F  
HETATM   10  C   UNL     1      -5.887  12.806  69.185  1.00  0.00    -0.081 C  
HETATM   11  C   UNL     1      -7.095  13.666  68.929  1.00  0.00    -0.102 C  
HETATM   12  O   UNL     1      -7.338  14.636  69.630  1.00  0.00    -0.143 OA 
HETATM   13  C   UNL     1      -7.929  13.312  67.728  1.00  0.00    -0.166 C  
HETATM   14  C   UNL     1      -7.663  12.204  67.001  1.00  0.00    -0.112 C  
HETATM   15  C   UNL     1      -6.525  11.226  67.345  1.00  0.00    -0.080 C  
HETATM   16  C   UNL     1      -5.309  11.669  66.476  1.00  0.00    -0.061 C  
HETATM   17  C   UNL     1      -6.761   9.640  67.085  1.00  0.00    -0.075 C  
HETATM   18  F   UNL     1      -5.515   9.130  66.760  1.00  0.00    -0.037 F  
HETATM   19  C   UNL     1      -7.712   9.231  65.927  1.00  0.00    -0.098 C  
HETATM   20  C   UNL     1      -7.757   7.702  65.665  1.00  0.00    -0.099 C  
HETATM   21  O   UNL     1      -7.342   9.873  64.701  1.00  0.00    -0.129 OA 
HETATM   22  C   UNL     1      -7.835   6.700  66.877  1.00  0.00    -0.108 C  
HETATM   23  H   UNL     1      -7.925   9.623  63.992  1.00  0.00     0.000 HD 
HETATM   24  C   UNL     1      -9.273   6.387  67.541  1.00  0.00    -0.112 C  
HETATM   25  C   UNL     1      -7.181   5.390  66.355  1.00  0.00    -0.077 C  
HETATM   26  H   UNL     1     -10.300   7.371  66.161  1.00  0.00     0.000 HD 
HETATM   27  O   UNL     1     -10.154   7.417  67.098  1.00  0.00    -0.195 OA 
ENDROOT
BRANCH  24  28
HETATM   28  C   UNL     1      -9.933   4.947  67.425  1.00  0.00    -0.168 C  
HETATM   29  O   UNL     1     -10.461   4.484  66.426  1.00  0.00    -0.235 OA 
BRANCH  28  30
HETATM   30  S   UNL     1      -9.630   3.877  68.812  1.00  0.00    -0.056 SA 
HETATM   31  C   UNL     1      -9.085   2.402  67.909  1.00  0.00    -0.184 C  
HETATM   32  F   UNL     1      -8.637   1.477  68.805  1.00  0.00    -0.067 F  
ENDBRANCH  28  30
ENDBRANCH  24  28
TORSDOF 2
ENDMDL
MODEL       96
REMARK 921   NORMALIZED FREE ENERGY PREDICTED BY IDOCK:   -2.36 KCAL/MOL
REMARK 922        TOTAL FREE ENERGY PREDICTED BY IDOCK:   -2.66 KCAL/MOL
REMARK 923 INTER-LIGAND FREE ENERGY PREDICTED BY IDOCK:   -4.14 KCAL/MOL
REMARK 924 INTRA-LIGAND FREE ENERGY PREDICTED BY IDOCK:    1.48 KCAL/MOL
REMARK 927      BINDING AFFINITY PREDICTED BY RF-SCORE:    0.00 PKD
ROOT
HETATM    1  C   UNL     1     -10.280   9.068  71.724  1.00  0.00    -0.389 C  
HETATM    2  C   UNL     1      -9.218   8.187  72.391  1.00  0.00    -0.292 C  
HETATM    3  C   UNL     1      -7.762   8.568  72.133  1.00  0.00    -0.128 C  
HETATM    4  C   UNL     1      -7.365   7.750  70.913  1.00  0.00    -0.065 C  
HETATM    5  C   UNL     1      -7.969   8.340  69.600  1.00  0.00    -0.111 C  
HETATM    6  C   UNL     1      -7.636   9.826  69.440  1.00  0.00    -0.104 C  
HETATM    7  C   UNL     1      -8.313  10.356  68.203  1.00  0.00    -0.117 C  
HETATM    8  C   UNL     1      -7.635   9.749  67.010  1.00  0.00    -0.092 C  
HETATM    9  F   UNL     1      -9.629  10.009  68.249  1.00  0.00    -0.137 F  
HETATM   10  C   UNL     1      -7.680  10.481  65.873  1.00  0.00    -0.148 C  
HETATM   11  C   UNL     1      -9.028  10.279  65.233  1.00  0.00    -0.186 C  
HETATM   12  O   UNL     1      -9.557  11.169  64.586  1.00  0.00    -0.234 OA 
HETATM   13  C   UNL     1      -9.639   8.911  65.371  1.00  0.00     0.010 C  
HETATM   14  C   UNL     1      -9.051   7.963  66.134  1.00  0.00    -0.210 C  
HETATM   15  C   UNL     1      -7.753   8.204  66.925  1.00  0.00    -0.096 C  
HETATM   16  C   UNL     1      -6.599   7.691  66.011  1.00  0.00    -0.046 C  
HETATM   17  C   UNL     1      -7.583   7.491  68.374  1.00  0.00    -0.114 C  
HETATM   18  F   UNL     1      -6.227   7.242  68.506  1.00  0.00    -0.030 F  
HETATM   19  C   UNL     1      -8.298   6.131  68.598  1.00  0.00    -0.114 C  
HETATM   20  C   UNL     1      -7.956   5.461  69.956  1.00  0.00    -0.082 C  
HETATM   21  O   UNL     1      -7.976   5.198  67.559  1.00  0.00    -0.098 OA 
HETATM   22  C   UNL     1      -7.910   6.328  71.269  1.00  0.00    -0.108 C  
HETATM   23  H   UNL     1      -8.414   4.366  67.696  1.00  0.00     0.000 HD 
HETATM   24  C   UNL     1      -9.289   6.646  72.045  1.00  0.00    -0.142 C  
HETATM   25  C   UNL     1      -6.919   5.582  72.206  1.00  0.00    -0.081 C  
HETATM   26  H   UNL     1     -10.385   5.440  70.918  1.00  0.00     0.000 HD 
HETATM   27  O   UNL     1     -10.342   6.366  71.126  1.00  0.00    -0.199 OA 
ENDROOT
BRANCH  24  28
HETATM   28  C   UNL     1      -9.577   6.042  73.485  1.00  0.00    -0.142 C  
HETATM   29  O   UNL     1      -9.622   6.676  74.527  1.00  0.00    -0.244 OA 
BRANCH  28  30
HETATM   30  S   UNL     1     -10.113   4.347  73.486  1.00  0.00    -0.162 SA 
HETATM   31  C   UNL     1     -10.128   4.061  71.696  1.00  0.00    -0.113 C  
HETATM   32  F   UNL     1     -10.365   2.738  71.462  1.00  0.00    -0.171 F  
ENDBRANCH  28  30
ENDBRANCH  24  28
TORSDOF 2
ENDMDL
MODEL       97
REMARK 921   NORMALIZED FREE ENERGY PREDICTED BY IDOCK:   -2.30 KCAL/MOL
REMARK 922        TOTAL FREE ENERGY PREDICTED BY IDOCK:   -2.60 KCAL/MOL
REMARK 923 INTER-LIGAND FREE ENERGY PREDICTED BY IDOCK:   -3.32 KCAL/MOL
REMARK 924 INTRA-LIGAND FREE ENERGY PREDICTED BY IDOCK:    0.72 KCAL/MOL
REMARK 927      BINDING AFFINITY PREDICTED BY RF-SCORE:    0.00 PKD
ROOT
HETATM    1  C   UNL     1      -8.548  11.041  66.836  1.00  0.00    -0.143 C  
HETATM    2  C   UNL     1      -9.066   9.920  65.927  1.00  0.00    -0.201 C  
HETATM    3  C   UNL     1     -10.004   8.903  66.573  1.00  0.00    -0.358 C  
HETATM    4  C   UNL     1      -9.084   7.792  67.057  1.00  0.00    -0.162 C  
HETATM    5  C   UNL     1      -8.307   8.206  68.347  1.00  0.00    -0.126 C  
HETATM    6  C   UNL     1      -9.252   8.700  69.445  1.00  0.00    -0.150 C  
HETATM    7  C   UNL     1      -8.441   9.161  70.628  1.00  0.00    -0.209 C  
HETATM    8  C   UNL     1      -7.823   7.950  71.263  1.00  0.00    -0.088 C  
HETATM    9  F   UNL     1      -7.485  10.024  70.185  1.00  0.00    -0.121 F  
HETATM   10  C   UNL     1      -7.560   8.052  72.586  1.00  0.00    -0.149 C  
HETATM   11  C   UNL     1      -6.276   8.818  72.757  1.00  0.00    -0.030 C  
HETATM   12  O   UNL     1      -6.092   9.529  73.733  1.00  0.00    -0.310 OA 
HETATM   13  C   UNL     1      -5.219   8.599  71.709  1.00  0.00    -0.037 C  
HETATM   14  C   UNL     1      -5.471   7.845  70.617  1.00  0.00    -0.026 C  
HETATM   15  C   UNL     1      -6.834   7.182  70.348  1.00  0.00    -0.057 C  
HETATM   16  C   UNL     1      -6.713   5.728  70.897  1.00  0.00    -0.052 C  
HETATM   17  C   UNL     1      -7.360   7.084  68.815  1.00  0.00    -0.093 C  
HETATM   18  F   UNL     1      -8.105   5.919  68.754  1.00  0.00    -0.098 F  
HETATM   19  C   UNL     1      -6.294   6.977  67.691  1.00  0.00    -0.043 C  
HETATM   20  C   UNL     1      -6.895   6.740  66.279  1.00  0.00    -0.060 C  
HETATM   21  O   UNL     1      -5.368   5.915  67.953  1.00  0.00    -0.004 OA 
HETATM   22  C   UNL     1      -8.160   7.555  65.818  1.00  0.00    -0.127 C  
HETATM   23  H   UNL     1      -4.715   5.850  67.265  1.00  0.00     0.000 HD 
HETATM   24  C   UNL     1      -7.958   9.042  65.221  1.00  0.00    -0.114 C  
HETATM   25  C   UNL     1      -8.866   6.643  64.776  1.00  0.00     0.431 C  
HETATM   26  H   UNL     1      -5.980   8.924  65.176  1.00  0.00     0.000 HD 
HETATM   27  O   UNL     1      -6.646   9.452  65.600  1.00  0.00    -0.068 OA 
ENDROOT
BRANCH  24  28
HETATM   28  C   UNL     1      -8.267   9.361  63.697  1.00  0.00    -0.169 C  
HETATM   29  O   UNL     1      -8.467   8.534  62.822  1.00  0.00    -0.182 OA 
BRANCH  28  30
HETATM   30  S   UNL     1      -8.577  11.077  63.345  1.00  0.00     0.135 SA 
HETATM   31  C   UNL     1     -10.388  11.023  63.288  1.00  0.00    -0.255 C  
HETATM   32  F   UNL     1     -10.864  12.297  63.184  1.00  0.00    -0.457 F  
ENDBRANCH  28  30
ENDBRANCH  24  28
TORSDOF 2
ENDMDL
MODEL       98
REMARK 921   NORMALIZED FREE ENERGY PREDICTED BY IDOCK:   -2.24 KCAL/MOL
REMARK 922        TOTAL FREE ENERGY PREDICTED BY IDOCK:   -2.54 KCAL/MOL
REMARK 923 INTER-LIGAND FREE ENERGY PREDICTED BY IDOCK:   -2.82 KCAL/MOL
REMARK 924 INTRA-LIGAND FREE ENERGY PREDICTED BY IDOCK:    0.28 KCAL/MOL
REMARK 927      BINDING AFFINITY PREDICTED BY RF-SCORE:    0.00 PKD
ROOT
HETATM    1  C   UNL     1      -6.973   6.781  69.336  1.00  0.00    -0.067 C  
HETATM    2  C   UNL     1      -6.057   6.469  68.147  1.00  0.00    -0.028 C  
HETATM    3  C   UNL     1      -5.214   7.628  67.620  1.00  0.00    -0.030 C  
HETATM    4  C   UNL     1      -6.066   8.248  66.522  1.00  0.00    -0.049 C  
HETATM    5  C   UNL     1      -7.238   9.096  67.111  1.00  0.00    -0.086 C  
HETATM    6  C   UNL     1      -6.738  10.134  68.118  1.00  0.00    -0.062 C  
HETATM    7  C   UNL     1      -7.917  10.860  68.711  1.00  0.00    -0.139 C  
HETATM    8  C   UNL     1      -8.514  11.722  67.638  1.00  0.00    -0.149 C  
HETATM    9  F   UNL     1      -8.815   9.937  69.153  1.00  0.00    -0.127 F  
HETATM   10  C   UNL     1      -9.165  12.828  68.067  1.00  0.00    -0.208 C  
HETATM   11  C   UNL     1     -10.538  12.420  68.528  1.00  0.00    -0.231 C  
HETATM   12  O   UNL     1     -11.100  13.013  69.436  1.00  0.00    -0.189 OA 
HETATM   13  C   UNL     1     -11.200  11.304  67.764  1.00  0.00    -0.354 C  
HETATM   14  C   UNL     1     -10.533  10.636  66.798  1.00  0.00    -0.303 C  
HETATM   15  C   UNL     1      -9.071  10.936  66.422  1.00  0.00    -0.188 C  
HETATM   16  C   UNL     1      -9.139  11.919  65.214  1.00  0.00     0.188 C  
HETATM   17  C   UNL     1      -8.110   9.699  65.993  1.00  0.00    -0.112 C  
HETATM   18  F   UNL     1      -7.221  10.224  65.071  1.00  0.00    -0.127 F  
HETATM   19  C   UNL     1      -8.773   8.473  65.308  1.00  0.00    -0.140 C  
HETATM   20  C   UNL     1      -7.757   7.413  64.806  1.00  0.00    -0.114 C  
HETATM   21  O   UNL     1      -9.573   8.874  64.189  1.00  0.00     0.086 OA 
HETATM   22  C   UNL     1      -6.542   6.996  65.716  1.00  0.00    -0.052 C  
HETATM   23  H   UNL     1      -9.979   8.124  63.770  1.00  0.00     0.000 HD 
HETATM   24  C   UNL     1      -6.771   5.885  66.864  1.00  0.00    -0.058 C  
HETATM   25  C   UNL     1      -5.439   6.533  64.724  1.00  0.00    -0.026 C  
HETATM   26  H   UNL     1      -8.611   5.434  66.281  1.00  0.00     0.000 HD 
HETATM   27  O   UNL     1      -8.181   5.784  67.052  1.00  0.00    -0.102 OA 
ENDROOT
BRANCH  24  28
HETATM   28  C   UNL     1      -6.078   4.459  66.774  1.00  0.00    -0.031 C  
HETATM   29  O   UNL     1      -5.140   4.079  67.456  1.00  0.00    -0.009 OA 
BRANCH  28  30
HETATM   30  S   UNL     1      -6.936   3.279  65.758  1.00  0.00    -0.058 SA 
HETATM   31  C   UNL     1      -6.346   3.831  64.135  1.00  0.00    -0.030 C  
HETATM   32  F   UNL     1      -6.764   2.944  63.188  1.00  0.00    -0.024 F  
ENDBRANCH  28  30
ENDBRANCH  24  28
TORSDOF 2
ENDMDL
MODEL       99
REMARK 921   NORMALIZED FREE ENERGY PREDICTED BY IDOCK:   -2.13 KCAL/MOL
REMARK 922        TOTAL FREE ENERGY PREDICTED BY IDOCK:   -2.41 KCAL/MOL
REMARK 923 INTER-LIGAND FREE ENERGY PREDICTED BY IDOCK:   -3.14 KCAL/MOL
REMARK 924 INTRA-LIGAND FREE ENERGY PREDICTED BY IDOCK:    0.73 KCAL/MOL
REMARK 927      BINDING AFFINITY PREDICTED BY RF-SCORE:    0.00 PKD
ROOT
HETATM    1  C   UNL     1      -9.491  13.175  68.083  1.00  0.00    -0.222 C  
HETATM    2  C   UNL     1     -10.978  13.402  68.381  1.00  0.00    -0.291 C  
HETATM    3  C   UNL     1     -11.750  14.246  67.370  1.00  0.00    -0.422 C  
HETATM    4  C   UNL     1     -11.647  15.667  67.906  1.00  0.00    -0.195 C  
HETATM    5  C   UNL     1     -10.234  16.280  67.652  1.00  0.00    -0.272 C  
HETATM    6  C   UNL     1      -9.829  16.182  66.179  1.00  0.00    -0.358 C  
HETATM    7  C   UNL     1      -8.429  16.712  66.013  1.00  0.00    -0.163 C  
HETATM    8  C   UNL     1      -8.468  18.195  66.232  1.00  0.00    -0.213 C  
HETATM    9  F   UNL     1      -7.625  16.102  66.928  1.00  0.00    -0.191 F  
HETATM   10  C   UNL     1      -7.510  18.908  65.596  1.00  0.00    -0.056 C  
HETATM   11  C   UNL     1      -6.236  18.806  66.392  1.00  0.00    -0.181 C  
HETATM   12  O   UNL     1      -5.146  18.830  65.843  1.00  0.00    -0.132 OA 
HETATM   13  C   UNL     1      -6.382  18.751  67.889  1.00  0.00    -0.210 C  
HETATM   14  C   UNL     1      -7.603  18.676  68.465  1.00  0.00    -0.336 C  
HETATM   15  C   UNL     1      -8.912  18.620  67.657  1.00  0.00    -0.291 C  
HETATM   16  C   UNL     1      -9.422  20.090  67.575  1.00  0.00    -0.498 C  
HETATM   17  C   UNL     1     -10.132  17.709  68.220  1.00  0.00    -0.362 C  
HETATM   18  F   UNL     1     -11.290  18.352  67.818  1.00  0.00    -0.234 F  
HETATM   19  C   UNL     1     -10.248  17.528  69.758  1.00  0.00     0.333 C  
HETATM   20  C   UNL     1     -11.526  16.766  70.204  1.00  0.00     0.425 C  
HETATM   21  O   UNL     1     -10.238  18.793  70.431  1.00  0.00     0.475 OA 
HETATM   22  C   UNL     1     -11.987  15.481  69.421  1.00  0.00    -0.358 C  
HETATM   23  H   UNL     1     -10.309  18.682  71.373  1.00  0.00     0.000 HD 
HETATM   24  C   UNL     1     -11.305  14.062  69.778  1.00  0.00    -0.179 C  
HETATM   25  C   UNL     1     -13.525  15.414  69.633  1.00  0.00     1.318 C  
HETATM   26  H   UNL     1     -10.313  14.756  71.347  1.00  0.00     0.000 HD 
HETATM   27  O   UNL     1     -10.116  14.359  70.507  1.00  0.00     0.862 OA 
ENDROOT
BRANCH  24  28
HETATM   28  C   UNL     1     -12.145  12.898  70.456  1.00  0.00    -0.282 C  
HETATM   29  O   UNL     1     -11.890  11.705  70.394  1.00  0.00    -0.343 OA 
BRANCH  28  30
HETATM   30  S   UNL     1     -13.403  13.449  71.587  1.00  0.00    -0.299 SA 
HETATM   31  C   UNL     1     -12.333  14.185  72.852  1.00  0.00     0.086 C  
HETATM   32  F   UNL     1     -13.112  14.829  73.767  1.00  0.00    -0.551 F  
ENDBRANCH  28  30
ENDBRANCH  24  28
TORSDOF 2
ENDMDL
MODEL      100
REMARK 921   NORMALIZED FREE ENERGY PREDICTED BY IDOCK:   -1.71 KCAL/MOL
REMARK 922        TOTAL FREE ENERGY PREDICTED BY IDOCK:   -1.94 KCAL/MOL
REMARK 923 INTER-LIGAND FREE ENERGY PREDICTED BY IDOCK:   -2.76 KCAL/MOL
REMARK 924 INTRA-LIGAND FREE ENERGY PREDICTED BY IDOCK:    0.82 KCAL/MOL
REMARK 927      BINDING AFFINITY PREDICTED BY RF-SCORE:    0.00 PKD
ROOT
HETATM    1  C   UNL     1     -10.215   9.043  71.607  1.00  0.00    -0.418 C  
HETATM    2  C   UNL     1      -9.539   7.675  71.743  1.00  0.00    -0.183 C  
HETATM    3  C   UNL     1      -8.026   7.683  71.943  1.00  0.00    -0.105 C  
HETATM    4  C   UNL     1      -7.456   7.585  70.536  1.00  0.00    -0.080 C  
HETATM    5  C   UNL     1      -7.571   8.941  69.770  1.00  0.00    -0.069 C  
HETATM    6  C   UNL     1      -6.961  10.097  70.567  1.00  0.00    -0.059 C  
HETATM    7  C   UNL     1      -7.176  11.385  69.818  1.00  0.00     0.202 C  
HETATM    8  C   UNL     1      -6.312  11.356  68.592  1.00  0.00    -0.053 C  
HETATM    9  F   UNL     1      -8.494  11.477  69.487  1.00  0.00     0.147 F  
HETATM   10  C   UNL     1      -5.922  12.562  68.119  1.00  0.00    -0.073 C  
HETATM   11  C   UNL     1      -7.058  13.149  67.326  1.00  0.00    -0.020 C  
HETATM   12  O   UNL     1      -7.233  14.357  67.276  1.00  0.00    -0.170 OA 
HETATM   13  C   UNL     1      -7.905  12.180  66.546  1.00  0.00     0.190 C  
HETATM   14  C   UNL     1      -7.716  10.847  66.660  1.00  0.00    -0.146 C  
HETATM   15  C   UNL     1      -6.661  10.223  67.591  1.00  0.00    -0.066 C  
HETATM   16  C   UNL     1      -5.405   9.975  66.701  1.00  0.00    -0.044 C  
HETATM   17  C   UNL     1      -7.014   8.825  68.338  1.00  0.00    -0.066 C  
HETATM   18  F   UNL     1      -5.808   8.157  68.461  1.00  0.00    -0.035 F  
HETATM   19  C   UNL     1      -7.982   7.847  67.619  1.00  0.00    -0.124 C  
HETATM   20  C   UNL     1      -8.141   6.481  68.341  1.00  0.00    -0.111 C  
HETATM   21  O   UNL     1      -7.551   7.583  66.278  1.00  0.00    -0.084 OA 
HETATM   22  C   UNL     1      -8.308   6.436  69.906  1.00  0.00    -0.130 C  
HETATM   23  H   UNL     1      -8.144   6.983  65.838  1.00  0.00     0.000 HD 
HETATM   24  C   UNL     1      -9.772   6.673  70.543  1.00  0.00    -0.176 C  
HETATM   25  C   UNL     1      -7.751   5.047  70.327  1.00  0.00    -0.067 C  
HETATM   26  H   UNL     1     -10.707   6.661  68.795  1.00  0.00     0.000 HD 
HETATM   27  O   UNL     1     -10.567   7.263  69.517  1.00  0.00    -0.225 OA 
ENDROOT
BRANCH  24  28
HETATM   28  C   UNL     1     -10.539   5.501  71.292  1.00  0.00    -0.236 C  
HETATM   29  O   UNL     1     -10.356   4.306  71.121  1.00  0.00    -0.082 OA 
BRANCH  28  30
HETATM   30  S   UNL     1     -11.557   6.029  72.652  1.00  0.00    -0.163 SA 
HETATM   31  C   UNL     1     -12.807   6.952  71.719  1.00  0.00    -0.304 C  
HETATM   32  F   UNL     1     -13.806   7.324  72.569  1.00  0.00    -0.012 F  
ENDBRANCH  28  30
ENDBRANCH  24  28
TORSDOF 2
ENDMDL
MODEL      101
REMARK 921   NORMALIZED FREE ENERGY PREDICTED BY IDOCK:   -1.71 KCAL/MOL
REMARK 922        TOTAL FREE ENERGY PREDICTED BY IDOCK:   -1.94 KCAL/MOL
REMARK 923 INTER-LIGAND FREE ENERGY PREDICTED BY IDOCK:   -2.05 KCAL/MOL
REMARK 924 INTRA-LIGAND FREE ENERGY PREDICTED BY IDOCK:    0.11 KCAL/MOL
REMARK 927      BINDING AFFINITY PREDICTED BY RF-SCORE:    0.00 PKD
ROOT
HETATM    1  C   UNL     1      -8.894  18.151  68.321  1.00  0.00    -0.293 C  
HETATM    2  C   UNL     1      -7.439  17.668  68.338  1.00  0.00    -0.253 C  
HETATM    3  C   UNL     1      -6.892  17.120  67.022  1.00  0.00    -0.228 C  
HETATM    4  C   UNL     1      -7.163  15.624  67.091  1.00  0.00    -0.230 C  
HETATM    5  C   UNL     1      -8.670  15.298  66.842  1.00  0.00    -0.288 C  
HETATM    6  C   UNL     1      -9.178  15.923  65.540  1.00  0.00     0.092 C  
HETATM    7  C   UNL     1     -10.651  15.644  65.397  1.00  0.00    -0.415 C  
HETATM    8  C   UNL     1     -10.819  14.177  65.131  1.00  0.00    -0.380 C  
HETATM    9  F   UNL     1     -11.273  16.007  66.553  1.00  0.00    -0.219 F  
HETATM   10  C   UNL     1     -11.924  13.830  64.432  1.00  0.00    -0.480 C  
HETATM   11  C   UNL     1     -13.096  13.811  65.377  1.00  0.00    -0.164 C  
HETATM   12  O   UNL     1     -14.219  14.096  64.993  1.00  0.00     1.625 OA 
HETATM   13  C   UNL     1     -12.818  13.352  66.783  1.00  0.00     0.691 C  
HETATM   14  C   UNL     1     -11.556  13.090  67.190  1.00  0.00    -0.411 C  
HETATM   15  C   UNL     1     -10.326  13.258  66.280  1.00  0.00    -0.290 C  
HETATM   16  C   UNL     1     -10.053  11.848  65.673  1.00  0.00    -0.274 C  
HETATM   17  C   UNL     1      -8.939  13.784  66.939  1.00  0.00    -0.221 C  
HETATM   18  F   UNL     1      -7.930  13.179  66.208  1.00  0.00     0.352 F  
HETATM   19  C   UNL     1      -8.667  13.432  68.427  1.00  0.00    -0.134 C  
HETATM   20  C   UNL     1      -7.256  13.850  68.921  1.00  0.00    -0.103 C  
HETATM   21  O   UNL     1      -8.812  12.027  68.663  1.00  0.00    -0.330 OA 
HETATM   22  C   UNL     1      -6.673  15.260  68.531  1.00  0.00    -0.112 C  
HETATM   23  H   UNL     1      -8.646  11.811  69.574  1.00  0.00     0.000 HD 
HETATM   24  C   UNL     1      -7.099  16.550  69.402  1.00  0.00    -0.176 C  
HETATM   25  C   UNL     1      -5.130  15.074  68.553  1.00  0.00    -0.102 C  
HETATM   26  H   UNL     1      -8.050  15.498  70.787  1.00  0.00     0.000 HD 
HETATM   27  O   UNL     1      -8.254  16.170  70.147  1.00  0.00     0.736 OA 
ENDROOT
BRANCH  24  28
HETATM   28  C   UNL     1      -6.038  17.320  70.298  1.00  0.00     0.105 C  
HETATM   29  O   UNL     1      -5.686  16.997  71.421  1.00  0.00     0.368 OA 
BRANCH  28  30
HETATM   30  S   UNL     1      -5.143  18.603  69.452  1.00  0.00    -0.189 SA 
HETATM   31  C   UNL     1      -5.961  20.043  70.190  1.00  0.00    -0.338 C  
HETATM   32  F   UNL     1      -5.309  21.173  69.794  1.00  0.00    -0.388 F  
ENDBRANCH  28  30
ENDBRANCH  24  28
TORSDOF 2
ENDMDL
MODEL      102
REMARK 921   NORMALIZED FREE ENERGY PREDICTED BY IDOCK:   -1.39 KCAL/MOL
REMARK 922        TOTAL FREE ENERGY PREDICTED BY IDOCK:   -1.59 KCAL/MOL
REMARK 923 INTER-LIGAND FREE ENERGY PREDICTED BY IDOCK:   -1.78 KCAL/MOL
REMARK 924 INTRA-LIGAND FREE ENERGY PREDICTED BY IDOCK:    0.20 KCAL/MOL
REMARK 927      BINDING AFFINITY PREDICTED BY RF-SCORE:    0.00 PKD
ROOT
HETATM    1  C   UNL     1     -10.947  15.148  70.500  1.00  0.00    -0.267 C  
HETATM    2  C   UNL     1     -10.514  13.770  69.987  1.00  0.00     0.917 C  
HETATM    3  C   UNL     1      -9.011  13.541  69.845  1.00  0.00     2.361 C  
HETATM    4  C   UNL     1      -8.702  13.935  68.408  1.00  0.00    -0.173 C  
HETATM    5  C   UNL     1      -8.695  15.485  68.222  1.00  0.00    -0.170 C  
HETATM    6  C   UNL     1      -7.768  16.173  69.228  1.00  0.00    -0.210 C  
HETATM    7  C   UNL     1      -7.867  17.666  69.054  1.00  0.00    -0.106 C  
HETATM    8  C   UNL     1      -7.230  18.021  67.743  1.00  0.00    -0.211 C  
HETATM    9  F   UNL     1      -9.183  18.016  69.071  1.00  0.00    -0.270 F  
HETATM   10  C   UNL     1      -6.712  19.268  67.661  1.00  0.00    -0.238 C  
HETATM   11  C   UNL     1      -7.837  20.232  67.396  1.00  0.00    -0.326 C  
HETATM   12  O   UNL     1      -7.800  21.376  67.820  1.00  0.00    -0.095 OA 
HETATM   13  C   UNL     1      -8.958  19.733  66.524  1.00  0.00    -0.435 C  
HETATM   14  C   UNL     1      -8.995  18.447  66.110  1.00  0.00    -0.116 C  
HETATM   15  C   UNL     1      -7.932  17.406  66.504  1.00  0.00    -0.317 C  
HETATM   16  C   UNL     1      -6.901  17.390  65.335  1.00  0.00     0.894 C  
HETATM   17  C   UNL     1      -8.405  15.873  66.760  1.00  0.00    -0.271 C  
HETATM   18  F   UNL     1      -7.334  15.086  66.371  1.00  0.00     0.299 F  
HETATM   19  C   UNL     1      -9.635  15.355  65.966  1.00  0.00    -0.347 C  
HETATM   20  C   UNL     1      -9.917  13.841  66.168  1.00  0.00    -0.318 C  
HETATM   21  O   UNL     1      -9.480  15.585  64.560  1.00  0.00     0.317 OA 
HETATM   22  C   UNL     1      -9.836  13.214  67.609  1.00  0.00    -0.219 C  
HETATM   23  H   UNL     1     -10.233  15.268  64.075  1.00  0.00     0.000 HD 
HETATM   24  C   UNL     1     -11.113  13.339  68.590  1.00  0.00    -0.268 C  
HETATM   25  C   UNL     1      -9.476  11.720  67.375  1.00  0.00    -0.174 C  
HETATM   26  H   UNL     1     -12.303  14.101  67.200  1.00  0.00     0.000 HD 
HETATM   27  O   UNL     1     -11.944  14.359  68.040  1.00  0.00    -0.334 OA 
ENDROOT
BRANCH  24  28
HETATM   28  C   UNL     1     -11.946  12.057  69.017  1.00  0.00    -0.264 C  
HETATM   29  O   UNL     1     -12.224  11.114  68.293  1.00  0.00    -0.613 OA 
BRANCH  28  30
HETATM   30  S   UNL     1     -12.260  11.922  70.762  1.00  0.00    -0.187 SA 
HETATM   31  C   UNL     1     -11.820  10.178  70.988  1.00  0.00    -0.383 C  
HETATM   32  F   UNL     1     -11.834   9.887  72.320  1.00  0.00    -0.260 F  
ENDBRANCH  28  30
ENDBRANCH  24  28
TORSDOF 2
ENDMDL
MODEL      103
REMARK 921   NORMALIZED FREE ENERGY PREDICTED BY IDOCK:   -1.34 KCAL/MOL
REMARK 922        TOTAL FREE ENERGY PREDICTED BY IDOCK:   -1.52 KCAL/MOL
REMARK 923 INTER-LIGAND FREE ENERGY PREDICTED BY IDOCK:   -1.75 KCAL/MOL
REMARK 924 INTRA-LIGAND FREE ENERGY PREDICTED BY IDOCK:    0.23 KCAL/MOL
REMARK 927      BINDING AFFINITY PREDICTED BY RF-SCORE:    0.00 PKD
ROOT
HETATM    1  C   UNL     1     -10.524   8.768  66.820  1.00  0.00    -0.283 C  
HETATM    2  C   UNL     1      -9.669   7.817  67.665  1.00  0.00    -0.193 C  
HETATM    3  C   UNL     1      -9.609   8.109  69.162  1.00  0.00    -0.157 C  
HETATM    4  C   UNL     1      -8.389   9.005  69.325  1.00  0.00    -0.122 C  
HETATM    5  C   UNL     1      -8.674  10.462  68.841  1.00  0.00    -0.157 C  
HETATM    6  C   UNL     1      -9.921  11.048  69.507  1.00  0.00     0.074 C  
HETATM    7  C   UNL     1     -10.190  12.417  68.940  1.00  0.00    -0.004 C  
HETATM    8  C   UNL     1      -9.110  13.338  69.426  1.00  0.00     1.116 C  
HETATM    9  F   UNL     1     -10.185  12.330  67.580  1.00  0.00    -0.194 F  
HETATM   10  C   UNL     1      -9.450  14.643  69.522  1.00  0.00     0.167 C  
HETATM   11  C   UNL     1      -9.378  15.254  68.148  1.00  0.00    -0.198 C  
HETATM   12  O   UNL     1     -10.125  16.164  67.824  1.00  0.00    -0.241 OA 
HETATM   13  C   UNL     1      -8.296  14.738  67.240  1.00  0.00    -0.234 C  
HETATM   14  C   UNL     1      -7.517  13.698  67.610  1.00  0.00    -0.191 C  
HETATM   15  C   UNL     1      -7.683  12.957  68.949  1.00  0.00     0.096 C  
HETATM   16  C   UNL     1      -6.665  13.619  69.927  1.00  0.00     0.113 C  
HETATM   17  C   UNL     1      -7.426  11.354  68.986  1.00  0.00    -0.093 C  
HETATM   18  F   UNL     1      -6.925  11.089  70.250  1.00  0.00    -0.145 F  
HETATM   19  C   UNL     1      -6.402  10.763  67.980  1.00  0.00    -0.058 C  
HETATM   20  C   UNL     1      -6.118   9.251  68.192  1.00  0.00    -0.053 C  
HETATM   21  O   UNL     1      -5.149  11.455  68.048  1.00  0.00    -0.043 OA 
HETATM   22  C   UNL     1      -7.309   8.261  68.474  1.00  0.00    -0.093 C  
HETATM   23  H   UNL     1      -4.522  11.093  67.432  1.00  0.00     0.000 HD 
HETATM   24  C   UNL     1      -8.156   7.683  67.228  1.00  0.00    -0.119 C  
HETATM   25  C   UNL     1      -6.677   7.098  69.287  1.00  0.00    -0.049 C  
HETATM   26  H   UNL     1      -6.949   8.443  65.851  1.00  0.00     0.000 HD 
HETATM   27  O   UNL     1      -7.859   8.523  66.114  1.00  0.00    -0.094 OA 
ENDROOT
BRANCH  24  28
HETATM   28  C   UNL     1      -8.103   6.143  66.845  1.00  0.00    -0.109 C  
HETATM   29  O   UNL     1      -7.996   5.217  67.632  1.00  0.00    -0.098 OA 
BRANCH  28  30
HETATM   30  S   UNL     1      -8.481   5.786  65.144  1.00  0.00    -0.109 SA 
HETATM   31  C   UNL     1      -9.221   4.146  65.364  1.00  0.00    -0.151 C  
HETATM   32  F   UNL     1      -9.744   3.734  64.174  1.00  0.00    -0.132 F  
ENDBRANCH  28  30
ENDBRANCH  24  28
TORSDOF 2
ENDMDL
MODEL      104
REMARK 921   NORMALIZED FREE ENERGY PREDICTED BY IDOCK:   -1.02 KCAL/MOL
REMARK 922        TOTAL FREE ENERGY PREDICTED BY IDOCK:   -1.17 KCAL/MOL
REMARK 923 INTER-LIGAND FREE ENERGY PREDICTED BY IDOCK:   -1.08 KCAL/MOL
REMARK 924 INTRA-LIGAND FREE ENERGY PREDICTED BY IDOCK:   -0.09 KCAL/MOL
REMARK 927      BINDING AFFINITY PREDICTED BY RF-SCORE:    0.00 PKD
ROOT
HETATM    1  C   UNL     1     -10.120   4.738  66.435  1.00  0.00    -0.291 C  
HETATM    2  C   UNL     1      -8.807   4.249  65.814  1.00  0.00    -0.121 C  
HETATM    3  C   UNL     1      -8.388   2.820  66.153  1.00  0.00    -0.091 C  
HETATM    4  C   UNL     1      -7.502   2.966  67.382  1.00  0.00    -0.061 C  
HETATM    5  C   UNL     1      -8.340   3.248  68.669  1.00  0.00    -0.091 C  
HETATM    6  C   UNL     1      -9.444   2.206  68.866  1.00  0.00    -0.168 C  
HETATM    7  C   UNL     1     -10.267   2.576  70.072  1.00  0.00     1.199 C  
HETATM    8  C   UNL     1      -9.418   2.372  71.291  1.00  0.00    -0.218 C  
HETATM    9  F   UNL     1     -10.647   3.879  69.951  1.00  0.00     0.315 F  
HETATM   10  C   UNL     1     -10.087   2.093  72.433  1.00  0.00    -0.227 C  
HETATM   11  C   UNL     1     -10.618   3.383  72.998  1.00  0.00    -0.152 C  
HETATM   12  O   UNL     1     -11.664   3.412  73.628  1.00  0.00    -0.100 OA 
HETATM   13  C   UNL     1      -9.758   4.603  72.810  1.00  0.00    -0.176 C  
HETATM   14  C   UNL     1      -8.631   4.549  72.067  1.00  0.00    -0.120 C  
HETATM   15  C   UNL     1      -8.156   3.273  71.350  1.00  0.00    -0.061 C  
HETATM   16  C   UNL     1      -7.137   2.598  72.318  1.00  0.00    -0.034 C  
HETATM   17  C   UNL     1      -7.434   3.419  69.903  1.00  0.00    -0.044 C  
HETATM   18  F   UNL     1      -6.520   2.381  69.839  1.00  0.00    -0.026 F  
HETATM   19  C   UNL     1      -6.633   4.720  69.623  1.00  0.00    -0.036 C  
HETATM   20  C   UNL     1      -5.860   4.701  68.276  1.00  0.00    -0.025 C  
HETATM   21  O   UNL     1      -5.684   4.979  70.666  1.00  0.00    -0.015 OA 
HETATM   22  C   UNL     1      -6.558   4.146  66.979  1.00  0.00    -0.046 C  
HETATM   23  H   UNL     1      -5.194   5.775  70.494  1.00  0.00     0.000 HD 
HETATM   24  C   UNL     1      -7.529   5.121  66.135  1.00  0.00    -0.086 C  
HETATM   25  C   UNL     1      -5.393   3.634  66.087  1.00  0.00    -0.013 C  
HETATM   26  H   UNL     1      -7.077   6.740  67.187  1.00  0.00     0.000 HD 
HETATM   27  O   UNL     1      -7.845   6.215  66.993  1.00  0.00    -0.099 OA 
ENDROOT
BRANCH  24  28
HETATM   28  C   UNL     1      -7.136   5.604  64.674  1.00  0.00    -0.057 C  
HETATM   29  O   UNL     1      -7.828   5.486  63.675  1.00  0.00    -0.083 OA 
BRANCH  28  30
HETATM   30  S   UNL     1      -5.670   6.607  64.592  1.00  0.00    -0.031 SA 
HETATM   31  C   UNL     1      -6.451   8.209  64.260  1.00  0.00    -0.066 C  
HETATM   32  F   UNL     1      -5.499   9.184  64.316  1.00  0.00    -0.056 F  
ENDBRANCH  28  30
ENDBRANCH  24  28
TORSDOF 2
ENDMDL
MODEL      105
REMARK 921   NORMALIZED FREE ENERGY PREDICTED BY IDOCK:   -0.79 KCAL/MOL
REMARK 922        TOTAL FREE ENERGY PREDICTED BY IDOCK:   -0.92 KCAL/MOL
REMARK 923 INTER-LIGAND FREE ENERGY PREDICTED BY IDOCK:   -1.50 KCAL/MOL
REMARK 924 INTRA-LIGAND FREE ENERGY PREDICTED BY IDOCK:    0.58 KCAL/MOL
REMARK 927      BINDING AFFINITY PREDICTED BY RF-SCORE:    0.00 PKD
ROOT
HETATM    1  C   UNL     1     -12.028  15.896  67.897  1.00  0.00     0.337 C  
HETATM    2  C   UNL     1     -11.618  14.792  68.878  1.00  0.00    -0.340 C  
HETATM    3  C   UNL     1     -10.776  15.227  70.075  1.00  0.00    -0.297 C  
HETATM    4  C   UNL     1      -9.337  15.053  69.611  1.00  0.00    -0.012 C  
HETATM    5  C   UNL     1      -8.905  16.188  68.630  1.00  0.00    -0.218 C  
HETATM    6  C   UNL     1      -9.163  17.576  69.219  1.00  0.00     0.187 C  
HETATM    7  C   UNL     1      -8.805  18.624  68.198  1.00  0.00    -0.311 C  
HETATM    8  C   UNL     1      -7.313  18.621  68.038  1.00  0.00    -0.265 C  
HETATM    9  F   UNL     1      -9.425  18.313  67.026  1.00  0.00    -0.255 F  
HETATM   10  C   UNL     1      -6.763  19.793  67.646  1.00  0.00    -0.268 C  
HETATM   11  C   UNL     1      -6.940  19.926  66.158  1.00  0.00    -0.252 C  
HETATM   12  O   UNL     1      -7.079  21.021  65.635  1.00  0.00     0.067 OA 
HETATM   13  C   UNL     1      -6.860  18.655  65.355  1.00  0.00    -0.179 C  
HETATM   14  C   UNL     1      -6.755  17.455  65.967  1.00  0.00    -0.199 C  
HETATM   15  C   UNL     1      -6.731  17.289  67.496  1.00  0.00    -0.168 C  
HETATM   16  C   UNL     1      -5.225  17.235  67.894  1.00  0.00    -0.120 C  
HETATM   17  C   UNL     1      -7.455  15.989  68.147  1.00  0.00    -0.128 C  
HETATM   18  F   UNL     1      -6.723  15.687  69.282  1.00  0.00    -0.120 F  
HETATM   19  C   UNL     1      -7.500  14.687  67.300  1.00  0.00    -0.117 C  
HETATM   20  C   UNL     1      -8.079  13.465  68.062  1.00  0.00    -0.160 C  
HETATM   21  O   UNL     1      -6.194  14.329  66.831  1.00  0.00    -0.030 OA 
HETATM   22  C   UNL     1      -9.364  13.633  68.955  1.00  0.00     0.275 C  
HETATM   23  H   UNL     1      -6.221  13.533  66.313  1.00  0.00     0.000 HD 
HETATM   24  C   UNL     1     -10.817  13.581  68.252  1.00  0.00    -0.259 C  
HETATM   25  C   UNL     1      -9.246  12.527  70.040  1.00  0.00     3.492 C  
HETATM   26  H   UNL     1     -10.113  13.041  66.480  1.00  0.00     0.000 HD 
HETATM   27  O   UNL     1     -10.595  13.768  66.856  1.00  0.00    -0.273 OA 
ENDROOT
BRANCH  24  28
HETATM   28  C   UNL     1     -11.825  12.389  68.542  1.00  0.00    -0.304 C  
HETATM   29  O   UNL     1     -12.155  11.526  67.745  1.00  0.00    -0.626 OA 
BRANCH  28  30
HETATM   30  S   UNL     1     -12.285  12.203  70.250  1.00  0.00    -0.198 SA 
HETATM   31  C   UNL     1     -11.961  10.429  70.431  1.00  0.00    -0.320 C  
HETATM   32  F   UNL     1     -12.099  10.087  71.744  1.00  0.00    -0.435 F  
ENDBRANCH  28  30
ENDBRANCH  24  28
TORSDOF 2
ENDMDL
MODEL      106
REMARK 921   NORMALIZED FREE ENERGY PREDICTED BY IDOCK:   -0.21 KCAL/MOL
REMARK 922        TOTAL FREE ENERGY PREDICTED BY IDOCK:   -0.27 KCAL/MOL
REMARK 923 INTER-LIGAND FREE ENERGY PREDICTED BY IDOCK:   -1.42 KCAL/MOL
REMARK 924 INTRA-LIGAND FREE ENERGY PREDICTED BY IDOCK:    1.15 KCAL/MOL
REMARK 927      BINDING AFFINITY PREDICTED BY RF-SCORE:    0.00 PKD
ROOT
HETATM    1  C   UNL     1     -11.279   9.364  67.736  1.00  0.00     0.230 C  
HETATM    2  C   UNL     1      -9.773   9.186  67.516  1.00  0.00    -0.204 C  
HETATM    3  C   UNL     1      -8.867   9.578  68.680  1.00  0.00    -0.132 C  
HETATM    4  C   UNL     1      -8.515  11.034  68.414  1.00  0.00    -0.144 C  
HETATM    5  C   UNL     1      -9.706  11.987  68.749  1.00  0.00    -0.029 C  
HETATM    6  C   UNL     1     -10.229  11.764  70.170  1.00  0.00     1.888 C  
HETATM    7  C   UNL     1     -11.425  12.649  70.403  1.00  0.00     0.388 C  
HETATM    8  C   UNL     1     -10.944  14.069  70.463  1.00  0.00     0.592 C  
HETATM    9  F   UNL     1     -12.301  12.471  69.376  1.00  0.00    -0.265 F  
HETATM   10  C   UNL     1     -11.700  14.914  71.200  1.00  0.00    -0.377 C  
HETATM   11  C   UNL     1     -12.886  15.333  70.374  1.00  0.00    -0.317 C  
HETATM   12  O   UNL     1     -13.960  15.586  70.897  1.00  0.00    -0.489 OA 
HETATM   13  C   UNL     1     -12.652  15.493  68.896  1.00  0.00     0.443 C  
HETATM   14  C   UNL     1     -11.467  15.158  68.341  1.00  0.00    -0.347 C  
HETATM   15  C   UNL     1     -10.293  14.579  69.150  1.00  0.00    -0.197 C  
HETATM   16  C   UNL     1      -9.387  15.794  69.513  1.00  0.00    -0.238 C  
HETATM   17  C   UNL     1      -9.349  13.456  68.452  1.00  0.00    -0.165 C  
HETATM   18  F   UNL     1      -8.088  13.648  68.990  1.00  0.00    -0.086 F  
HETATM   19  C   UNL     1      -9.177  13.514  66.910  1.00  0.00    -0.249 C  
HETATM   20  C   UNL     1      -8.144  12.495  66.357  1.00  0.00     0.423 C  
HETATM   21  O   UNL     1      -8.772  14.821  66.482  1.00  0.00    -0.405 OA 
HETATM   22  C   UNL     1      -8.133  11.017  66.898  1.00  0.00    -0.142 C  
HETATM   23  H   UNL     1      -8.667  14.856  65.538  1.00  0.00     0.000 HD 
HETATM   24  C   UNL     1      -9.167   9.948  66.271  1.00  0.00    -0.168 C  
HETATM   25  C   UNL     1      -6.669  10.533  66.708  1.00  0.00    -0.091 C  
HETATM   26  H   UNL     1      -9.799  11.162  64.838  1.00  0.00     0.000 HD 
HETATM   27  O   UNL     1     -10.163  10.704  65.586  1.00  0.00    -0.255 OA 
ENDROOT
BRANCH  24  28
HETATM   28  C   UNL     1      -8.651   8.720  65.406  1.00  0.00    -0.178 C  
HETATM   29  O   UNL     1      -8.697   7.546  65.738  1.00  0.00    -0.155 OA 
BRANCH  28  30
HETATM   30  S   UNL     1      -8.210   9.123  63.731  1.00  0.00    -0.181 SA 
HETATM   31  C   UNL     1      -9.189  10.637  63.545  1.00  0.00    -0.262 C  
HETATM   32  F   UNL     1      -8.873  11.224  62.355  1.00  0.00    -0.311 F  
ENDBRANCH  28  30
ENDBRANCH  24  28
TORSDOF 2
ENDMDL
MODEL      107
REMARK 921   NORMALIZED FREE ENERGY PREDICTED BY IDOCK:    0.31 KCAL/MOL
REMARK 922        TOTAL FREE ENERGY PREDICTED BY IDOCK:    0.31 KCAL/MOL
REMARK 923 INTER-LIGAND FREE ENERGY PREDICTED BY IDOCK:    0.61 KCAL/MOL
REMARK 924 INTRA-LIGAND FREE ENERGY PREDICTED BY IDOCK:   -0.30 KCAL/MOL
REMARK 927      BINDING AFFINITY PREDICTED BY RF-SCORE:    0.00 PKD
ROOT
HETATM    1  C   UNL     1     -11.294   4.863  67.379  1.00  0.00     2.497 C  
HETATM    2  C   UNL     1     -10.139   4.205  68.142  1.00  0.00     0.125 C  
HETATM    3  C   UNL     1      -9.962   4.627  69.599  1.00  0.00    -0.281 C  
HETATM    4  C   UNL     1      -8.979   5.788  69.542  1.00  0.00    -0.130 C  
HETATM    5  C   UNL     1      -9.659   7.096  69.028  1.00  0.00    -0.146 C  
HETATM    6  C   UNL     1     -10.916   7.436  69.832  1.00  0.00    -0.239 C  
HETATM    7  C   UNL     1     -11.570   8.656  69.238  1.00  0.00     0.796 C  
HETATM    8  C   UNL     1     -10.687   9.836  69.519  1.00  0.00    -0.255 C  
HETATM    9  F   UNL     1     -11.715   8.460  67.899  1.00  0.00     0.776 F  
HETATM   10  C   UNL     1     -11.312  11.033  69.595  1.00  0.00    -0.363 C  
HETATM   11  C   UNL     1     -11.559  11.528  68.195  1.00  0.00    -0.308 C  
HETATM   12  O   UNL     1     -12.535  12.214  67.933  1.00  0.00    -0.094 OA 
HETATM   13  C   UNL     1     -10.508  11.198  67.171  1.00  0.00    -0.270 C  
HETATM   14  C   UNL     1      -9.465  10.396  67.480  1.00  0.00    -0.167 C  
HETATM   15  C   UNL     1      -9.282   9.752  68.866  1.00  0.00    -0.155 C  
HETATM   16  C   UNL     1      -8.335  10.707  69.655  1.00  0.00     0.075 C  
HETATM   17  C   UNL     1      -8.650   8.258  68.949  1.00  0.00    -0.132 C  
HETATM   18  F   UNL     1      -7.946   8.220  70.141  1.00  0.00    -0.095 F  
HETATM   19  C   UNL     1      -7.649   7.834  67.841  1.00  0.00    -0.116 C  
HETATM   20  C   UNL     1      -6.991   6.450  68.088  1.00  0.00    -0.080 C  
HETATM   21  O   UNL     1      -6.597   8.796  67.696  1.00  0.00    -0.060 OA 
HETATM   22  C   UNL     1      -7.868   5.241  68.586  1.00  0.00    -0.086 C  
HETATM   23  H   UNL     1      -5.985   8.537  67.017  1.00  0.00     0.000 HD 
HETATM   24  C   UNL     1      -8.704   4.384  67.503  1.00  0.00    -0.105 C  
HETATM   25  C   UNL     1      -6.882   4.324  69.361  1.00  0.00    -0.046 C  
HETATM   26  H   UNL     1      -7.893   5.281  65.933  1.00  0.00     0.000 HD 
HETATM   27  O   UNL     1      -8.756   5.174  66.317  1.00  0.00    -0.116 OA 
ENDROOT
BRANCH  24  28
HETATM   28  C   UNL     1      -8.336   2.870  67.197  1.00  0.00    -0.091 C  
HETATM   29  O   UNL     1      -8.715   1.902  67.836  1.00  0.00    -0.078 OA 
BRANCH  28  30
HETATM   30  S   UNL     1      -7.508   2.606  65.645  1.00  0.00    -0.073 SA 
HETATM   31  C   UNL     1      -8.820   1.699  64.784  1.00  0.00    -0.108 C  
HETATM   32  F   UNL     1      -8.455   1.525  63.481  1.00  0.00    -0.066 F  
ENDBRANCH  28  30
ENDBRANCH  24  28
TORSDOF 2
ENDMDL
MODEL      108
REMARK 921   NORMALIZED FREE ENERGY PREDICTED BY IDOCK:    1.49 KCAL/MOL
REMARK 922        TOTAL FREE ENERGY PREDICTED BY IDOCK:    1.63 KCAL/MOL
REMARK 923 INTER-LIGAND FREE ENERGY PREDICTED BY IDOCK:    1.59 KCAL/MOL
REMARK 924 INTRA-LIGAND FREE ENERGY PREDICTED BY IDOCK:    0.04 KCAL/MOL
REMARK 927      BINDING AFFINITY PREDICTED BY RF-SCORE:    0.00 PKD
ROOT
HETATM    1  C   UNL     1     -12.532  15.496  67.593  1.00  0.00     1.199 C  
HETATM    2  C   UNL     1     -11.415  16.094  68.456  1.00  0.00    -0.324 C  
HETATM    3  C   UNL     1     -10.136  16.497  67.726  1.00  0.00    -0.264 C  
HETATM    4  C   UNL     1      -9.247  15.265  67.809  1.00  0.00    -0.187 C  
HETATM    5  C   UNL     1      -9.709  14.151  66.817  1.00  0.00    -0.283 C  
HETATM    6  C   UNL     1      -9.839  14.681  65.387  1.00  0.00    -0.280 C  
HETATM    7  C   UNL     1     -10.366  13.587  64.497  1.00  0.00    -0.358 C  
HETATM    8  C   UNL     1      -9.290  12.551  64.354  1.00  0.00     0.539 C  
HETATM    9  F   UNL     1     -11.480  13.059  65.075  1.00  0.00    -0.316 F  
HETATM   10  C   UNL     1      -9.319  11.828  63.211  1.00  0.00    -0.092 C  
HETATM   11  C   UNL     1     -10.361  10.751  63.358  1.00  0.00    -0.129 C  
HETATM   12  O   UNL     1     -10.993  10.351  62.393  1.00  0.00     1.466 OA 
HETATM   13  C   UNL     1     -10.520  10.153  64.730  1.00  0.00     0.256 C  
HETATM   14  C   UNL     1      -9.841  10.652  65.787  1.00  0.00    -0.296 C  
HETATM   15  C   UNL     1      -8.890  11.857  65.683  1.00  0.00     0.191 C  
HETATM   16  C   UNL     1      -7.464  11.255  65.492  1.00  0.00     0.454 C  
HETATM   17  C   UNL     1      -8.818  12.898  66.926  1.00  0.00    -0.187 C  
HETATM   18  F   UNL     1      -7.516  13.369  66.941  1.00  0.00    -0.074 F  
HETATM   19  C   UNL     1      -9.095  12.344  68.350  1.00  0.00    -0.141 C  
HETATM   20  C   UNL     1      -8.859  13.380  69.482  1.00  0.00     1.360 C  
HETATM   21  O   UNL     1      -8.277  11.201  68.629  1.00  0.00    -0.141 OA 
HETATM   22  C   UNL     1      -9.375  14.858  69.313  1.00  0.00    -0.106 C  
HETATM   23  H   UNL     1      -8.447  10.861  69.501  1.00  0.00     0.000 HD 
HETATM   24  C   UNL     1     -10.917  15.192  69.654  1.00  0.00    -0.281 C  
HETATM   25  C   UNL     1      -8.425  15.716  70.195  1.00  0.00     0.733 C  
HETATM   26  H   UNL     1     -11.302  13.399  70.406  1.00  0.00     0.000 HD 
HETATM   27  O   UNL     1     -11.602  13.941  69.686  1.00  0.00    -0.268 OA 
ENDROOT
BRANCH  24  28
HETATM   28  C   UNL     1     -11.301  16.114  70.888  1.00  0.00    -0.359 C  
HETATM   29  O   UNL     1     -10.855  17.229  71.110  1.00  0.00     0.804 OA 
BRANCH  28  30
HETATM   30  S   UNL     1     -12.677  15.531  71.853  1.00  0.00    -0.451 SA 
HETATM   31  C   UNL     1     -12.209  16.239  73.455  1.00  0.00    -0.516 C  
HETATM   32  F   UNL     1     -13.231  16.046  74.337  1.00  0.00    -0.363 F  
ENDBRANCH  28  30
ENDBRANCH  24  28
TORSDOF 2
ENDMDL
MODEL      109
REMARK 921   NORMALIZED FREE ENERGY PREDICTED BY IDOCK:    2.38 KCAL/MOL
REMARK 922        TOTAL FREE ENERGY PREDICTED BY IDOCK:    2.62 KCAL/MOL
REMARK 923 INTER-LIGAND FREE ENERGY PREDICTED BY IDOCK:    2.49 KCAL/MOL
REMARK 924 INTRA-LIGAND FREE ENERGY PREDICTED BY IDOCK:    0.13 KCAL/MOL
REMARK 927      BINDING AFFINITY PREDICTED BY RF-SCORE:    0.00 PKD
ROOT
HETATM    1  C   UNL     1      -6.983  14.302  66.056  1.00  0.00     5.309 C  
HETATM    2  C   UNL     1      -7.218  14.889  67.452  1.00  0.00    -0.213 C  
HETATM    3  C   UNL     1      -6.684  14.075  68.629  1.00  0.00    -0.096 C  
HETATM    4  C   UNL     1      -7.852  13.190  69.039  1.00  0.00     0.233 C  
HETATM    5  C   UNL     1      -8.057  12.005  68.044  1.00  0.00    -0.153 C  
HETATM    6  C   UNL     1      -6.767  11.208  67.836  1.00  0.00    -0.063 C  
HETATM    7  C   UNL     1      -7.006  10.135  66.806  1.00  0.00    -0.091 C  
HETATM    8  C   UNL     1      -7.917   9.109  67.413  1.00  0.00    -0.103 C  
HETATM    9  F   UNL     1      -7.575  10.708  65.709  1.00  0.00    -0.139 F  
HETATM   10  C   UNL     1      -7.799   7.854  66.921  1.00  0.00    -0.104 C  
HETATM   11  C   UNL     1      -8.554   7.782  65.621  1.00  0.00    -0.127 C  
HETATM   12  O   UNL     1      -8.186   7.046  64.719  1.00  0.00    -0.121 OA 
HETATM   13  C   UNL     1      -9.814   8.601  65.530  1.00  0.00     0.369 C  
HETATM   14  C   UNL     1     -10.167   9.443  66.526  1.00  0.00    -0.308 C  
HETATM   15  C   UNL     1      -9.321   9.647  67.795  1.00  0.00    -0.142 C  
HETATM   16  C   UNL     1      -9.922   8.684  68.864  1.00  0.00    -0.197 C  
HETATM   17  C   UNL     1      -9.257  11.130  68.454  1.00  0.00    -0.175 C  
HETATM   18  F   UNL     1      -9.117  10.923  69.816  1.00  0.00    -0.012 F  
HETATM   19  C   UNL     1     -10.493  12.053  68.279  1.00  0.00    -0.204 C  
HETATM   20  C   UNL     1     -10.394  13.387  69.066  1.00  0.00    -0.004 C  
HETATM   21  O   UNL     1     -11.696  11.392  68.692  1.00  0.00    -0.295 OA 
HETATM   22  C   UNL     1      -9.046  14.199  69.067  1.00  0.00     0.105 C  
HETATM   23  H   UNL     1     -12.453  11.957  68.585  1.00  0.00     0.000 HD 
HETATM   24  C   UNL     1      -8.725  15.183  67.828  1.00  0.00    -0.166 C  
HETATM   25  C   UNL     1      -9.059  14.995  70.402  1.00  0.00     1.027 C  
HETATM   26  H   UNL     1     -10.514  14.981  67.000  1.00  0.00     0.000 HD 
HETATM   27  O   UNL     1      -9.609  14.805  66.775  1.00  0.00    -0.233 OA 
ENDROOT
BRANCH  24  28
HETATM   28  C   UNL     1      -8.670  16.757  68.025  1.00  0.00    -0.212 C  
HETATM   29  O   UNL     1      -8.135  17.341  68.955  1.00  0.00    -0.257 OA 
BRANCH  28  30
HETATM   30  S   UNL     1      -9.229  17.702  66.626  1.00  0.00    -0.273 SA 
HETATM   31  C   UNL     1     -10.135  18.998  67.512  1.00  0.00    -0.373 C  
HETATM   32  F   UNL     1     -10.528  19.951  66.620  1.00  0.00    -0.492 F  
ENDBRANCH  28  30
ENDBRANCH  24  28
TORSDOF 2
ENDMDL
MODEL      110
REMARK 921   NORMALIZED FREE ENERGY PREDICTED BY IDOCK:    2.47 KCAL/MOL
REMARK 922        TOTAL FREE ENERGY PREDICTED BY IDOCK:    2.73 KCAL/MOL
REMARK 923 INTER-LIGAND FREE ENERGY PREDICTED BY IDOCK:    3.05 KCAL/MOL
REMARK 924 INTRA-LIGAND FREE ENERGY PREDICTED BY IDOCK:   -0.32 KCAL/MOL
REMARK 927      BINDING AFFINITY PREDICTED BY RF-SCORE:    0.00 PKD
ROOT
HETATM    1  C   UNL     1      -6.334  10.760  69.181  1.00  0.00    -0.055 C  
HETATM    2  C   UNL     1      -7.326  10.402  68.069  1.00  0.00    -0.085 C  
HETATM    3  C   UNL     1      -7.254  11.245  66.798  1.00  0.00    -0.142 C  
HETATM    4  C   UNL     1      -8.252  12.370  67.032  1.00  0.00    -0.141 C  
HETATM    5  C   UNL     1      -7.696  13.440  68.023  1.00  0.00    -0.147 C  
HETATM    6  C   UNL     1      -6.324  13.960  67.586  1.00  0.00    -0.140 C  
HETATM    7  C   UNL     1      -5.805  14.923  68.621  1.00  0.00    -0.090 C  
HETATM    8  C   UNL     1      -6.647  16.163  68.561  1.00  0.00    -0.122 C  
HETATM    9  F   UNL     1      -5.892  14.331  69.845  1.00  0.00    -0.097 F  
HETATM   10  C   UNL     1      -6.040  17.306  68.956  1.00  0.00    -0.199 C  
HETATM   11  C   UNL     1      -6.049  17.351  70.460  1.00  0.00     0.418 C  
HETATM   12  O   UNL     1      -5.146  17.892  71.080  1.00  0.00    -0.307 OA 
HETATM   13  C   UNL     1      -7.257  16.768  71.143  1.00  0.00     4.528 C  
HETATM   14  C   UNL     1      -8.215  16.133  70.433  1.00  0.00     2.036 C  
HETATM   15  C   UNL     1      -8.143  15.938  68.908  1.00  0.00    -0.214 C  
HETATM   16  C   UNL     1      -8.954  17.118  68.291  1.00  0.00    -0.248 C  
HETATM   17  C   UNL     1      -8.723  14.561  68.273  1.00  0.00    -0.173 C  
HETATM   18  F   UNL     1      -9.208  14.906  67.022  1.00  0.00    -0.196 F  
HETATM   19  C   UNL     1      -9.894  13.861  69.014  1.00  0.00     0.059 C  
HETATM   20  C   UNL     1     -10.475  12.638  68.254  1.00  0.00    -0.249 C  
HETATM   21  O   UNL     1     -10.972  14.773  69.259  1.00  0.00    -0.244 OA 
HETATM   22  C   UNL     1      -9.502  11.603  67.574  1.00  0.00    -0.173 C  
HETATM   23  H   UNL     1     -11.689  14.345  69.713  1.00  0.00     0.000 HD 
HETATM   24  C   UNL     1      -8.853  10.433  68.476  1.00  0.00    -0.142 C  
HETATM   25  C   UNL     1     -10.322  10.995  66.402  1.00  0.00    -0.302 C  
HETATM   26  H   UNL     1      -9.940  10.848  70.080  1.00  0.00     0.000 HD 
HETATM   27  O   UNL     1      -9.023  10.830  69.835  1.00  0.00     0.271 OA 
ENDROOT
BRANCH  24  28
HETATM   28  C   UNL     1      -9.242   8.911  68.247  1.00  0.00    -0.140 C  
HETATM   29  O   UNL     1      -8.549   8.075  67.688  1.00  0.00    -0.129 OA 
BRANCH  28  30
HETATM   30  S   UNL     1     -10.704   8.379  69.108  1.00  0.00    -0.034 SA 
HETATM   31  C   UNL     1     -10.139   6.734  69.620  1.00  0.00    -0.183 C  
HETATM   32  F   UNL     1     -11.069   6.188  70.455  1.00  0.00    -0.312 F  
ENDBRANCH  28  30
ENDBRANCH  24  28
TORSDOF 2
ENDMDL
MODEL      111
REMARK 921   NORMALIZED FREE ENERGY PREDICTED BY IDOCK:    3.75 KCAL/MOL
REMARK 922        TOTAL FREE ENERGY PREDICTED BY IDOCK:    4.16 KCAL/MOL
REMARK 923 INTER-LIGAND FREE ENERGY PREDICTED BY IDOCK:    4.40 KCAL/MOL
REMARK 924 INTRA-LIGAND FREE ENERGY PREDICTED BY IDOCK:   -0.24 KCAL/MOL
REMARK 927      BINDING AFFINITY PREDICTED BY RF-SCORE:    0.00 PKD
ROOT
HETATM    1  C   UNL     1      -9.038  17.600  68.812  1.00  0.00    -0.206 C  
HETATM    2  C   UNL     1      -7.568  17.223  68.598  1.00  0.00    -0.260 C  
HETATM    3  C   UNL     1      -7.086  17.169  67.150  1.00  0.00    -0.208 C  
HETATM    4  C   UNL     1      -7.295  15.719  66.735  1.00  0.00    -0.076 C  
HETATM    5  C   UNL     1      -8.800  15.407  66.464  1.00  0.00    -0.347 C  
HETATM    6  C   UNL     1      -9.414  16.394  65.468  1.00  0.00     0.136 C  
HETATM    7  C   UNL     1     -10.882  16.093  65.312  1.00  0.00    -0.336 C  
HETATM    8  C   UNL     1     -11.011  14.788  64.584  1.00  0.00    -0.332 C  
HETATM    9  F   UNL     1     -11.442  16.022  66.551  1.00  0.00    -0.052 F  
HETATM   10  C   UNL     1     -12.145  14.626  63.864  1.00  0.00    -0.076 C  
HETATM   11  C   UNL     1     -13.251  14.232  64.804  1.00  0.00     0.651 C  
HETATM   12  O   UNL     1     -14.407  14.562  64.590  1.00  0.00     3.347 OA 
HETATM   13  C   UNL     1     -12.866  13.354  65.965  1.00  0.00    -0.058 C  
HETATM   14  C   UNL     1     -11.572  13.046  66.202  1.00  0.00    -0.412 C  
HETATM   15  C   UNL     1     -10.411  13.573  65.340  1.00  0.00    -0.329 C  
HETATM   16  C   UNL     1     -10.124  12.457  64.289  1.00  0.00    -0.305 C  
HETATM   17  C   UNL     1      -9.005  13.932  66.069  1.00  0.00     0.379 C  
HETATM   18  F   UNL     1      -8.022  13.659  65.132  1.00  0.00     3.502 F  
HETATM   19  C   UNL     1      -8.625  13.129  67.342  1.00  0.00    -0.204 C  
HETATM   20  C   UNL     1      -7.202  13.442  67.878  1.00  0.00    -0.133 C  
HETATM   21  O   UNL     1      -8.701  11.717  67.107  1.00  0.00    -0.156 OA 
HETATM   22  C   UNL     1      -6.700  14.932  67.948  1.00  0.00    -0.175 C  
HETATM   23  H   UNL     1      -8.469  11.226  67.887  1.00  0.00     0.000 HD 
HETATM   24  C   UNL     1      -7.118  15.840  69.216  1.00  0.00    -0.199 C  
HETATM   25  C   UNL     1      -5.153  14.838  67.833  1.00  0.00    -0.065 C  
HETATM   26  H   UNL     1      -7.937  14.339  70.219  1.00  0.00     0.000 HD 
HETATM   27  O   UNL     1      -8.207  15.171  69.848  1.00  0.00    -0.101 OA 
ENDROOT
BRANCH  24  28
HETATM   28  C   UNL     1      -6.032  16.333  70.263  1.00  0.00    -0.067 C  
HETATM   29  O   UNL     1      -5.368  17.354  70.174  1.00  0.00    -0.196 OA 
BRANCH  28  30
HETATM   30  S   UNL     1      -5.998  15.416  71.787  1.00  0.00     1.026 SA 
HETATM   31  C   UNL     1      -5.424  13.824  71.138  1.00  0.00    -0.202 C  
HETATM   32  F   UNL     1      -5.167  12.987  72.184  1.00  0.00    -0.146 F  
ENDBRANCH  28  30
ENDBRANCH  24  28
TORSDOF 2
ENDMDL
MODEL      112
REMARK 921   NORMALIZED FREE ENERGY PREDICTED BY IDOCK:    6.35 KCAL/MOL
REMARK 922        TOTAL FREE ENERGY PREDICTED BY IDOCK:    7.06 KCAL/MOL
REMARK 923 INTER-LIGAND FREE ENERGY PREDICTED BY IDOCK:    7.18 KCAL/MOL
REMARK 924 INTRA-LIGAND FREE ENERGY PREDICTED BY IDOCK:   -0.13 KCAL/MOL
REMARK 927      BINDING AFFINITY PREDICTED BY RF-SCORE:    0.00 PKD
ROOT
HETATM    1  C   UNL     1      -8.328   9.783  67.240  1.00  0.00    -0.121 C  
HETATM    2  C   UNL     1      -9.406   8.704  67.083  1.00  0.00    -0.190 C  
HETATM    3  C   UNL     1     -10.698   9.133  66.391  1.00  0.00     0.181 C  
HETATM    4  C   UNL     1     -11.609   9.573  67.528  1.00  0.00     1.478 C  
HETATM    5  C   UNL     1     -11.200  10.971  68.089  1.00  0.00    -0.364 C  
HETATM    6  C   UNL     1     -11.103  12.021  66.979  1.00  0.00    -0.351 C  
HETATM    7  C   UNL     1     -10.626  13.323  67.567  1.00  0.00    -0.246 C  
HETATM    8  C   UNL     1     -11.727  13.872  68.427  1.00  0.00    -0.391 C  
HETATM    9  F   UNL     1      -9.505  13.080  68.301  1.00  0.00    -0.203 F  
HETATM   10  C   UNL     1     -11.747  15.217  68.568  1.00  0.00    -0.352 C  
HETATM   11  C   UNL     1     -10.723  15.600  69.602  1.00  0.00    -0.278 C  
HETATM   12  O   UNL     1     -10.129  16.665  69.536  1.00  0.00    -0.221 OA 
HETATM   13  C   UNL     1     -10.534  14.643  70.748  1.00  0.00     0.688 C  
HETATM   14  C   UNL     1     -11.170  13.451  70.767  1.00  0.00     1.234 C  
HETATM   15  C   UNL     1     -12.100  12.975  69.637  1.00  0.00    -0.304 C  
HETATM   16  C   UNL     1     -13.542  13.361  70.085  1.00  0.00     1.702 C  
HETATM   17  C   UNL     1     -12.112  11.397  69.255  1.00  0.00    -0.289 C  
HETATM   18  F   UNL     1     -13.403  11.128  68.834  1.00  0.00     1.090 F  
HETATM   19  C   UNL     1     -11.803  10.378  70.386  1.00  0.00    -0.328 C  
HETATM   20  C   UNL     1     -11.983   8.896  69.958  1.00  0.00     0.450 C  
HETATM   21  O   UNL     1     -12.635  10.605  71.530  1.00  0.00    -0.388 OA 
HETATM   22  C   UNL     1     -11.443   8.411  68.562  1.00  0.00     1.069 C  
HETATM   23  H   UNL     1     -12.446   9.981  72.222  1.00  0.00     0.000 HD 
HETATM   24  C   UNL     1      -9.885   8.013  68.421  1.00  0.00    -0.171 C  
HETATM   25  C   UNL     1     -12.348   7.206  68.180  1.00  0.00     4.202 C  
HETATM   26  H   UNL     1      -9.513   8.149  70.363  1.00  0.00     0.000 HD 
HETATM   27  O   UNL     1      -9.225   8.564  69.558  1.00  0.00    -0.149 OA 
ENDROOT
BRANCH  24  28
HETATM   28  C   UNL     1      -9.445   6.513  68.143  1.00  0.00    -0.114 C  
HETATM   29  O   UNL     1      -9.694   5.873  67.134  1.00  0.00    -0.120 OA 
BRANCH  28  30
HETATM   30  S   UNL     1      -8.291   5.847  69.321  1.00  0.00    -0.114 SA 
HETATM   31  C   UNL     1      -9.388   4.662  70.143  1.00  0.00    -0.144 C  
HETATM   32  F   UNL     1      -8.652   3.902  71.003  1.00  0.00    -0.077 F  
ENDBRANCH  28  30
ENDBRANCH  24  28
TORSDOF 2
ENDMDL
MODEL      113
REMARK 921   NORMALIZED FREE ENERGY PREDICTED BY IDOCK:    6.37 KCAL/MOL
REMARK 922        TOTAL FREE ENERGY PREDICTED BY IDOCK:    7.09 KCAL/MOL
REMARK 923 INTER-LIGAND FREE ENERGY PREDICTED BY IDOCK:    5.98 KCAL/MOL
REMARK 924 INTRA-LIGAND FREE ENERGY PREDICTED BY IDOCK:    1.11 KCAL/MOL
REMARK 927      BINDING AFFINITY PREDICTED BY RF-SCORE:    0.00 PKD
ROOT
HETATM    1  C   UNL     1     -13.623  13.713  66.248  1.00  0.00     2.879 C  
HETATM    2  C   UNL     1     -12.497  12.921  65.573  1.00  0.00    -0.462 C  
HETATM    3  C   UNL     1     -11.751  11.921  66.453  1.00  0.00    -0.232 C  
HETATM    4  C   UNL     1     -10.573  12.709  67.008  1.00  0.00    -0.255 C  
HETATM    5  C   UNL     1     -11.016  13.691  68.139  1.00  0.00    -0.273 C  
HETATM    6  C   UNL     1     -11.806  12.974  69.236  1.00  0.00    -0.370 C  
HETATM    7  C   UNL     1     -12.274  13.983  70.251  1.00  0.00    -0.361 C  
HETATM    8  C   UNL     1     -11.072  14.477  70.999  1.00  0.00     0.256 C  
HETATM    9  F   UNL     1     -12.895  15.001  69.593  1.00  0.00    -0.194 F  
HETATM   10  C   UNL     1     -11.301  14.910  72.260  1.00  0.00    -0.003 C  
HETATM   11  C   UNL     1     -11.853  16.308  72.188  1.00  0.00    -0.499 C  
HETATM   12  O   UNL     1     -12.645  16.717  73.022  1.00  0.00    -0.203 OA 
HETATM   13  C   UNL     1     -11.319  17.185  71.088  1.00  0.00     1.114 C  
HETATM   14  C   UNL     1     -10.481  16.689  70.151  1.00  0.00     0.100 C  
HETATM   15  C   UNL     1     -10.031  15.218  70.119  1.00  0.00    -0.051 C  
HETATM   16  C   UNL     1      -8.664  15.177  70.867  1.00  0.00     2.384 C  
HETATM   17  C   UNL     1      -9.821  14.502  68.677  1.00  0.00    -0.232 C  
HETATM   18  F   UNL     1      -8.803  13.582  68.865  1.00  0.00    -0.095 F  
HETATM   19  C   UNL     1      -9.385  15.395  67.483  1.00  0.00    -0.203 C  
HETATM   20  C   UNL     1      -9.069  14.598  66.189  1.00  0.00    -0.125 C  
HETATM   21  O   UNL     1      -8.225  16.169  67.812  1.00  0.00    -0.149 OA 
HETATM   22  C   UNL     1     -10.019  13.429  65.735  1.00  0.00    -0.264 C  
HETATM   23  H   UNL     1      -7.958  16.716  67.082  1.00  0.00     0.000 HD 
HETATM   24  C   UNL     1     -11.356  13.786  64.904  1.00  0.00    -0.347 C  
HETATM   25  C   UNL     1      -9.111  12.470  64.916  1.00  0.00     0.834 C  
HETATM   26  H   UNL     1     -10.898  15.701  64.685  1.00  0.00     0.000 HD 
HETATM   27  O   UNL     1     -11.583  15.182  65.087  1.00  0.00    -0.326 OA 
ENDROOT
BRANCH  24  28
HETATM   28  C   UNL     1     -11.518  13.349  63.386  1.00  0.00     0.098 C  
HETATM   29  O   UNL     1     -11.318  14.061  62.415  1.00  0.00     2.884 OA 
BRANCH  28  30
HETATM   30  S   UNL     1     -11.773  11.607  63.137  1.00  0.00     0.224 SA 
HETATM   31  C   UNL     1     -10.064  11.128  62.767  1.00  0.00    -0.085 C  
HETATM   32  F   UNL     1      -9.992   9.769  62.695  1.00  0.00    -0.064 F  
ENDBRANCH  28  30
ENDBRANCH  24  28
TORSDOF 2
ENDMDL
MODEL      114
REMARK 921   NORMALIZED FREE ENERGY PREDICTED BY IDOCK:    8.48 KCAL/MOL
REMARK 922        TOTAL FREE ENERGY PREDICTED BY IDOCK:    9.44 KCAL/MOL
REMARK 923 INTER-LIGAND FREE ENERGY PREDICTED BY IDOCK:    7.44 KCAL/MOL
REMARK 924 INTRA-LIGAND FREE ENERGY PREDICTED BY IDOCK:    2.00 KCAL/MOL
REMARK 927      BINDING AFFINITY PREDICTED BY RF-SCORE:    0.00 PKD
ROOT
HETATM    1  C   UNL     1      -9.147  11.612  69.140  1.00  0.00     0.321 C  
HETATM    2  C   UNL     1      -8.192  10.586  68.518  1.00  0.00    -0.123 C  
HETATM    3  C   UNL     1      -7.200  11.122  67.489  1.00  0.00    -0.101 C  
HETATM    4  C   UNL     1      -7.909  10.952  66.153  1.00  0.00    -0.144 C  
HETATM    5  C   UNL     1      -9.022  12.028  65.949  1.00  0.00     0.035 C  
HETATM    6  C   UNL     1      -8.482  13.447  66.145  1.00  0.00     0.905 C  
HETATM    7  C   UNL     1      -9.615  14.431  66.017  1.00  0.00    -0.262 C  
HETATM    8  C   UNL     1     -10.047  14.453  64.581  1.00  0.00     0.059 C  
HETATM    9  F   UNL     1     -10.632  14.027  66.829  1.00  0.00    -0.270 F  
HETATM   10  C   UNL     1     -10.605  15.609  64.153  1.00  0.00     1.283 C  
HETATM   11  C   UNL     1     -12.041  15.637  64.604  1.00  0.00     0.020 C  
HETATM   12  O   UNL     1     -12.595  16.691  64.875  1.00  0.00     1.830 OA 
HETATM   13  C   UNL     1     -12.764  14.318  64.625  1.00  0.00    -0.137 C  
HETATM   14  C   UNL     1     -12.109  13.164  64.367  1.00  0.00    -0.471 C  
HETATM   15  C   UNL     1     -10.603  13.102  64.059  1.00  0.00    -0.303 C  
HETATM   16  C   UNL     1     -10.487  13.112  62.505  1.00  0.00     5.077 C  
HETATM   17  C   UNL     1      -9.751  11.832  64.605  1.00  0.00    -0.149 C  
HETATM   18  F   UNL     1      -8.753  11.625  63.668  1.00  0.00     0.098 F  
HETATM   19  C   UNL     1     -10.492  10.476  64.756  1.00  0.00    -0.128 C  
HETATM   20  C   UNL     1      -9.562   9.294  65.142  1.00  0.00    -0.103 C  
HETATM   21  O   UNL     1     -11.171  10.119  63.546  1.00  0.00     1.321 OA 
HETATM   22  C   UNL     1      -8.460   9.491  66.248  1.00  0.00    -0.122 C  
HETATM   23  H   UNL     1     -11.625   9.289  63.638  1.00  0.00     0.000 HD 
HETATM   24  C   UNL     1      -8.879   9.357  67.801  1.00  0.00    -0.123 C  
HETATM   25  C   UNL     1      -7.349   8.464  65.894  1.00  0.00    -0.073 C  
HETATM   26  H   UNL     1     -10.714   8.715  67.414  1.00  0.00     0.000 HD 
HETATM   27  O   UNL     1     -10.301   9.454  67.845  1.00  0.00    -0.199 OA 
ENDROOT
BRANCH  24  28
HETATM   28  C   UNL     1      -8.335   8.163  68.696  1.00  0.00    -0.126 C  
HETATM   29  O   UNL     1      -7.161   7.869  68.854  1.00  0.00    -0.070 OA 
BRANCH  28  30
HETATM   30  S   UNL     1      -9.562   7.382  69.719  1.00  0.00    -0.162 SA 
HETATM   31  C   UNL     1     -10.775   8.727  69.771  1.00  0.00    -0.218 C  
HETATM   32  F   UNL     1     -11.905   8.280  70.390  1.00  0.00    -0.220 F  
ENDBRANCH  28  30
ENDBRANCH  24  28
TORSDOF 2
ENDMDL
MODEL      115
REMARK 921   NORMALIZED FREE ENERGY PREDICTED BY IDOCK:   10.87 KCAL/MOL
REMARK 922        TOTAL FREE ENERGY PREDICTED BY IDOCK:   12.10 KCAL/MOL
REMARK 923 INTER-LIGAND FREE ENERGY PREDICTED BY IDOCK:   10.03 KCAL/MOL
REMARK 924 INTRA-LIGAND FREE ENERGY PREDICTED BY IDOCK:    2.08 KCAL/MOL
REMARK 927      BINDING AFFINITY PREDICTED BY RF-SCORE:    0.00 PKD
ROOT
HETATM    1  C   UNL     1     -11.871  16.331  67.791  1.00  0.00     0.467 C  
HETATM    2  C   UNL     1     -10.470  16.473  68.395  1.00  0.00    -0.307 C  
HETATM    3  C   UNL     1      -9.305  16.489  67.409  1.00  0.00    -0.223 C  
HETATM    4  C   UNL     1      -8.877  15.033  67.303  1.00  0.00    -0.216 C  
HETATM    5  C   UNL     1      -9.872  14.200  66.435  1.00  0.00    -0.308 C  
HETATM    6  C   UNL     1     -10.103  14.841  65.064  1.00  0.00    -0.308 C  
HETATM    7  C   UNL     1     -11.131  14.040  64.308  1.00  0.00    -0.180 C  
HETATM    8  C   UNL     1     -10.512  12.724  63.942  1.00  0.00    -0.402 C  
HETATM    9  F   UNL     1     -12.217  13.865  65.111  1.00  0.00    -0.352 F  
HETATM   10  C   UNL     1     -11.009  12.130  62.832  1.00  0.00     0.280 C  
HETATM   11  C   UNL     1     -12.296  11.442  63.200  1.00  0.00     0.391 C  
HETATM   12  O   UNL     1     -13.206  11.336  62.392  1.00  0.00     1.106 OA 
HETATM   13  C   UNL     1     -12.365  10.835  64.575  1.00  0.00     3.282 C  
HETATM   14  C   UNL     1     -11.361  11.012  65.462  1.00  0.00     0.238 C  
HETATM   15  C   UNL     1     -10.106  11.848  65.156  1.00  0.00    -0.293 C  
HETATM   16  C   UNL     1      -9.030  10.831  64.667  1.00  0.00    -0.191 C  
HETATM   17  C   UNL     1      -9.444  12.722  66.354  1.00  0.00    -0.229 C  
HETATM   18  F   UNL     1      -8.085  12.742  66.090  1.00  0.00     0.284 F  
HETATM   19  C   UNL     1      -9.597  12.190  67.805  1.00  0.00    -0.195 C  
HETATM   20  C   UNL     1      -8.808  13.013  68.859  1.00  0.00     0.316 C  
HETATM   21  O   UNL     1      -9.166  10.827  67.906  1.00  0.00    -0.146 OA 
HETATM   22  C   UNL     1      -8.827  14.586  68.801  1.00  0.00    -0.153 C  
HETATM   23  H   UNL     1      -9.259  10.502  68.794  1.00  0.00     0.000 HD 
HETATM   24  C   UNL     1     -10.069  15.378  69.462  1.00  0.00    -0.276 C  
HETATM   25  C   UNL     1      -7.490  15.027  69.459  1.00  0.00    -0.194 C  
HETATM   26  H   UNL     1     -10.868  13.760  70.282  1.00  0.00     0.000 HD 
HETATM   27  O   UNL     1     -11.109  14.418  69.641  1.00  0.00    -0.250 OA 
ENDROOT
BRANCH  24  28
HETATM   28  C   UNL     1      -9.870  16.288  70.747  1.00  0.00     1.827 C  
HETATM   29  O   UNL     1     -10.078  15.948  71.901  1.00  0.00     2.081 OA 
BRANCH  28  30
HETATM   30  S   UNL     1      -9.041  17.832  70.443  1.00  0.00     3.867 SA 
HETATM   31  C   UNL     1     -10.352  18.672  69.516  1.00  0.00     0.557 C  
HETATM   32  F   UNL     1      -9.986  19.969  69.310  1.00  0.00    -0.444 F  
ENDBRANCH  28  30
ENDBRANCH  24  28
TORSDOF 2
ENDMDL
MODEL      116
REMARK 921   NORMALIZED FREE ENERGY PREDICTED BY IDOCK:   18.15 KCAL/MOL
REMARK 922        TOTAL FREE ENERGY PREDICTED BY IDOCK:   20.24 KCAL/MOL
REMARK 923 INTER-LIGAND FREE ENERGY PREDICTED BY IDOCK:   20.03 KCAL/MOL
REMARK 924 INTRA-LIGAND FREE ENERGY PREDICTED BY IDOCK:    0.22 KCAL/MOL
REMARK 927      BINDING AFFINITY PREDICTED BY RF-SCORE:    0.00 PKD
ROOT
HETATM    1  C   UNL     1      -9.368   5.464  69.051  1.00  0.00    -0.163 C  
HETATM    2  C   UNL     1      -9.456   5.776  67.553  1.00  0.00    -0.112 C  
HETATM    3  C   UNL     1      -8.177   6.283  66.890  1.00  0.00    -0.109 C  
HETATM    4  C   UNL     1      -8.272   7.799  66.992  1.00  0.00    -0.117 C  
HETATM    5  C   UNL     1      -7.970   8.301  68.439  1.00  0.00    -0.119 C  
HETATM    6  C   UNL     1      -6.633   7.765  68.958  1.00  0.00    -0.048 C  
HETATM    7  C   UNL     1      -6.437   8.214  70.382  1.00  0.00    -0.036 C  
HETATM    8  C   UNL     1      -6.200   9.695  70.371  1.00  0.00    -0.071 C  
HETATM    9  F   UNL     1      -7.558   7.902  71.091  1.00  0.00    -0.071 F  
HETATM   10  C   UNL     1      -5.465  10.180  71.398  1.00  0.00    -0.045 C  
HETATM   11  C   UNL     1      -6.362  10.315  72.599  1.00  0.00     1.828 C  
HETATM   12  O   UNL     1      -5.925  10.169  73.730  1.00  0.00     0.063 OA 
HETATM   13  C   UNL     1      -7.789  10.712  72.332  1.00  0.00     8.157 C  
HETATM   14  C   UNL     1      -8.254  10.818  71.067  1.00  0.00     3.888 C  
HETATM   15  C   UNL     1      -7.390  10.528  69.827  1.00  0.00    -0.139 C  
HETATM   16  C   UNL     1      -6.830  11.909  69.369  1.00  0.00    -0.048 C  
HETATM   17  C   UNL     1      -8.093   9.834  68.538  1.00  0.00    -0.104 C  
HETATM   18  F   UNL     1      -7.419  10.332  67.436  1.00  0.00    -0.090 F  
HETATM   19  C   UNL     1      -9.599  10.122  68.293  1.00  0.00    -0.141 C  
HETATM   20  C   UNL     1     -10.140   9.535  66.961  1.00  0.00    -0.297 C  
HETATM   21  O   UNL     1      -9.863  11.531  68.287  1.00  0.00    -0.190 OA 
HETATM   22  C   UNL     1      -9.739   8.076  66.527  1.00  0.00    -0.297 C  
HETATM   23  H   UNL     1     -10.785  11.707  68.137  1.00  0.00     0.000 HD 
HETATM   24  C   UNL     1     -10.560   6.826  67.134  1.00  0.00    -0.331 C  
HETATM   25  C   UNL     1      -9.829   8.083  64.975  1.00  0.00     1.983 C  
HETATM   26  H   UNL     1     -11.930   7.953  68.018  1.00  0.00     0.000 HD 
HETATM   27  O   UNL     1     -11.267   7.322  68.269  1.00  0.00     0.058 OA 
ENDROOT
BRANCH  24  28
HETATM   28  C   UNL     1     -11.480   5.922  66.208  1.00  0.00     1.041 C  
HETATM   29  O   UNL     1     -12.591   6.219  65.800  1.00  0.00     4.418 OA 
BRANCH  28  30
HETATM   30  S   UNL     1     -10.676   4.483  65.540  1.00  0.00     0.049 SA 
HETATM   31  C   UNL     1     -10.151   5.173  63.948  1.00  0.00     1.203 C  
HETATM   32  F   UNL     1      -9.354   4.267  63.315  1.00  0.00    -0.133 F  
ENDBRANCH  28  30
ENDBRANCH  24  28
TORSDOF 2
ENDMDL
MODEL      117
REMARK 921   NORMALIZED FREE ENERGY PREDICTED BY IDOCK:   21.95 KCAL/MOL
REMARK 922        TOTAL FREE ENERGY PREDICTED BY IDOCK:   24.49 KCAL/MOL
REMARK 923 INTER-LIGAND FREE ENERGY PREDICTED BY IDOCK:   22.52 KCAL/MOL
REMARK 924 INTRA-LIGAND FREE ENERGY PREDICTED BY IDOCK:    1.97 KCAL/MOL
REMARK 927      BINDING AFFINITY PREDICTED BY RF-SCORE:    0.00 PKD
ROOT
HETATM    1  C   UNL     1     -11.078  17.869  69.190  1.00  0.00     1.089 C  
HETATM    2  C   UNL     1     -11.272  16.769  70.239  1.00  0.00     0.181 C  
HETATM    3  C   UNL     1     -10.036  16.377  71.046  1.00  0.00     2.024 C  
HETATM    4  C   UNL     1      -9.422  15.225  70.263  1.00  0.00     0.458 C  
HETATM    5  C   UNL     1      -8.683  15.725  68.982  1.00  0.00    -0.237 C  
HETATM    6  C   UNL     1      -7.663  16.820  69.307  1.00  0.00    -0.076 C  
HETATM    7  C   UNL     1      -7.045  17.318  68.027  1.00  0.00    -0.182 C  
HETATM    8  C   UNL     1      -6.174  16.227  67.479  1.00  0.00    -0.186 C  
HETATM    9  F   UNL     1      -8.046  17.630  67.157  1.00  0.00    -0.203 F  
HETATM   10  C   UNL     1      -5.136  16.632  66.712  1.00  0.00     0.006 C  
HETATM   11  C   UNL     1      -5.656  16.935  65.333  1.00  0.00     2.143 C  
HETATM   12  O   UNL     1      -5.145  17.804  64.644  1.00  0.00     0.077 OA 
HETATM   13  C   UNL     1      -6.775  16.063  64.830  1.00  0.00     9.550 C  
HETATM   14  C   UNL     1      -7.351  15.143  65.634  1.00  0.00     5.647 C  
HETATM   15  C   UNL     1      -6.937  14.929  67.101  1.00  0.00     0.129 C  
HETATM   16  C   UNL     1      -5.904  13.762  67.084  1.00  0.00     0.758 C  
HETATM   17  C   UNL     1      -8.086  14.550  68.184  1.00  0.00    -0.137 C  
HETATM   18  F   UNL     1      -7.460  13.745  69.121  1.00  0.00    -0.115 F  
HETATM   19  C   UNL     1      -9.319  13.752  67.680  1.00  0.00    -0.213 C  
HETATM   20  C   UNL     1     -10.285  13.313  68.813  1.00  0.00    -0.119 C  
HETATM   21  O   UNL     1      -8.919  12.575  66.968  1.00  0.00    -0.199 OA 
HETATM   22  C   UNL     1     -10.663  14.324  69.959  1.00  0.00     0.207 C  
HETATM   23  H   UNL     1      -9.674  12.087  66.659  1.00  0.00     0.000 HD 
HETATM   24  C   UNL     1     -11.840  15.397  69.697  1.00  0.00    -0.347 C  
HETATM   25  C   UNL     1     -11.005  13.431  71.184  1.00  0.00     2.996 C  
HETATM   26  H   UNL     1     -12.384  14.612  67.960  1.00  0.00     0.000 HD 
HETATM   27  O   UNL     1     -12.043  15.437  68.286  1.00  0.00    -0.191 OA 
ENDROOT
BRANCH  24  28
HETATM   28  C   UNL     1     -13.211  15.320  70.494  1.00  0.00    -0.236 C  
HETATM   29  O   UNL     1     -14.321  15.507  70.022  1.00  0.00     1.114 OA 
BRANCH  28  30
HETATM   30  S   UNL     1     -13.077  14.663  72.141  1.00  0.00    -0.378 SA 
HETATM   31  C   UNL     1     -12.444  16.141  72.978  1.00  0.00    -0.491 C  
HETATM   32  F   UNL     1     -12.414  15.910  74.321  1.00  0.00    -0.555 F  
ENDBRANCH  28  30
ENDBRANCH  24  28
TORSDOF 2
ENDMDL
MODEL      118
REMARK 921   NORMALIZED FREE ENERGY PREDICTED BY IDOCK:   25.26 KCAL/MOL
REMARK 922        TOTAL FREE ENERGY PREDICTED BY IDOCK:   28.18 KCAL/MOL
REMARK 923 INTER-LIGAND FREE ENERGY PREDICTED BY IDOCK:   25.40 KCAL/MOL
REMARK 924 INTRA-LIGAND FREE ENERGY PREDICTED BY IDOCK:    2.78 KCAL/MOL
REMARK 927      BINDING AFFINITY PREDICTED BY RF-SCORE:    0.00 PKD
ROOT
HETATM    1  C   UNL     1      -8.858  19.455  69.984  1.00  0.00     1.037 C  
HETATM    2  C   UNL     1      -7.424  18.930  70.108  1.00  0.00     1.005 C  
HETATM    3  C   UNL     1      -6.657  18.738  68.802  1.00  0.00    -0.282 C  
HETATM    4  C   UNL     1      -6.925  17.291  68.414  1.00  0.00    -0.202 C  
HETATM    5  C   UNL     1      -8.364  17.104  67.839  1.00  0.00    -0.207 C  
HETATM    6  C   UNL     1      -8.649  18.077  66.692  1.00  0.00    -0.281 C  
HETATM    7  C   UNL     1     -10.074  17.905  66.237  1.00  0.00    -0.351 C  
HETATM    8  C   UNL     1     -10.184  16.573  65.556  1.00  0.00    -0.261 C  
HETATM    9  F   UNL     1     -10.886  17.966  67.329  1.00  0.00    -0.365 F  
HETATM   10  C   UNL     1     -11.152  16.473  64.616  1.00  0.00    -0.135 C  
HETATM   11  C   UNL     1     -12.466  16.244  65.312  1.00  0.00     2.311 C  
HETATM   12  O   UNL     1     -13.510  16.666  64.841  1.00  0.00     4.186 OA 
HETATM   13  C   UNL     1     -12.427  15.411  66.565  1.00  0.00     1.222 C  
HETATM   14  C   UNL     1     -11.251  15.000  67.088  1.00  0.00    -0.336 C  
HETATM   15  C   UNL     1      -9.886  15.359  66.474  1.00  0.00    -0.288 C  
HETATM   16  C   UNL     1      -9.503  14.156  65.559  1.00  0.00     0.105 C  
HETATM   17  C   UNL     1      -8.634  15.632  67.472  1.00  0.00    -0.172 C  
HETATM   18  F   UNL     1      -7.511  15.209  66.781  1.00  0.00    -0.206 F  
HETATM   19  C   UNL     1      -8.617  14.880  68.831  1.00  0.00    -0.177 C  
HETATM   20  C   UNL     1      -7.313  15.093  69.647  1.00  0.00    -0.191 C  
HETATM   21  O   UNL     1      -8.789  13.470  68.646  1.00  0.00    -0.332 OA 
HETATM   22  C   UNL     1      -6.683  16.531  69.759  1.00  0.00    -0.024 C  
HETATM   23  H   UNL     1      -8.778  13.009  69.477  1.00  0.00     0.000 HD 
HETATM   24  C   UNL     1      -7.260  17.553  70.867  1.00  0.00     3.993 C  
HETATM   25  C   UNL     1      -5.165  16.286  69.984  1.00  0.00    -0.152 C  
HETATM   26  H   UNL     1      -8.424  16.203  71.734  1.00  0.00     0.000 HD 
HETATM   27  O   UNL     1      -8.522  17.031  71.278  1.00  0.00     6.580 OA 
ENDROOT
BRANCH  24  28
HETATM   28  C   UNL     1      -6.373  18.009  72.102  1.00  0.00     3.166 C  
HETATM   29  O   UNL     1      -6.080  19.161  72.382  1.00  0.00     0.263 OA 
BRANCH  28  30
HETATM   30  S   UNL     1      -6.010  16.721  73.273  1.00  0.00     5.120 SA 
HETATM   31  C   UNL     1      -5.620  15.389  72.106  1.00  0.00     0.529 C  
HETATM   32  F   UNL     1      -5.146  14.317  72.802  1.00  0.00    -0.161 F  
ENDBRANCH  28  30
ENDBRANCH  24  28
TORSDOF 2
ENDMDL
MODEL      119
REMARK 921   NORMALIZED FREE ENERGY PREDICTED BY IDOCK:   28.31 KCAL/MOL
REMARK 922        TOTAL FREE ENERGY PREDICTED BY IDOCK:   31.59 KCAL/MOL
REMARK 923 INTER-LIGAND FREE ENERGY PREDICTED BY IDOCK:   30.78 KCAL/MOL
REMARK 924 INTRA-LIGAND FREE ENERGY PREDICTED BY IDOCK:    0.81 KCAL/MOL
REMARK 927      BINDING AFFINITY PREDICTED BY RF-SCORE:    0.00 PKD
ROOT
HETATM    1  C   UNL     1     -11.223  15.860  70.830  1.00  0.00    -0.389 C  
HETATM    2  C   UNL     1     -11.118  14.400  70.376  1.00  0.00     0.034 C  
HETATM    3  C   UNL     1      -9.813  13.680  70.707  1.00  0.00     4.750 C  
HETATM    4  C   UNL     1      -8.937  13.899  69.481  1.00  0.00     0.917 C  
HETATM    5  C   UNL     1      -8.366  15.351  69.432  1.00  0.00    -0.250 C  
HETATM    6  C   UNL     1      -7.652  15.726  70.733  1.00  0.00     2.140 C  
HETATM    7  C   UNL     1      -7.198  17.160  70.656  1.00  0.00     2.982 C  
HETATM    8  C   UNL     1      -6.087  17.238  69.651  1.00  0.00    -0.244 C  
HETATM    9  F   UNL     1      -8.257  17.928  70.277  1.00  0.00     1.522 F  
HETATM   10  C   UNL     1      -5.195  18.238  69.839  1.00  0.00    -0.208 C  
HETATM   11  C   UNL     1      -5.793  19.512  69.304  1.00  0.00    -0.249 C  
HETATM   12  O   UNL     1      -5.528  20.592  69.807  1.00  0.00    -0.311 OA 
HETATM   13  C   UNL     1      -6.661  19.385  68.081  1.00  0.00    -0.292 C  
HETATM   14  C   UNL     1      -6.975  18.171  67.577  1.00  0.00    -0.204 C  
HETATM   15  C   UNL     1      -6.501  16.850  68.207  1.00  0.00    -0.142 C  
HETATM   16  C   UNL     1      -5.207  16.452  67.434  1.00  0.00    -0.148 C  
HETATM   17  C   UNL     1      -7.502  15.571  68.175  1.00  0.00    -0.114 C  
HETATM   18  F   UNL     1      -6.680  14.460  68.090  1.00  0.00    -0.084 F  
HETATM   19  C   UNL     1      -8.500  15.465  66.990  1.00  0.00    -0.231 C  
HETATM   20  C   UNL     1      -9.308  14.139  66.970  1.00  0.00    -0.253 C  
HETATM   21  O   UNL     1      -7.825  15.582  65.731  1.00  0.00     0.640 OA 
HETATM   22  C   UNL     1      -9.914  13.569  68.306  1.00  0.00    -0.237 C  
HETATM   23  H   UNL     1      -8.435  15.517  65.006  1.00  0.00     0.000 HD 
HETATM   24  C   UNL     1     -11.328  14.145  68.831  1.00  0.00    -0.277 C  
HETATM   25  C   UNL     1     -10.002  12.034  68.082  1.00  0.00    -0.203 C  
HETATM   26  H   UNL     1     -11.679  15.212  67.197  1.00  0.00     0.000 HD 
HETATM   27  O   UNL     1     -11.553  15.364  68.126  1.00  0.00    -0.347 OA 
ENDROOT
BRANCH  24  28
HETATM   28  C   UNL     1     -12.624  13.228  68.864  1.00  0.00     0.593 C  
HETATM   29  O   UNL     1     -13.606  13.409  69.566  1.00  0.00     2.205 OA 
BRANCH  28  30
HETATM   30  S   UNL     1     -12.698  11.998  67.582  1.00  0.00     3.053 SA 
HETATM   31  C   UNL     1     -14.142  12.625  66.682  1.00  0.00    11.099 C  
HETATM   32  F   UNL     1     -14.293  11.906  65.534  1.00  0.00     5.030 F  
ENDBRANCH  28  30
ENDBRANCH  24  28
TORSDOF 2
ENDMDL
MODEL      120
REMARK 921   NORMALIZED FREE ENERGY PREDICTED BY IDOCK:   34.69 KCAL/MOL
REMARK 922        TOTAL FREE ENERGY PREDICTED BY IDOCK:   38.71 KCAL/MOL
REMARK 923 INTER-LIGAND FREE ENERGY PREDICTED BY IDOCK:   38.50 KCAL/MOL
REMARK 924 INTRA-LIGAND FREE ENERGY PREDICTED BY IDOCK:    0.22 KCAL/MOL
REMARK 927      BINDING AFFINITY PREDICTED BY RF-SCORE:    0.00 PKD
ROOT
HETATM    1  C   UNL     1     -11.390  14.424  70.508  1.00  0.00    -0.117 C  
HETATM    2  C   UNL     1     -11.057  15.893  70.796  1.00  0.00    -0.352 C  
HETATM    3  C   UNL     1     -11.897  16.934  70.060  1.00  0.00     1.425 C  
HETATM    4  C   UNL     1     -11.110  17.228  68.791  1.00  0.00     0.103 C  
HETATM    5  C   UNL     1     -11.246  16.076  67.746  1.00  0.00    -0.231 C  
HETATM    6  C   UNL     1     -12.712  15.741  67.459  1.00  0.00     2.297 C  
HETATM    7  C   UNL     1     -12.778  14.572  66.512  1.00  0.00     0.383 C  
HETATM    8  C   UNL     1     -12.292  15.036  65.171  1.00  0.00     0.048 C  
HETATM    9  F   UNL     1     -11.990  13.575  67.001  1.00  0.00    -0.368 F  
HETATM   10  C   UNL     1     -12.786  14.369  64.103  1.00  0.00     0.133 C  
HETATM   11  C   UNL     1     -12.021  13.081  63.954  1.00  0.00    -0.485 C  
HETATM   12  O   UNL     1     -12.557  12.079  63.507  1.00  0.00    -0.606 OA 
HETATM   13  C   UNL     1     -10.560  13.122  64.311  1.00  0.00    -0.432 C  
HETATM   14  C   UNL     1     -10.008  14.232  64.849  1.00  0.00    -0.134 C  
HETATM   15  C   UNL     1     -10.814  15.508  65.155  1.00  0.00    -0.452 C  
HETATM   16  C   UNL     1     -10.626  16.435  63.916  1.00  0.00     2.981 C  
HETATM   17  C   UNL     1     -10.427  16.371  66.475  1.00  0.00    -0.282 C  
HETATM   18  F   UNL     1     -10.706  17.688  66.151  1.00  0.00    -0.327 F  
HETATM   19  C   UNL     1      -8.948  16.344  66.948  1.00  0.00    -0.216 C  
HETATM   20  C   UNL     1      -8.650  17.313  68.125  1.00  0.00    -0.242 C  
HETATM   21  O   UNL     1      -8.055  16.673  65.877  1.00  0.00    -0.359 OA 
HETATM   22  C   UNL     1      -9.654  17.414  69.332  1.00  0.00     0.161 C  
HETATM   23  H   UNL     1      -7.149  16.656  66.166  1.00  0.00     0.000 HD 
HETATM   24  C   UNL     1      -9.562  16.324  70.519  1.00  0.00     1.642 C  
HETATM   25  C   UNL     1      -9.460  18.849  69.895  1.00  0.00     0.830 C  
HETATM   26  H   UNL     1      -7.892  15.498  69.844  1.00  0.00     0.000 HD 
HETATM   27  O   UNL     1      -8.791  15.238  70.010  1.00  0.00    -0.020 OA 
ENDROOT
BRANCH  24  28
HETATM   28  C   UNL     1      -9.109  16.744  71.982  1.00  0.00    10.894 C  
HETATM   29  O   UNL     1      -9.687  16.452  73.017  1.00  0.00     8.217 OA 
BRANCH  28  30
HETATM   30  S   UNL     1      -7.495  17.483  72.077  1.00  0.00    10.911 SA 
HETATM   31  C   UNL     1      -6.494  15.975  71.980  1.00  0.00     3.228 C  
HETATM   32  F   UNL     1      -5.180  16.323  71.873  1.00  0.00    -0.133 F  
ENDBRANCH  28  30
ENDBRANCH  24  28
TORSDOF 2
ENDMDL
