MODEL        1
REMARK 921   NORMALIZED FREE ENERGY PREDICTED BY IDOCK:   -7.68 KCAL/MOL
REMARK 922        TOTAL FREE ENERGY PREDICTED BY IDOCK:   -8.78 KCAL/MOL
REMARK 923 INTER-LIGAND FREE ENERGY PREDICTED BY IDOCK:   -8.57 KCAL/MOL
REMARK 924 INTRA-LIGAND FREE ENERGY PREDICTED BY IDOCK:   -0.20 KCAL/MOL
REMARK 927      BINDING AFFINITY PREDICTED BY RF-SCORE:    0.00 PKD
ROOT
HETATM    1  C   UNL     1     -11.018   7.436  72.856  1.00  0.00    -0.361 C  
HETATM    2  N   UNL     1     -12.072   8.412  72.636  1.00  0.00    -0.504 NA 
HETATM    3  H   UNL     1     -12.940   8.372  73.170  1.00  0.00     0.000 HD 
ENDROOT
BRANCH   2   4
HETATM    4  C   UNL     1     -11.870   9.413  71.672  1.00  0.00    -0.394 A  
HETATM    5  C   UNL     1     -12.665  10.561  71.533  1.00  0.00    -0.452 A  
HETATM    6  F   UNL     1     -13.635  10.844  72.414  1.00  0.00    -0.466 F  
HETATM    7  C   UNL     1     -12.505  11.447  70.468  1.00  0.00    -0.381 A  
HETATM    8  C   UNL     1     -11.563  11.197  69.466  1.00  0.00    -0.392 A  
HETATM    9  C   UNL     1     -10.734  10.076  69.605  1.00  0.00    -0.282 A  
HETATM   10  C   UNL     1     -10.905   9.188  70.678  1.00  0.00    -0.321 A  
BRANCH   8  11
HETATM   11  C   UNL     1     -11.488  12.018  68.247  1.00  0.00    -0.303 A  
HETATM   12  N   UNL     1     -11.888  11.647  67.047  1.00  0.00    -0.575 NA 
HETATM   13  C   UNL     1     -11.803  12.717  66.165  1.00  0.00    -0.425 A  
HETATM   14  C   UNL     1     -12.154  12.704  64.796  1.00  0.00    -0.495 A  
HETATM   15  C   UNL     1     -12.054  13.880  64.040  1.00  0.00    -0.437 A  
HETATM   16  C   UNL     1     -11.606  15.050  64.636  1.00  0.00    -0.386 A  
HETATM   17  O   UNL     1     -11.506  16.217  63.931  1.00  0.00    -1.484 OA 
HETATM   18  C   UNL     1     -11.233  15.091  65.975  1.00  0.00    -0.310 A  
HETATM   19  C   UNL     1     -11.340  13.909  66.718  1.00  0.00    -0.333 A  
HETATM   20  H   UNL     1     -11.198  17.019  64.339  1.00  0.00     0.000 HD 
HETATM   21  S   UNL     1     -10.968  13.656  68.369  1.00  0.00    -0.273 SA 
ENDBRANCH   8  11
ENDBRANCH   2   4
TORSDOF 2
ENDMDL
MODEL        2
REMARK 921   NORMALIZED FREE ENERGY PREDICTED BY IDOCK:   -7.03 KCAL/MOL
REMARK 922        TOTAL FREE ENERGY PREDICTED BY IDOCK:   -8.06 KCAL/MOL
REMARK 923 INTER-LIGAND FREE ENERGY PREDICTED BY IDOCK:   -7.84 KCAL/MOL
REMARK 924 INTRA-LIGAND FREE ENERGY PREDICTED BY IDOCK:   -0.21 KCAL/MOL
REMARK 927      BINDING AFFINITY PREDICTED BY RF-SCORE:    0.00 PKD
ROOT
HETATM    1  C   UNL     1      -9.105   9.961  62.555  1.00  0.00    -0.286 C  
HETATM    2  N   UNL     1     -10.266  10.836  62.594  1.00  0.00    -0.774 NA 
HETATM    3  H   UNL     1     -10.715  11.144  61.732  1.00  0.00     0.000 HD 
ENDROOT
BRANCH   2   4
HETATM    4  C   UNL     1     -10.755  11.246  63.844  1.00  0.00    -0.384 A  
HETATM    5  C   UNL     1     -11.699  12.267  64.037  1.00  0.00    -0.425 A  
HETATM    6  F   UNL     1     -12.301  12.861  62.996  1.00  0.00    -0.583 F  
HETATM    7  C   UNL     1     -12.040  12.730  65.308  1.00  0.00    -0.505 A  
HETATM    8  C   UNL     1     -11.414  12.214  66.447  1.00  0.00    -0.430 A  
HETATM    9  C   UNL     1     -10.495  11.170  66.279  1.00  0.00    -0.312 A  
HETATM   10  C   UNL     1     -10.156  10.714  64.996  1.00  0.00    -0.388 A  
BRANCH   8  11
HETATM   11  C   UNL     1     -11.626  12.798  67.781  1.00  0.00    -0.353 A  
HETATM   12  N   UNL     1     -11.667  14.086  68.056  1.00  0.00    -0.340 NA 
HETATM   13  C   UNL     1     -12.027  14.278  69.385  1.00  0.00    -0.337 A  
HETATM   14  C   UNL     1     -12.183  15.521  70.038  1.00  0.00    -0.380 A  
HETATM   15  C   UNL     1     -12.595  15.556  71.378  1.00  0.00    -0.495 A  
HETATM   16  C   UNL     1     -12.842  14.372  72.057  1.00  0.00    -0.343 A  
HETATM   17  O   UNL     1     -13.256  14.369  73.361  1.00  0.00    -0.576 OA 
HETATM   18  C   UNL     1     -12.679  13.133  71.449  1.00  0.00    -0.390 A  
HETATM   19  C   UNL     1     -12.268  13.113  70.109  1.00  0.00    -0.290 A  
HETATM   20  H   UNL     1     -13.425  13.558  73.826  1.00  0.00     0.000 HD 
HETATM   21  S   UNL     1     -11.993  11.757  69.104  1.00  0.00    -0.253 SA 
ENDBRANCH   8  11
ENDBRANCH   2   4
TORSDOF 2
ENDMDL
MODEL        3
REMARK 921   NORMALIZED FREE ENERGY PREDICTED BY IDOCK:   -7.00 KCAL/MOL
REMARK 922        TOTAL FREE ENERGY PREDICTED BY IDOCK:   -8.03 KCAL/MOL
REMARK 923 INTER-LIGAND FREE ENERGY PREDICTED BY IDOCK:   -7.83 KCAL/MOL
REMARK 924 INTRA-LIGAND FREE ENERGY PREDICTED BY IDOCK:   -0.20 KCAL/MOL
REMARK 927      BINDING AFFINITY PREDICTED BY RF-SCORE:    0.00 PKD
ROOT
HETATM    1  C   UNL     1      -9.618  11.302  63.234  1.00  0.00    -0.357 C  
HETATM    2  N   UNL     1     -10.099  12.647  63.502  1.00  0.00    -0.663 NA 
HETATM    3  H   UNL     1     -10.005  13.383  62.802  1.00  0.00     0.000 HD 
ENDROOT
BRANCH   2   4
HETATM    4  C   UNL     1     -10.697  12.911  64.744  1.00  0.00    -0.333 A  
HETATM    5  C   UNL     1     -11.810  13.745  64.935  1.00  0.00    -0.375 A  
HETATM    6  F   UNL     1     -12.467  14.274  63.892  1.00  0.00    -0.486 F  
HETATM    7  C   UNL     1     -12.271  14.085  66.206  1.00  0.00    -0.493 A  
HETATM    8  C   UNL     1     -11.607  13.633  67.351  1.00  0.00    -0.389 A  
HETATM    9  C   UNL     1     -10.517  12.771  67.184  1.00  0.00    -0.240 A  
HETATM   10  C   UNL     1     -10.057  12.438  65.900  1.00  0.00    -0.272 A  
BRANCH   8  11
HETATM   11  C   UNL     1     -11.966  14.111  68.696  1.00  0.00    -0.338 A  
HETATM   12  N   UNL     1     -12.589  13.406  69.619  1.00  0.00     0.004 NA 
HETATM   13  C   UNL     1     -12.636  14.119  70.811  1.00  0.00    -0.362 A  
HETATM   14  C   UNL     1     -13.215  13.683  72.024  1.00  0.00    -0.522 A  
HETATM   15  C   UNL     1     -13.146  14.500  73.161  1.00  0.00    -0.553 A  
HETATM   16  C   UNL     1     -12.515  15.733  73.091  1.00  0.00    -0.487 A  
HETATM   17  O   UNL     1     -12.420  16.551  74.182  1.00  0.00    -0.638 OA 
HETATM   18  C   UNL     1     -11.954  16.200  71.907  1.00  0.00    -0.583 A  
HETATM   19  C   UNL     1     -12.029  15.371  70.779  1.00  0.00    -0.359 A  
HETATM   20  H   UNL     1     -11.988  17.396  74.134  1.00  0.00     0.000 HD 
HETATM   21  S   UNL     1     -11.428  15.667  69.205  1.00  0.00    -0.382 SA 
ENDBRANCH   8  11
ENDBRANCH   2   4
TORSDOF 2
ENDMDL
MODEL        4
REMARK 921   NORMALIZED FREE ENERGY PREDICTED BY IDOCK:   -6.92 KCAL/MOL
REMARK 922        TOTAL FREE ENERGY PREDICTED BY IDOCK:   -7.94 KCAL/MOL
REMARK 923 INTER-LIGAND FREE ENERGY PREDICTED BY IDOCK:   -7.71 KCAL/MOL
REMARK 924 INTRA-LIGAND FREE ENERGY PREDICTED BY IDOCK:   -0.23 KCAL/MOL
REMARK 927      BINDING AFFINITY PREDICTED BY RF-SCORE:    0.00 PKD
ROOT
HETATM    1  C   UNL     1     -12.853  16.172  73.819  1.00  0.00    -0.531 C  
HETATM    2  N   UNL     1     -11.707  15.713  73.051  1.00  0.00    -0.425 NA 
HETATM    3  H   UNL     1     -10.764  15.779  73.433  1.00  0.00     0.000 HD 
ENDROOT
BRANCH   2   4
HETATM    4  C   UNL     1     -11.928  15.177  71.772  1.00  0.00    -0.382 A  
HETATM    5  C   UNL     1     -12.416  13.885  71.521  1.00  0.00    -0.297 A  
HETATM    6  F   UNL     1     -12.825  13.091  72.521  1.00  0.00    -0.365 F  
HETATM    7  C   UNL     1     -12.478  13.356  70.232  1.00  0.00    -0.285 A  
HETATM    8  C   UNL     1     -12.011  14.088  69.136  1.00  0.00    -0.400 A  
HETATM    9  C   UNL     1     -11.554  15.392  69.361  1.00  0.00    -0.354 A  
HETATM   10  C   UNL     1     -11.492  15.915  70.662  1.00  0.00    -0.426 A  
BRANCH   8  11
HETATM   11  C   UNL     1     -11.906  13.494  67.794  1.00  0.00    -0.362 A  
HETATM   12  N   UNL     1     -12.298  14.062  66.671  1.00  0.00    -0.431 NA 
HETATM   13  C   UNL     1     -11.918  13.283  65.585  1.00  0.00    -0.412 A  
HETATM   14  C   UNL     1     -12.154  13.575  64.222  1.00  0.00    -0.482 A  
HETATM   15  C   UNL     1     -11.669  12.710  63.232  1.00  0.00    -0.466 A  
HETATM   16  C   UNL     1     -10.964  11.571  63.591  1.00  0.00    -0.404 A  
HETATM   17  O   UNL     1     -10.467  10.711  62.651  1.00  0.00    -0.730 OA 
HETATM   18  C   UNL     1     -10.732  11.245  64.923  1.00  0.00    -0.337 A  
HETATM   19  C   UNL     1     -11.221  12.120  65.902  1.00  0.00    -0.339 A  
HETATM   20  H   UNL     1      -9.985   9.930  62.897  1.00  0.00     0.000 HD 
HETATM   21  S   UNL     1     -11.085  11.990  67.603  1.00  0.00    -0.284 SA 
ENDBRANCH   8  11
ENDBRANCH   2   4
TORSDOF 2
ENDMDL
MODEL        5
REMARK 921   NORMALIZED FREE ENERGY PREDICTED BY IDOCK:   -6.75 KCAL/MOL
REMARK 922        TOTAL FREE ENERGY PREDICTED BY IDOCK:   -7.75 KCAL/MOL
REMARK 923 INTER-LIGAND FREE ENERGY PREDICTED BY IDOCK:   -7.55 KCAL/MOL
REMARK 924 INTRA-LIGAND FREE ENERGY PREDICTED BY IDOCK:   -0.20 KCAL/MOL
REMARK 927      BINDING AFFINITY PREDICTED BY RF-SCORE:    0.00 PKD
ROOT
HETATM    1  C   UNL     1     -12.192  15.474  74.404  1.00  0.00    -0.582 C  
HETATM    2  N   UNL     1     -13.079  15.837  73.311  1.00  0.00    -0.542 NA 
HETATM    3  H   UNL     1     -13.808  16.539  73.443  1.00  0.00     0.000 HD 
ENDROOT
BRANCH   2   4
HETATM    4  C   UNL     1     -12.910  15.203  72.070  1.00  0.00    -0.345 A  
HETATM    5  C   UNL     1     -13.058  13.824  71.851  1.00  0.00    -0.388 A  
HETATM    6  F   UNL     1     -13.496  13.010  72.824  1.00  0.00    -0.594 F  
HETATM    7  C   UNL     1     -12.737  13.230  70.631  1.00  0.00    -0.227 A  
HETATM    8  C   UNL     1     -12.211  13.991  69.583  1.00  0.00    -0.383 A  
HETATM    9  C   UNL     1     -12.090  15.374  69.768  1.00  0.00    -0.373 A  
HETATM   10  C   UNL     1     -12.412  15.962  71.001  1.00  0.00    -0.387 A  
BRANCH   8  11
HETATM   11  C   UNL     1     -11.706  13.369  68.349  1.00  0.00    -0.355 A  
HETATM   12  N   UNL     1     -11.058  12.223  68.278  1.00  0.00    -0.222 NA 
HETATM   13  C   UNL     1     -10.858  11.871  66.948  1.00  0.00    -0.263 A  
HETATM   14  C   UNL     1     -10.212  10.705  66.479  1.00  0.00    -0.288 A  
HETATM   15  C   UNL     1     -10.124  10.465  65.101  1.00  0.00    -0.379 A  
HETATM   16  C   UNL     1     -10.668  11.372  64.204  1.00  0.00    -0.371 A  
HETATM   17  O   UNL     1     -10.610  11.164  62.854  1.00  0.00    -0.755 OA 
HETATM   18  C   UNL     1     -11.293  12.538  64.632  1.00  0.00    -0.363 A  
HETATM   19  C   UNL     1     -11.374  12.764  66.013  1.00  0.00    -0.321 A  
HETATM   20  H   UNL     1     -10.982  11.786  62.239  1.00  0.00     0.000 HD 
HETATM   21  S   UNL     1     -12.084  14.090  66.829  1.00  0.00    -0.414 SA 
ENDBRANCH   8  11
ENDBRANCH   2   4
TORSDOF 2
ENDMDL
MODEL        6
REMARK 921   NORMALIZED FREE ENERGY PREDICTED BY IDOCK:   -6.73 KCAL/MOL
REMARK 922        TOTAL FREE ENERGY PREDICTED BY IDOCK:   -7.72 KCAL/MOL
REMARK 923 INTER-LIGAND FREE ENERGY PREDICTED BY IDOCK:   -7.52 KCAL/MOL
REMARK 924 INTRA-LIGAND FREE ENERGY PREDICTED BY IDOCK:   -0.21 KCAL/MOL
REMARK 927      BINDING AFFINITY PREDICTED BY RF-SCORE:    0.00 PKD
ROOT
HETATM    1  C   UNL     1      -9.102  10.100  62.613  1.00  0.00    -0.290 C  
HETATM    2  N   UNL     1     -10.365  10.820  62.643  1.00  0.00    -0.759 NA 
HETATM    3  H   UNL     1     -10.903  10.964  61.788  1.00  0.00     0.000 HD 
ENDROOT
BRANCH   2   4
HETATM    4  C   UNL     1     -10.827  11.313  63.873  1.00  0.00    -0.354 A  
HETATM    5  C   UNL     1     -11.980  12.096  64.038  1.00  0.00    -0.440 A  
HETATM    6  F   UNL     1     -12.806  12.340  63.010  1.00  0.00    -0.542 F  
HETATM    7  C   UNL     1     -12.311  12.677  65.262  1.00  0.00    -0.528 A  
HETATM    8  C   UNL     1     -11.473  12.532  66.371  1.00  0.00    -0.418 A  
HETATM    9  C   UNL     1     -10.337  11.724  66.238  1.00  0.00    -0.259 A  
HETATM   10  C   UNL     1     -10.010  11.147  65.001  1.00  0.00    -0.325 A  
BRANCH   8  11
HETATM   11  C   UNL     1     -11.707  13.270  67.623  1.00  0.00    -0.366 A  
HETATM   12  N   UNL     1     -12.199  12.759  68.734  1.00  0.00    -0.090 NA 
HETATM   13  C   UNL     1     -12.149  13.702  69.754  1.00  0.00    -0.334 A  
HETATM   14  C   UNL     1     -12.577  13.515  71.088  1.00  0.00    -0.438 A  
HETATM   15  C   UNL     1     -12.421  14.551  72.020  1.00  0.00    -0.391 A  
HETATM   16  C   UNL     1     -11.853  15.754  71.630  1.00  0.00    -0.464 A  
HETATM   17  O   UNL     1     -11.677  16.781  72.515  1.00  0.00    -0.508 OA 
HETATM   18  C   UNL     1     -11.440  15.977  70.321  1.00  0.00    -0.369 A  
HETATM   19  C   UNL     1     -11.600  14.932  69.400  1.00  0.00    -0.309 A  
HETATM   20  H   UNL     1     -11.288  17.606  72.247  1.00  0.00     0.000 HD 
HETATM   21  S   UNL     1     -11.183  14.908  67.741  1.00  0.00    -0.331 SA 
ENDBRANCH   8  11
ENDBRANCH   2   4
TORSDOF 2
ENDMDL
MODEL        7
REMARK 921   NORMALIZED FREE ENERGY PREDICTED BY IDOCK:   -6.70 KCAL/MOL
REMARK 922        TOTAL FREE ENERGY PREDICTED BY IDOCK:   -7.68 KCAL/MOL
REMARK 923 INTER-LIGAND FREE ENERGY PREDICTED BY IDOCK:   -7.46 KCAL/MOL
REMARK 924 INTRA-LIGAND FREE ENERGY PREDICTED BY IDOCK:   -0.22 KCAL/MOL
REMARK 927      BINDING AFFINITY PREDICTED BY RF-SCORE:    0.00 PKD
ROOT
HETATM    1  C   UNL     1     -11.674   7.175  72.565  1.00  0.00    -0.180 C  
HETATM    2  N   UNL     1     -11.047   8.481  72.436  1.00  0.00    -0.361 NA 
HETATM    3  H   UNL     1     -10.512   8.880  73.208  1.00  0.00     0.000 HD 
ENDROOT
BRANCH   2   4
HETATM    4  C   UNL     1     -11.192   9.179  71.227  1.00  0.00    -0.337 A  
HETATM    5  C   UNL     1     -10.445   8.929  70.065  1.00  0.00    -0.213 A  
HETATM    6  F   UNL     1      -9.593   7.895  69.997  1.00  0.00    -0.166 F  
HETATM    7  C   UNL     1     -10.531   9.748  68.940  1.00  0.00    -0.233 A  
HETATM    8  C   UNL     1     -11.344  10.886  68.945  1.00  0.00    -0.354 A  
HETATM    9  C   UNL     1     -12.125  11.133  70.081  1.00  0.00    -0.443 A  
HETATM   10  C   UNL     1     -12.029  10.305  71.210  1.00  0.00    -0.457 A  
BRANCH   8  11
HETATM   11  C   UNL     1     -11.325  11.859  67.841  1.00  0.00    -0.291 A  
HETATM   12  N   UNL     1     -11.995  11.749  66.711  1.00  0.00    -0.529 NA 
HETATM   13  C   UNL     1     -11.858  12.911  65.961  1.00  0.00    -0.430 A  
HETATM   14  C   UNL     1     -12.440  13.167  64.700  1.00  0.00    -0.433 A  
HETATM   15  C   UNL     1     -12.246  14.410  64.083  1.00  0.00    -0.393 A  
HETATM   16  C   UNL     1     -11.479  15.382  64.709  1.00  0.00    -0.336 A  
HETATM   17  O   UNL     1     -11.277  16.609  64.141  1.00  0.00    -1.410 OA 
HETATM   18  C   UNL     1     -10.876  15.154  65.941  1.00  0.00    -0.342 A  
HETATM   19  C   UNL     1     -11.081  13.908  66.547  1.00  0.00    -0.308 A  
HETATM   20  H   UNL     1     -10.751  17.275  64.570  1.00  0.00     0.000 HD 
HETATM   21  S   UNL     1     -10.481  13.347  68.048  1.00  0.00    -0.244 SA 
ENDBRANCH   8  11
ENDBRANCH   2   4
TORSDOF 2
ENDMDL
MODEL        8
REMARK 921   NORMALIZED FREE ENERGY PREDICTED BY IDOCK:   -6.64 KCAL/MOL
REMARK 922        TOTAL FREE ENERGY PREDICTED BY IDOCK:   -7.62 KCAL/MOL
REMARK 923 INTER-LIGAND FREE ENERGY PREDICTED BY IDOCK:   -7.40 KCAL/MOL
REMARK 924 INTRA-LIGAND FREE ENERGY PREDICTED BY IDOCK:   -0.22 KCAL/MOL
REMARK 927      BINDING AFFINITY PREDICTED BY RF-SCORE:    0.00 PKD
ROOT
HETATM    1  C   UNL     1     -10.301   6.630  72.524  1.00  0.00    -0.195 C  
HETATM    2  N   UNL     1     -10.338   8.049  72.837  1.00  0.00    -0.334 NA 
HETATM    3  H   UNL     1     -10.257   8.372  73.802  1.00  0.00     0.000 HD 
ENDROOT
BRANCH   2   4
HETATM    4  C   UNL     1     -10.489   8.966  71.785  1.00  0.00    -0.360 A  
HETATM    5  C   UNL     1     -11.681   9.637  71.473  1.00  0.00    -0.400 A  
HETATM    6  F   UNL     1     -12.764   9.528  72.258  1.00  0.00    -0.432 F  
HETATM    7  C   UNL     1     -11.811  10.425  70.330  1.00  0.00    -0.418 A  
HETATM    8  C   UNL     1     -10.755  10.542  69.420  1.00  0.00    -0.277 A  
HETATM    9  C   UNL     1      -9.545   9.909  69.730  1.00  0.00    -0.261 A  
HETATM   10  C   UNL     1      -9.425   9.115  70.881  1.00  0.00    -0.343 A  
BRANCH   8  11
HETATM   11  C   UNL     1     -10.917  11.223  68.126  1.00  0.00    -0.231 A  
HETATM   12  N   UNL     1     -10.548  10.743  66.955  1.00  0.00    -0.248 NA 
HETATM   13  C   UNL     1     -10.981  11.585  65.938  1.00  0.00    -0.243 A  
HETATM   14  C   UNL     1     -10.782  11.393  64.552  1.00  0.00    -0.391 A  
HETATM   15  C   UNL     1     -11.319  12.312  63.639  1.00  0.00    -0.547 A  
HETATM   16  C   UNL     1     -12.037  13.406  64.098  1.00  0.00    -0.433 A  
HETATM   17  O   UNL     1     -12.583  14.315  63.235  1.00  0.00    -1.069 OA 
HETATM   18  C   UNL     1     -12.233  13.633  65.455  1.00  0.00    -0.476 A  
HETATM   19  C   UNL     1     -11.693  12.706  66.356  1.00  0.00    -0.405 A  
HETATM   20  H   UNL     1     -13.075  15.065  63.549  1.00  0.00     0.000 HD 
HETATM   21  S   UNL     1     -11.777  12.715  68.065  1.00  0.00    -0.337 SA 
ENDBRANCH   8  11
ENDBRANCH   2   4
TORSDOF 2
ENDMDL
MODEL        9
REMARK 921   NORMALIZED FREE ENERGY PREDICTED BY IDOCK:   -6.59 KCAL/MOL
REMARK 922        TOTAL FREE ENERGY PREDICTED BY IDOCK:   -7.56 KCAL/MOL
REMARK 923 INTER-LIGAND FREE ENERGY PREDICTED BY IDOCK:   -7.34 KCAL/MOL
REMARK 924 INTRA-LIGAND FREE ENERGY PREDICTED BY IDOCK:   -0.23 KCAL/MOL
REMARK 927      BINDING AFFINITY PREDICTED BY RF-SCORE:    0.00 PKD
ROOT
HETATM    1  C   UNL     1      -6.674  20.415  66.256  1.00  0.00    -0.241 C  
HETATM    2  N   UNL     1      -7.860  19.848  65.635  1.00  0.00    -0.453 NA 
HETATM    3  H   UNL     1      -8.067  20.022  64.651  1.00  0.00     0.000 HD 
ENDROOT
BRANCH   2   4
HETATM    4  C   UNL     1      -8.714  19.056  66.418  1.00  0.00    -0.317 A  
HETATM    5  C   UNL     1      -9.767  19.550  67.203  1.00  0.00    -0.342 A  
HETATM    6  F   UNL     1     -10.110  20.847  67.166  1.00  0.00    -0.581 F  
HETATM    7  C   UNL     1     -10.490  18.733  68.072  1.00  0.00    -0.410 A  
HETATM    8  C   UNL     1     -10.158  17.384  68.224  1.00  0.00    -0.339 A  
HETATM    9  C   UNL     1      -9.134  16.861  67.423  1.00  0.00    -0.221 A  
HETATM   10  C   UNL     1      -8.410  17.693  66.554  1.00  0.00    -0.300 A  
BRANCH   8  11
HETATM   11  C   UNL     1     -10.788  16.541  69.253  1.00  0.00    -0.326 A  
HETATM   12  N   UNL     1     -10.890  16.841  70.532  1.00  0.00     0.055 NA 
HETATM   13  C   UNL     1     -11.665  15.888  71.184  1.00  0.00    -0.442 A  
HETATM   14  C   UNL     1     -12.002  15.881  72.556  1.00  0.00    -0.622 A  
HETATM   15  C   UNL     1     -12.833  14.872  73.063  1.00  0.00    -0.586 A  
HETATM   16  C   UNL     1     -13.316  13.884  72.219  1.00  0.00    -0.503 A  
HETATM   17  O   UNL     1     -14.137  12.891  72.677  1.00  0.00    -0.709 OA 
HETATM   18  C   UNL     1     -12.986  13.851  70.868  1.00  0.00    -0.316 A  
HETATM   19  C   UNL     1     -12.156  14.867  70.375  1.00  0.00    -0.330 A  
HETATM   20  H   UNL     1     -14.467  12.213  72.098  1.00  0.00     0.000 HD 
HETATM   21  S   UNL     1     -11.593  15.094  68.776  1.00  0.00    -0.353 SA 
ENDBRANCH   8  11
ENDBRANCH   2   4
TORSDOF 2
ENDMDL
MODEL       10
REMARK 921   NORMALIZED FREE ENERGY PREDICTED BY IDOCK:   -6.55 KCAL/MOL
REMARK 922        TOTAL FREE ENERGY PREDICTED BY IDOCK:   -7.52 KCAL/MOL
REMARK 923 INTER-LIGAND FREE ENERGY PREDICTED BY IDOCK:   -7.29 KCAL/MOL
REMARK 924 INTRA-LIGAND FREE ENERGY PREDICTED BY IDOCK:   -0.23 KCAL/MOL
REMARK 927      BINDING AFFINITY PREDICTED BY RF-SCORE:    0.00 PKD
ROOT
HETATM    1  C   UNL     1     -10.756   9.792  67.770  1.00  0.00    -0.272 C  
HETATM    2  N   UNL     1     -11.880  10.691  67.976  1.00  0.00    -0.767 NA 
HETATM    3  H   UNL     1     -12.788  10.331  68.273  1.00  0.00     0.000 HD 
ENDROOT
BRANCH   2   4
HETATM    4  C   UNL     1     -11.690  12.064  67.758  1.00  0.00    -0.309 A  
HETATM    5  C   UNL     1     -11.762  12.692  66.505  1.00  0.00    -0.400 A  
HETATM    6  F   UNL     1     -12.142  12.016  65.411  1.00  0.00    -0.423 F  
HETATM    7  C   UNL     1     -11.421  14.033  66.329  1.00  0.00    -0.358 A  
HETATM    8  C   UNL     1     -10.951  14.797  67.401  1.00  0.00    -0.313 A  
HETATM    9  C   UNL     1     -10.906  14.200  68.667  1.00  0.00    -0.268 A  
HETATM   10  C   UNL     1     -11.247  12.849  68.834  1.00  0.00    -0.327 A  
BRANCH   8  11
HETATM   11  C   UNL     1     -10.425  16.159  67.212  1.00  0.00    -0.309 A  
HETATM   12  N   UNL     1     -11.025  17.271  67.586  1.00  0.00    -0.226 NA 
HETATM   13  C   UNL     1     -10.183  18.358  67.383  1.00  0.00    -0.372 A  
HETATM   14  C   UNL     1     -10.476  19.709  67.674  1.00  0.00    -0.579 A  
HETATM   15  C   UNL     1      -9.503  20.695  67.454  1.00  0.00    -0.516 A  
HETATM   16  C   UNL     1      -8.262  20.342  66.946  1.00  0.00    -0.294 A  
HETATM   17  O   UNL     1      -7.287  21.276  66.729  1.00  0.00    -0.708 OA 
HETATM   18  C   UNL     1      -7.950  19.024  66.631  1.00  0.00    -0.282 A  
HETATM   19  C   UNL     1      -8.931  18.050  66.858  1.00  0.00    -0.262 A  
HETATM   20  H   UNL     1      -6.436  21.033  66.381  1.00  0.00     0.000 HD 
HETATM   21  S   UNL     1      -8.836  16.364  66.578  1.00  0.00    -0.309 SA 
ENDBRANCH   8  11
ENDBRANCH   2   4
TORSDOF 2
ENDMDL
MODEL       11
REMARK 921   NORMALIZED FREE ENERGY PREDICTED BY IDOCK:   -6.50 KCAL/MOL
REMARK 922        TOTAL FREE ENERGY PREDICTED BY IDOCK:   -7.46 KCAL/MOL
REMARK 923 INTER-LIGAND FREE ENERGY PREDICTED BY IDOCK:   -7.24 KCAL/MOL
REMARK 924 INTRA-LIGAND FREE ENERGY PREDICTED BY IDOCK:   -0.22 KCAL/MOL
REMARK 927      BINDING AFFINITY PREDICTED BY RF-SCORE:    0.00 PKD
ROOT
HETATM    1  C   UNL     1     -11.853   6.938  71.152  1.00  0.00    -0.349 C  
HETATM    2  N   UNL     1     -11.211   8.073  71.796  1.00  0.00    -0.255 NA 
HETATM    3  H   UNL     1     -10.796   7.981  72.723  1.00  0.00     0.000 HD 
ENDROOT
BRANCH   2   4
HETATM    4  C   UNL     1     -11.175   9.300  71.113  1.00  0.00    -0.343 A  
HETATM    5  C   UNL     1     -12.107  10.336  71.281  1.00  0.00    -0.382 A  
HETATM    6  F   UNL     1     -13.062  10.264  72.220  1.00  0.00    -0.505 F  
HETATM    7  C   UNL     1     -12.104  11.472  70.472  1.00  0.00    -0.472 A  
HETATM    8  C   UNL     1     -11.186  11.600  69.425  1.00  0.00    -0.311 A  
HETATM    9  C   UNL     1     -10.225  10.595  69.263  1.00  0.00    -0.235 A  
HETATM   10  C   UNL     1     -10.238   9.453  70.080  1.00  0.00    -0.271 A  
BRANCH   8  11
HETATM   11  C   UNL     1     -11.267  12.702  68.452  1.00  0.00    -0.279 A  
HETATM   12  N   UNL     1     -10.795  13.919  68.632  1.00  0.00    -0.255 NA 
HETATM   13  C   UNL     1     -10.917  14.655  67.458  1.00  0.00    -0.298 A  
HETATM   14  C   UNL     1     -10.511  15.994  67.265  1.00  0.00    -0.308 A  
HETATM   15  C   UNL     1     -10.660  16.591  66.005  1.00  0.00    -0.259 A  
HETATM   16  C   UNL     1     -11.210  15.868  64.957  1.00  0.00    -0.290 A  
HETATM   17  O   UNL     1     -11.360  16.415  63.713  1.00  0.00    -1.487 OA 
HETATM   18  C   UNL     1     -11.638  14.555  65.120  1.00  0.00    -0.371 A  
HETATM   19  C   UNL     1     -11.480  13.971  66.384  1.00  0.00    -0.352 A  
HETATM   20  H   UNL     1     -11.737  15.919  62.994  1.00  0.00     0.000 HD 
HETATM   21  S   UNL     1     -11.900  12.388  66.880  1.00  0.00    -0.215 SA 
ENDBRANCH   8  11
ENDBRANCH   2   4
TORSDOF 2
ENDMDL
MODEL       12
REMARK 921   NORMALIZED FREE ENERGY PREDICTED BY IDOCK:   -6.49 KCAL/MOL
REMARK 922        TOTAL FREE ENERGY PREDICTED BY IDOCK:   -7.46 KCAL/MOL
REMARK 923 INTER-LIGAND FREE ENERGY PREDICTED BY IDOCK:   -7.24 KCAL/MOL
REMARK 924 INTRA-LIGAND FREE ENERGY PREDICTED BY IDOCK:   -0.21 KCAL/MOL
REMARK 927      BINDING AFFINITY PREDICTED BY RF-SCORE:    0.00 PKD
ROOT
HETATM    1  C   UNL     1      -5.707  21.257  67.033  1.00  0.00    -0.312 C  
HETATM    2  N   UNL     1      -7.157  21.357  66.997  1.00  0.00    -0.835 NA 
HETATM    3  H   UNL     1      -7.621  22.256  67.126  1.00  0.00     0.000 HD 
ENDROOT
BRANCH   2   4
HETATM    4  C   UNL     1      -7.905  20.189  66.781  1.00  0.00    -0.303 A  
HETATM    5  C   UNL     1      -9.286  20.070  67.006  1.00  0.00    -0.376 A  
HETATM    6  F   UNL     1     -10.027  21.135  67.348  1.00  0.00    -0.594 F  
HETATM    7  C   UNL     1      -9.949  18.847  66.912  1.00  0.00    -0.391 A  
HETATM    8  C   UNL     1      -9.245  17.674  66.626  1.00  0.00    -0.284 A  
HETATM    9  C   UNL     1      -7.873  17.775  66.362  1.00  0.00    -0.312 A  
HETATM   10  C   UNL     1      -7.214  19.010  66.463  1.00  0.00    -0.243 A  
BRANCH   8  11
HETATM   11  C   UNL     1      -9.884  16.350  66.688  1.00  0.00    -0.261 A  
HETATM   12  N   UNL     1      -9.838  15.431  65.744  1.00  0.00    -0.349 NA 
HETATM   13  C   UNL     1     -10.427  14.255  66.194  1.00  0.00    -0.292 A  
HETATM   14  C   UNL     1     -10.554  13.051  65.466  1.00  0.00    -0.297 A  
HETATM   15  C   UNL     1     -11.136  11.929  66.073  1.00  0.00    -0.369 A  
HETATM   16  C   UNL     1     -11.589  12.007  67.381  1.00  0.00    -0.318 A  
HETATM   17  O   UNL     1     -12.152  10.930  68.008  1.00  0.00    -0.780 OA 
HETATM   18  C   UNL     1     -11.497  13.183  68.118  1.00  0.00    -0.349 A  
HETATM   19  C   UNL     1     -10.911  14.295  67.499  1.00  0.00    -0.289 A  
HETATM   20  H   UNL     1     -12.463  10.983  68.904  1.00  0.00     0.000 HD 
HETATM   21  S   UNL     1     -10.656  15.857  68.148  1.00  0.00    -0.291 SA 
ENDBRANCH   8  11
ENDBRANCH   2   4
TORSDOF 2
ENDMDL
MODEL       13
REMARK 921   NORMALIZED FREE ENERGY PREDICTED BY IDOCK:   -6.41 KCAL/MOL
REMARK 922        TOTAL FREE ENERGY PREDICTED BY IDOCK:   -7.37 KCAL/MOL
REMARK 923 INTER-LIGAND FREE ENERGY PREDICTED BY IDOCK:   -7.15 KCAL/MOL
REMARK 924 INTRA-LIGAND FREE ENERGY PREDICTED BY IDOCK:   -0.22 KCAL/MOL
REMARK 927      BINDING AFFINITY PREDICTED BY RF-SCORE:    0.00 PKD
ROOT
HETATM    1  C   UNL     1      -6.258  21.206  66.766  1.00  0.00    -0.315 C  
HETATM    2  N   UNL     1      -7.654  21.346  67.147  1.00  0.00    -0.763 NA 
HETATM    3  H   UNL     1      -8.081  22.268  67.230  1.00  0.00     0.000 HD 
ENDROOT
BRANCH   2   4
HETATM    4  C   UNL     1      -8.401  20.184  67.397  1.00  0.00    -0.338 A  
HETATM    5  C   UNL     1      -8.171  19.300  68.463  1.00  0.00    -0.366 A  
HETATM    6  F   UNL     1      -7.262  19.577  69.410  1.00  0.00    -0.372 F  
HETATM    7  C   UNL     1      -8.851  18.088  68.579  1.00  0.00    -0.304 A  
HETATM    8  C   UNL     1      -9.767  17.687  67.602  1.00  0.00    -0.277 A  
HETATM    9  C   UNL     1     -10.038  18.571  66.550  1.00  0.00    -0.425 A  
HETATM   10  C   UNL     1      -9.346  19.787  66.440  1.00  0.00    -0.488 A  
BRANCH   8  11
HETATM   11  C   UNL     1     -10.370  16.345  67.607  1.00  0.00    -0.284 A  
HETATM   12  N   UNL     1     -10.725  15.660  66.538  1.00  0.00    -0.307 NA 
HETATM   13  C   UNL     1     -11.125  14.380  66.905  1.00  0.00    -0.323 A  
HETATM   14  C   UNL     1     -11.562  13.358  66.032  1.00  0.00    -0.375 A  
HETATM   15  C   UNL     1     -11.893  12.097  66.547  1.00  0.00    -0.322 A  
HETATM   16  C   UNL     1     -11.795  11.859  67.910  1.00  0.00    -0.238 A  
HETATM   17  O   UNL     1     -12.099  10.638  68.445  1.00  0.00    -0.813 OA 
HETATM   18  C   UNL     1     -11.387  12.848  68.797  1.00  0.00    -0.333 A  
HETATM   19  C   UNL     1     -11.058  14.103  68.268  1.00  0.00    -0.254 A  
HETATM   20  H   UNL     1     -12.032  10.474  69.379  1.00  0.00     0.000 HD 
HETATM   21  S   UNL     1     -10.522  15.498  69.101  1.00  0.00    -0.248 SA 
ENDBRANCH   8  11
ENDBRANCH   2   4
TORSDOF 2
ENDMDL
MODEL       14
REMARK 921   NORMALIZED FREE ENERGY PREDICTED BY IDOCK:   -6.39 KCAL/MOL
REMARK 922        TOTAL FREE ENERGY PREDICTED BY IDOCK:   -7.34 KCAL/MOL
REMARK 923 INTER-LIGAND FREE ENERGY PREDICTED BY IDOCK:   -7.13 KCAL/MOL
REMARK 924 INTRA-LIGAND FREE ENERGY PREDICTED BY IDOCK:   -0.21 KCAL/MOL
REMARK 927      BINDING AFFINITY PREDICTED BY RF-SCORE:    0.00 PKD
ROOT
HETATM    1  C   UNL     1     -10.096   6.778  73.961  1.00  0.00    -0.359 C  
HETATM    2  N   UNL     1     -11.410   7.228  73.533  1.00  0.00    -0.539 NA 
HETATM    3  H   UNL     1     -12.256   6.789  73.898  1.00  0.00     0.000 HD 
ENDROOT
BRANCH   2   4
HETATM    4  C   UNL     1     -11.491   8.281  72.608  1.00  0.00    -0.353 A  
HETATM    5  C   UNL     1     -12.685   8.893  72.196  1.00  0.00    -0.405 A  
HETATM    6  F   UNL     1     -13.858   8.577  72.764  1.00  0.00    -0.320 F  
HETATM    7  C   UNL     1     -12.717   9.835  71.168  1.00  0.00    -0.433 A  
HETATM    8  C   UNL     1     -11.551  10.176  70.475  1.00  0.00    -0.411 A  
HETATM    9  C   UNL     1     -10.344   9.603  70.894  1.00  0.00    -0.334 A  
HETATM   10  C   UNL     1     -10.322   8.654  71.928  1.00  0.00    -0.405 A  
BRANCH   8  11
HETATM   11  C   UNL     1     -11.581  11.033  69.280  1.00  0.00    -0.314 A  
HETATM   12  N   UNL     1     -11.901  12.312  69.262  1.00  0.00    -0.313 NA 
HETATM   13  C   UNL     1     -11.684  12.839  67.993  1.00  0.00    -0.356 A  
HETATM   14  C   UNL     1     -11.903  14.176  67.595  1.00  0.00    -0.427 A  
HETATM   15  C   UNL     1     -11.595  14.571  66.285  1.00  0.00    -0.364 A  
HETATM   16  C   UNL     1     -11.083  13.648  65.386  1.00  0.00    -0.298 A  
HETATM   17  O   UNL     1     -10.761  14.001  64.105  1.00  0.00    -0.565 OA 
HETATM   18  C   UNL     1     -10.875  12.320  65.741  1.00  0.00    -0.313 A  
HETATM   19  C   UNL     1     -11.185  11.940  67.054  1.00  0.00    -0.323 A  
HETATM   20  H   UNL     1     -10.410  13.368  63.488  1.00  0.00     0.000 HD 
HETATM   21  S   UNL     1     -11.030  10.397  67.776  1.00  0.00    -0.294 SA 
ENDBRANCH   8  11
ENDBRANCH   2   4
TORSDOF 2
ENDMDL
MODEL       15
REMARK 921   NORMALIZED FREE ENERGY PREDICTED BY IDOCK:   -6.31 KCAL/MOL
REMARK 922        TOTAL FREE ENERGY PREDICTED BY IDOCK:   -7.26 KCAL/MOL
REMARK 923 INTER-LIGAND FREE ENERGY PREDICTED BY IDOCK:   -7.03 KCAL/MOL
REMARK 924 INTRA-LIGAND FREE ENERGY PREDICTED BY IDOCK:   -0.23 KCAL/MOL
REMARK 927      BINDING AFFINITY PREDICTED BY RF-SCORE:    0.00 PKD
ROOT
HETATM    1  C   UNL     1     -12.250   9.184  71.304  1.00  0.00    -0.327 C  
HETATM    2  N   UNL     1     -13.003  10.166  70.540  1.00  0.00    -0.578 NA 
HETATM    3  H   UNL     1     -13.962   9.975  70.250  1.00  0.00     0.000 HD 
ENDROOT
BRANCH   2   4
HETATM    4  C   UNL     1     -12.383  11.381  70.212  1.00  0.00    -0.297 A  
HETATM    5  C   UNL     1     -12.521  12.572  70.943  1.00  0.00    -0.269 A  
HETATM    6  F   UNL     1     -13.189  12.599  72.106  1.00  0.00    -0.531 F  
HETATM    7  C   UNL     1     -11.999  13.783  70.490  1.00  0.00    -0.367 A  
HETATM    8  C   UNL     1     -11.345  13.862  69.256  1.00  0.00    -0.321 A  
HETATM    9  C   UNL     1     -11.164  12.679  68.529  1.00  0.00    -0.315 A  
HETATM   10  C   UNL     1     -11.697  11.465  68.991  1.00  0.00    -0.409 A  
BRANCH   8  11
HETATM   11  C   UNL     1     -10.935  15.150  68.676  1.00  0.00    -0.255 A  
HETATM   12  N   UNL     1     -10.975  15.462  67.395  1.00  0.00    -0.311 NA 
HETATM   13  C   UNL     1     -10.652  16.803  67.221  1.00  0.00    -0.275 A  
HETATM   14  C   UNL     1     -10.601  17.498  65.992  1.00  0.00    -0.217 A  
HETATM   15  C   UNL     1     -10.301  18.867  65.980  1.00  0.00    -0.485 A  
HETATM   16  C   UNL     1     -10.050  19.532  67.171  1.00  0.00    -0.400 A  
HETATM   17  O   UNL     1      -9.765  20.869  67.196  1.00  0.00    -0.654 OA 
HETATM   18  C   UNL     1     -10.073  18.872  68.394  1.00  0.00    -0.449 A  
HETATM   19  C   UNL     1     -10.377  17.504  68.392  1.00  0.00    -0.378 A  
HETATM   20  H   UNL     1      -9.593  21.325  68.013  1.00  0.00     0.000 HD 
HETATM   21  S   UNL     1     -10.486  16.440  69.727  1.00  0.00    -0.194 SA 
ENDBRANCH   8  11
ENDBRANCH   2   4
TORSDOF 2
ENDMDL
MODEL       16
REMARK 921   NORMALIZED FREE ENERGY PREDICTED BY IDOCK:   -6.25 KCAL/MOL
REMARK 922        TOTAL FREE ENERGY PREDICTED BY IDOCK:   -7.18 KCAL/MOL
REMARK 923 INTER-LIGAND FREE ENERGY PREDICTED BY IDOCK:   -6.94 KCAL/MOL
REMARK 924 INTRA-LIGAND FREE ENERGY PREDICTED BY IDOCK:   -0.24 KCAL/MOL
REMARK 927      BINDING AFFINITY PREDICTED BY RF-SCORE:    0.00 PKD
ROOT
HETATM    1  C   UNL     1      -7.915  19.255  66.190  1.00  0.00    -0.294 C  
HETATM    2  N   UNL     1      -9.344  19.047  66.018  1.00  0.00    -0.458 NA 
HETATM    3  H   UNL     1      -9.881  19.629  65.375  1.00  0.00     0.000 HD 
ENDROOT
BRANCH   2   4
HETATM    4  C   UNL     1      -9.967  18.028  66.755  1.00  0.00    -0.346 A  
HETATM    5  C   UNL     1     -10.257  18.096  68.126  1.00  0.00    -0.388 A  
HETATM    6  F   UNL     1     -10.052  19.223  68.824  1.00  0.00    -0.425 F  
HETATM    7  C   UNL     1     -10.745  16.998  68.835  1.00  0.00    -0.300 A  
HETATM    8  C   UNL     1     -10.927  15.764  68.204  1.00  0.00    -0.330 A  
HETATM    9  C   UNL     1     -10.678  15.684  66.828  1.00  0.00    -0.300 A  
HETATM   10  C   UNL     1     -10.183  16.793  66.124  1.00  0.00    -0.363 A  
BRANCH   8  11
HETATM   11  C   UNL     1     -11.276  14.550  68.958  1.00  0.00    -0.268 A  
HETATM   12  N   UNL     1     -11.935  14.520  70.100  1.00  0.00    -0.295 NA 
HETATM   13  C   UNL     1     -12.213  13.205  70.454  1.00  0.00    -0.316 A  
HETATM   14  C   UNL     1     -12.912  12.778  71.606  1.00  0.00    -0.402 A  
HETATM   15  C   UNL     1     -13.155  11.412  71.806  1.00  0.00    -0.523 A  
HETATM   16  C   UNL     1     -12.705  10.485  70.878  1.00  0.00    -0.402 A  
HETATM   17  O   UNL     1     -12.934   9.147  71.036  1.00  0.00    -0.506 OA 
HETATM   18  C   UNL     1     -11.997  10.871  69.745  1.00  0.00    -0.423 A  
HETATM   19  C   UNL     1     -11.764  12.240  69.556  1.00  0.00    -0.332 A  
HETATM   20  H   UNL     1     -12.625   8.511  70.400  1.00  0.00     0.000 HD 
HETATM   21  S   UNL     1     -10.939  13.007  68.269  1.00  0.00    -0.273 SA 
ENDBRANCH   8  11
ENDBRANCH   2   4
TORSDOF 2
ENDMDL
MODEL       17
REMARK 921   NORMALIZED FREE ENERGY PREDICTED BY IDOCK:   -6.25 KCAL/MOL
REMARK 922        TOTAL FREE ENERGY PREDICTED BY IDOCK:   -7.18 KCAL/MOL
REMARK 923 INTER-LIGAND FREE ENERGY PREDICTED BY IDOCK:   -6.98 KCAL/MOL
REMARK 924 INTRA-LIGAND FREE ENERGY PREDICTED BY IDOCK:   -0.20 KCAL/MOL
REMARK 927      BINDING AFFINITY PREDICTED BY RF-SCORE:    0.00 PKD
ROOT
HETATM    1  C   UNL     1     -11.364   7.776  72.822  1.00  0.00    -0.389 C  
HETATM    2  N   UNL     1     -10.188   8.263  72.119  1.00  0.00    -0.258 NA 
HETATM    3  H   UNL     1      -9.253   7.965  72.399  1.00  0.00     0.000 HD 
ENDROOT
BRANCH   2   4
HETATM    4  C   UNL     1     -10.367   9.152  71.047  1.00  0.00    -0.293 A  
HETATM    5  C   UNL     1      -9.391   9.447  70.083  1.00  0.00    -0.241 A  
HETATM    6  F   UNL     1      -8.220   8.792  70.057  1.00  0.00    -0.100 F  
HETATM    7  C   UNL     1      -9.574  10.445  69.126  1.00  0.00    -0.226 A  
HETATM    8  C   UNL     1     -10.735  11.223  69.120  1.00  0.00    -0.247 A  
HETATM    9  C   UNL     1     -11.737  10.921  70.050  1.00  0.00    -0.427 A  
HETATM   10  C   UNL     1     -11.542   9.917  71.012  1.00  0.00    -0.470 A  
BRANCH   8  11
HETATM   11  C   UNL     1     -10.884  12.390  68.235  1.00  0.00    -0.237 A  
HETATM   12  N   UNL     1     -10.311  13.564  68.413  1.00  0.00    -0.244 NA 
HETATM   13  C   UNL     1     -10.553  14.383  67.315  1.00  0.00    -0.279 A  
HETATM   14  C   UNL     1     -10.092  15.707  67.142  1.00  0.00    -0.256 A  
HETATM   15  C   UNL     1     -10.382  16.394  65.955  1.00  0.00    -0.378 A  
HETATM   16  C   UNL     1     -11.124  15.775  64.959  1.00  0.00    -0.370 A  
HETATM   17  O   UNL     1     -11.416  16.412  63.785  1.00  0.00    -1.590 OA 
HETATM   18  C   UNL     1     -11.609  14.481  65.108  1.00  0.00    -0.371 A  
HETATM   19  C   UNL     1     -11.310  13.805  66.299  1.00  0.00    -0.321 A  
HETATM   20  H   UNL     1     -11.925  15.988  63.103  1.00  0.00     0.000 HD 
HETATM   21  S   UNL     1     -11.757  12.219  66.759  1.00  0.00    -0.285 SA 
ENDBRANCH   8  11
ENDBRANCH   2   4
TORSDOF 2
ENDMDL
MODEL       18
REMARK 921   NORMALIZED FREE ENERGY PREDICTED BY IDOCK:   -6.22 KCAL/MOL
REMARK 922        TOTAL FREE ENERGY PREDICTED BY IDOCK:   -7.15 KCAL/MOL
REMARK 923 INTER-LIGAND FREE ENERGY PREDICTED BY IDOCK:   -6.95 KCAL/MOL
REMARK 924 INTRA-LIGAND FREE ENERGY PREDICTED BY IDOCK:   -0.20 KCAL/MOL
REMARK 927      BINDING AFFINITY PREDICTED BY RF-SCORE:    0.00 PKD
ROOT
HETATM    1  C   UNL     1     -11.658  16.086  64.426  1.00  0.00    -0.212 C  
HETATM    2  N   UNL     1     -11.883  14.655  64.302  1.00  0.00    -0.664 NA 
HETATM    3  H   UNL     1     -12.212  14.253  63.425  1.00  0.00     0.000 HD 
ENDROOT
BRANCH   2   4
HETATM    4  C   UNL     1     -11.636  13.838  65.417  1.00  0.00    -0.320 A  
HETATM    5  C   UNL     1     -11.328  12.470  65.353  1.00  0.00    -0.325 A  
HETATM    6  F   UNL     1     -11.132  11.857  64.176  1.00  0.00    -0.336 F  
HETATM    7  C   UNL     1     -11.235  11.678  66.497  1.00  0.00    -0.356 A  
HETATM    8  C   UNL     1     -11.489  12.218  67.762  1.00  0.00    -0.392 A  
HETATM    9  C   UNL     1     -11.763  13.589  67.851  1.00  0.00    -0.392 A  
HETATM   10  C   UNL     1     -11.858  14.377  66.694  1.00  0.00    -0.417 A  
BRANCH   8  11
HETATM   11  C   UNL     1     -11.566  11.374  68.965  1.00  0.00    -0.317 A  
HETATM   12  N   UNL     1     -12.642  11.190  69.705  1.00  0.00    -0.185 NA 
HETATM   13  C   UNL     1     -12.394  10.225  70.674  1.00  0.00    -0.325 A  
HETATM   14  C   UNL     1     -13.311   9.756  71.641  1.00  0.00    -0.487 A  
HETATM   15  C   UNL     1     -12.927   8.741  72.529  1.00  0.00    -0.382 A  
HETATM   16  C   UNL     1     -11.649   8.206  72.458  1.00  0.00    -0.404 A  
HETATM   17  O   UNL     1     -11.245   7.209  73.301  1.00  0.00    -0.536 OA 
HETATM   18  C   UNL     1     -10.717   8.660  71.531  1.00  0.00    -0.352 A  
HETATM   19  C   UNL     1     -11.116   9.673  70.649  1.00  0.00    -0.319 A  
HETATM   20  H   UNL     1     -10.369   6.842  73.253  1.00  0.00     0.000 HD 
HETATM   21  S   UNL     1     -10.203  10.419  69.409  1.00  0.00    -0.225 SA 
ENDBRANCH   8  11
ENDBRANCH   2   4
TORSDOF 2
ENDMDL
MODEL       19
REMARK 921   NORMALIZED FREE ENERGY PREDICTED BY IDOCK:   -6.14 KCAL/MOL
REMARK 922        TOTAL FREE ENERGY PREDICTED BY IDOCK:   -7.06 KCAL/MOL
REMARK 923 INTER-LIGAND FREE ENERGY PREDICTED BY IDOCK:   -6.85 KCAL/MOL
REMARK 924 INTRA-LIGAND FREE ENERGY PREDICTED BY IDOCK:   -0.21 KCAL/MOL
REMARK 927      BINDING AFFINITY PREDICTED BY RF-SCORE:    0.00 PKD
ROOT
HETATM    1  C   UNL     1      -6.226  19.535  69.398  1.00  0.00    -0.302 C  
HETATM    2  N   UNL     1      -7.653  19.664  69.146  1.00  0.00    -0.312 NA 
HETATM    3  H   UNL     1      -8.205  20.372  69.630  1.00  0.00     0.000 HD 
ENDROOT
BRANCH   2   4
HETATM    4  C   UNL     1      -8.253  18.793  68.223  1.00  0.00    -0.325 A  
HETATM    5  C   UNL     1      -9.637  18.609  68.081  1.00  0.00    -0.331 A  
HETATM    6  F   UNL     1     -10.511  19.362  68.765  1.00  0.00    -0.438 F  
HETATM    7  C   UNL     1     -10.171  17.626  67.249  1.00  0.00    -0.343 A  
HETATM    8  C   UNL     1      -9.334  16.751  66.549  1.00  0.00    -0.288 A  
HETATM    9  C   UNL     1      -7.950  16.941  66.648  1.00  0.00    -0.300 A  
HETATM   10  C   UNL     1      -7.422  17.931  67.492  1.00  0.00    -0.213 A  
BRANCH   8  11
HETATM   11  C   UNL     1      -9.865  15.600  65.801  1.00  0.00    -0.351 A  
HETATM   12  N   UNL     1      -9.482  14.347  65.948  1.00  0.00    -0.214 NA 
HETATM   13  C   UNL     1     -10.291  13.510  65.188  1.00  0.00    -0.353 A  
HETATM   14  C   UNL     1     -10.190  12.103  65.101  1.00  0.00    -0.308 A  
HETATM   15  C   UNL     1     -11.110  11.388  64.323  1.00  0.00    -0.356 A  
HETATM   16  C   UNL     1     -12.111  12.061  63.638  1.00  0.00    -0.527 A  
HETATM   17  O   UNL     1     -13.032  11.394  62.879  1.00  0.00    -0.782 OA 
HETATM   18  C   UNL     1     -12.225  13.446  63.688  1.00  0.00    -0.480 A  
HETATM   19  C   UNL     1     -11.299  14.149  64.471  1.00  0.00    -0.348 A  
HETATM   20  H   UNL     1     -13.718  11.856  62.410  1.00  0.00     0.000 HD 
HETATM   21  S   UNL     1     -11.194  15.836  64.729  1.00  0.00    -0.277 SA 
ENDBRANCH   8  11
ENDBRANCH   2   4
TORSDOF 2
ENDMDL
MODEL       20
REMARK 921   NORMALIZED FREE ENERGY PREDICTED BY IDOCK:   -6.09 KCAL/MOL
REMARK 922        TOTAL FREE ENERGY PREDICTED BY IDOCK:   -7.01 KCAL/MOL
REMARK 923 INTER-LIGAND FREE ENERGY PREDICTED BY IDOCK:   -6.80 KCAL/MOL
REMARK 924 INTRA-LIGAND FREE ENERGY PREDICTED BY IDOCK:   -0.21 KCAL/MOL
REMARK 927      BINDING AFFINITY PREDICTED BY RF-SCORE:    0.00 PKD
ROOT
HETATM    1  C   UNL     1      -8.975   9.780  63.036  1.00  0.00    -0.254 C  
HETATM    2  N   UNL     1     -10.299  10.134  63.520  1.00  0.00    -0.304 NA 
HETATM    3  H   UNL     1     -11.100   9.528  63.338  1.00  0.00     0.000 HD 
ENDROOT
BRANCH   2   4
HETATM    4  C   UNL     1     -10.453  11.328  64.242  1.00  0.00    -0.357 A  
HETATM    5  C   UNL     1     -11.353  12.353  63.910  1.00  0.00    -0.433 A  
HETATM    6  F   UNL     1     -12.235  12.205  62.911  1.00  0.00    -0.434 F  
HETATM    7  C   UNL     1     -11.360  13.576  64.579  1.00  0.00    -0.386 A  
HETATM    8  C   UNL     1     -10.431  13.843  65.590  1.00  0.00    -0.320 A  
HETATM    9  C   UNL     1      -9.549  12.821  65.961  1.00  0.00    -0.182 A  
HETATM   10  C   UNL     1      -9.546  11.594  65.279  1.00  0.00    -0.220 A  
BRANCH   8  11
HETATM   11  C   UNL     1     -10.303  15.179  66.194  1.00  0.00    -0.301 A  
HETATM   12  N   UNL     1     -10.423  16.324  65.553  1.00  0.00    -0.482 NA 
HETATM   13  C   UNL     1     -10.385  17.381  66.456  1.00  0.00    -0.312 A  
HETATM   14  C   UNL     1     -10.494  18.754  66.142  1.00  0.00    -0.499 A  
HETATM   15  C   UNL     1     -10.483  19.706  67.171  1.00  0.00    -0.595 A  
HETATM   16  C   UNL     1     -10.360  19.298  68.491  1.00  0.00    -0.294 A  
HETATM   17  O   UNL     1     -10.356  20.199  69.520  1.00  0.00    -0.547 OA 
HETATM   18  C   UNL     1     -10.231  17.956  68.831  1.00  0.00    -0.331 A  
HETATM   19  C   UNL     1     -10.246  17.016  67.793  1.00  0.00    -0.312 A  
HETATM   20  H   UNL     1     -10.272  19.919  70.424  1.00  0.00     0.000 HD 
HETATM   21  S   UNL     1     -10.117  15.313  67.902  1.00  0.00    -0.234 SA 
ENDBRANCH   8  11
ENDBRANCH   2   4
TORSDOF 2
ENDMDL
MODEL       21
REMARK 921   NORMALIZED FREE ENERGY PREDICTED BY IDOCK:   -6.09 KCAL/MOL
REMARK 922        TOTAL FREE ENERGY PREDICTED BY IDOCK:   -7.01 KCAL/MOL
REMARK 923 INTER-LIGAND FREE ENERGY PREDICTED BY IDOCK:   -6.77 KCAL/MOL
REMARK 924 INTRA-LIGAND FREE ENERGY PREDICTED BY IDOCK:   -0.24 KCAL/MOL
REMARK 927      BINDING AFFINITY PREDICTED BY RF-SCORE:    0.00 PKD
ROOT
HETATM    1  C   UNL     1     -10.838   9.380  70.327  1.00  0.00    -0.258 C  
HETATM    2  N   UNL     1     -12.034  10.084  69.893  1.00  0.00    -0.467 NA 
HETATM    3  H   UNL     1     -12.954   9.654  69.986  1.00  0.00     0.000 HD 
ENDROOT
BRANCH   2   4
HETATM    4  C   UNL     1     -11.894  11.368  69.343  1.00  0.00    -0.351 A  
HETATM    5  C   UNL     1     -11.465  11.635  68.034  1.00  0.00    -0.315 A  
HETATM    6  F   UNL     1     -11.260  10.642  67.155  1.00  0.00    -0.340 F  
HETATM    7  C   UNL     1     -11.207  12.931  67.589  1.00  0.00    -0.317 A  
HETATM    8  C   UNL     1     -11.329  14.021  68.456  1.00  0.00    -0.308 A  
HETATM    9  C   UNL     1     -11.791  13.781  69.757  1.00  0.00    -0.394 A  
HETATM   10  C   UNL     1     -12.045  12.472  70.196  1.00  0.00    -0.368 A  
BRANCH   8  11
HETATM   11  C   UNL     1     -10.902  15.374  68.068  1.00  0.00    -0.292 A  
HETATM   12  N   UNL     1     -10.888  15.850  66.839  1.00  0.00    -0.286 NA 
HETATM   13  C   UNL     1     -10.565  17.203  66.856  1.00  0.00    -0.209 A  
HETATM   14  C   UNL     1     -10.465  18.053  65.732  1.00  0.00    -0.202 A  
HETATM   15  C   UNL     1     -10.172  19.412  65.912  1.00  0.00    -0.471 A  
HETATM   16  C   UNL     1      -9.978  19.915  67.189  1.00  0.00    -0.423 A  
HETATM   17  O   UNL     1      -9.701  21.237  67.402  1.00  0.00    -0.543 OA 
HETATM   18  C   UNL     1     -10.050  19.101  68.314  1.00  0.00    -0.499 A  
HETATM   19  C   UNL     1     -10.345  17.745  68.119  1.00  0.00    -0.391 A  
HETATM   20  H   UNL     1      -9.567  21.582  68.278  1.00  0.00     0.000 HD 
HETATM   21  S   UNL     1     -10.506  16.515  69.297  1.00  0.00    -0.331 SA 
ENDBRANCH   8  11
ENDBRANCH   2   4
TORSDOF 2
ENDMDL
MODEL       22
REMARK 921   NORMALIZED FREE ENERGY PREDICTED BY IDOCK:   -6.08 KCAL/MOL
REMARK 922        TOTAL FREE ENERGY PREDICTED BY IDOCK:   -6.99 KCAL/MOL
REMARK 923 INTER-LIGAND FREE ENERGY PREDICTED BY IDOCK:   -6.76 KCAL/MOL
REMARK 924 INTRA-LIGAND FREE ENERGY PREDICTED BY IDOCK:   -0.23 KCAL/MOL
REMARK 927      BINDING AFFINITY PREDICTED BY RF-SCORE:    0.00 PKD
ROOT
HETATM    1  C   UNL     1     -12.051  10.003  71.290  1.00  0.00    -0.394 C  
HETATM    2  N   UNL     1     -12.427  10.610  70.024  1.00  0.00    -0.478 NA 
HETATM    3  H   UNL     1     -13.083  10.144  69.397  1.00  0.00     0.000 HD 
ENDROOT
BRANCH   2   4
HETATM    4  C   UNL     1     -11.868  11.852  69.683  1.00  0.00    -0.337 A  
HETATM    5  C   UNL     1     -12.248  13.081  70.245  1.00  0.00    -0.296 A  
HETATM    6  F   UNL     1     -13.122  13.138  71.261  1.00  0.00    -0.396 F  
HETATM    7  C   UNL     1     -11.761  14.296  69.764  1.00  0.00    -0.367 A  
HETATM    8  C   UNL     1     -10.898  14.335  68.665  1.00  0.00    -0.265 A  
HETATM    9  C   UNL     1     -10.478  13.119  68.113  1.00  0.00    -0.255 A  
HETATM   10  C   UNL     1     -10.977  11.901  68.600  1.00  0.00    -0.271 A  
BRANCH   8  11
HETATM   11  C   UNL     1     -10.505  15.604  68.032  1.00  0.00    -0.263 A  
HETATM   12  N   UNL     1     -11.084  16.772  68.229  1.00  0.00    -0.328 NA 
HETATM   13  C   UNL     1     -10.368  17.774  67.585  1.00  0.00    -0.373 A  
HETATM   14  C   UNL     1     -10.678  19.152  67.580  1.00  0.00    -0.555 A  
HETATM   15  C   UNL     1      -9.831  20.052  66.917  1.00  0.00    -0.571 A  
HETATM   16  C   UNL     1      -8.699  19.587  66.266  1.00  0.00    -0.359 A  
HETATM   17  O   UNL     1      -7.846  20.439  65.620  1.00  0.00    -0.534 OA 
HETATM   18  C   UNL     1      -8.377  18.235  66.236  1.00  0.00    -0.230 A  
HETATM   19  C   UNL     1      -9.230  17.347  66.904  1.00  0.00    -0.256 A  
HETATM   20  H   UNL     1      -7.070  20.120  65.173  1.00  0.00     0.000 HD 
HETATM   21  S   UNL     1      -9.091  15.648  67.047  1.00  0.00    -0.235 SA 
ENDBRANCH   8  11
ENDBRANCH   2   4
TORSDOF 2
ENDMDL
MODEL       23
REMARK 921   NORMALIZED FREE ENERGY PREDICTED BY IDOCK:   -6.07 KCAL/MOL
REMARK 922        TOTAL FREE ENERGY PREDICTED BY IDOCK:   -6.99 KCAL/MOL
REMARK 923 INTER-LIGAND FREE ENERGY PREDICTED BY IDOCK:   -6.84 KCAL/MOL
REMARK 924 INTRA-LIGAND FREE ENERGY PREDICTED BY IDOCK:   -0.15 KCAL/MOL
REMARK 927      BINDING AFFINITY PREDICTED BY RF-SCORE:    0.00 PKD
ROOT
HETATM    1  C   UNL     1     -14.002   9.014  71.872  1.00  0.00    -0.387 C  
HETATM    2  N   UNL     1     -13.200  10.128  72.352  1.00  0.00    -0.550 NA 
HETATM    3  H   UNL     1     -12.836  10.136  73.305  1.00  0.00     0.000 HD 
ENDROOT
BRANCH   2   4
HETATM    4  C   UNL     1     -12.937  11.193  71.475  1.00  0.00    -0.437 A  
HETATM    5  C   UNL     1     -12.245  11.075  70.260  1.00  0.00    -0.363 A  
HETATM    6  F   UNL     1     -11.875   9.876  69.786  1.00  0.00    -0.228 F  
HETATM    7  C   UNL     1     -11.888  12.189  69.501  1.00  0.00    -0.386 A  
HETATM    8  C   UNL     1     -12.174  13.481  69.951  1.00  0.00    -0.356 A  
HETATM    9  C   UNL     1     -12.896  13.620  71.143  1.00  0.00    -0.399 A  
HETATM   10  C   UNL     1     -13.248  12.493  71.902  1.00  0.00    -0.495 A  
BRANCH   8  11
HETATM   11  C   UNL     1     -11.662  14.675  69.260  1.00  0.00    -0.312 A  
HETATM   12  N   UNL     1     -11.240  15.778  69.846  1.00  0.00    -0.304 NA 
HETATM   13  C   UNL     1     -10.695  16.640  68.902  1.00  0.00    -0.337 A  
HETATM   14  C   UNL     1     -10.132  17.911  69.156  1.00  0.00    -0.220 A  
HETATM   15  C   UNL     1      -9.579  18.650  68.101  1.00  0.00    -0.364 A  
HETATM   16  C   UNL     1      -9.590  18.135  66.813  1.00  0.00    -0.301 A  
HETATM   17  O   UNL     1      -9.050  18.824  65.763  1.00  0.00    -0.391 OA 
HETATM   18  C   UNL     1     -10.154  16.897  66.527  1.00  0.00    -0.320 A  
HETATM   19  C   UNL     1     -10.701  16.168  67.592  1.00  0.00    -0.318 A  
HETATM   20  H   UNL     1      -9.058  18.471  64.881  1.00  0.00     0.000 HD 
HETATM   21  S   UNL     1     -11.448  14.629  67.550  1.00  0.00    -0.371 SA 
ENDBRANCH   8  11
ENDBRANCH   2   4
TORSDOF 2
ENDMDL
MODEL       24
REMARK 921   NORMALIZED FREE ENERGY PREDICTED BY IDOCK:   -6.04 KCAL/MOL
REMARK 922        TOTAL FREE ENERGY PREDICTED BY IDOCK:   -6.95 KCAL/MOL
REMARK 923 INTER-LIGAND FREE ENERGY PREDICTED BY IDOCK:   -6.74 KCAL/MOL
REMARK 924 INTRA-LIGAND FREE ENERGY PREDICTED BY IDOCK:   -0.21 KCAL/MOL
REMARK 927      BINDING AFFINITY PREDICTED BY RF-SCORE:    0.00 PKD
ROOT
HETATM    1  C   UNL     1      -9.620  18.571  66.463  1.00  0.00    -0.329 C  
HETATM    2  N   UNL     1     -10.211  17.423  65.794  1.00  0.00    -0.599 NA 
HETATM    3  H   UNL     1     -10.500  17.481  64.818  1.00  0.00     0.000 HD 
ENDROOT
BRANCH   2   4
HETATM    4  C   UNL     1     -10.375  16.233  66.521  1.00  0.00    -0.307 A  
HETATM    5  C   UNL     1     -10.624  14.976  65.950  1.00  0.00    -0.329 A  
HETATM    6  F   UNL     1     -10.608  14.802  64.620  1.00  0.00    -0.409 F  
HETATM    7  C   UNL     1     -10.921  13.856  66.726  1.00  0.00    -0.301 A  
HETATM    8  C   UNL     1     -11.024  13.958  68.117  1.00  0.00    -0.267 A  
HETATM    9  C   UNL     1     -10.745  15.196  68.710  1.00  0.00    -0.239 A  
HETATM   10  C   UNL     1     -10.450  16.318  67.920  1.00  0.00    -0.295 A  
BRANCH   8  11
HETATM   11  C   UNL     1     -11.502  12.839  68.945  1.00  0.00    -0.305 A  
HETATM   12  N   UNL     1     -11.074  11.595  68.872  1.00  0.00    -0.216 NA 
HETATM   13  C   UNL     1     -11.636  10.838  69.893  1.00  0.00    -0.331 A  
HETATM   14  C   UNL     1     -11.406   9.466  70.142  1.00  0.00    -0.220 A  
HETATM   15  C   UNL     1     -12.014   8.847  71.242  1.00  0.00    -0.365 A  
HETATM   16  C   UNL     1     -12.843   9.580  72.079  1.00  0.00    -0.414 A  
HETATM   17  O   UNL     1     -13.444   9.010  73.167  1.00  0.00    -0.948 OA 
HETATM   18  C   UNL     1     -13.106  10.926  71.850  1.00  0.00    -0.537 A  
HETATM   19  C   UNL     1     -12.489  11.532  70.747  1.00  0.00    -0.349 A  
HETATM   20  H   UNL     1     -14.012   9.513  73.740  1.00  0.00     0.000 HD 
HETATM   21  S   UNL     1     -12.614  13.156  70.223  1.00  0.00     0.022 SA 
ENDBRANCH   8  11
ENDBRANCH   2   4
TORSDOF 2
ENDMDL
MODEL       25
REMARK 921   NORMALIZED FREE ENERGY PREDICTED BY IDOCK:   -6.03 KCAL/MOL
REMARK 922        TOTAL FREE ENERGY PREDICTED BY IDOCK:   -6.94 KCAL/MOL
REMARK 923 INTER-LIGAND FREE ENERGY PREDICTED BY IDOCK:   -6.72 KCAL/MOL
REMARK 924 INTRA-LIGAND FREE ENERGY PREDICTED BY IDOCK:   -0.22 KCAL/MOL
REMARK 927      BINDING AFFINITY PREDICTED BY RF-SCORE:    0.00 PKD
ROOT
HETATM    1  C   UNL     1     -10.443  19.332  65.992  1.00  0.00    -0.487 C  
HETATM    2  N   UNL     1      -9.700  18.120  66.300  1.00  0.00    -0.444 NA 
HETATM    3  H   UNL     1      -8.731  18.013  65.999  1.00  0.00     0.000 HD 
ENDROOT
BRANCH   2   4
HETATM    4  C   UNL     1     -10.344  17.103  67.021  1.00  0.00    -0.308 A  
HETATM    5  C   UNL     1     -10.594  17.136  68.402  1.00  0.00    -0.371 A  
HETATM    6  F   UNL     1     -10.325  18.231  69.129  1.00  0.00    -0.371 F  
HETATM    7  C   UNL     1     -11.107  16.036  69.088  1.00  0.00    -0.317 A  
HETATM    8  C   UNL     1     -11.355  14.832  68.423  1.00  0.00    -0.317 A  
HETATM    9  C   UNL     1     -11.147  14.788  67.039  1.00  0.00    -0.333 A  
HETATM   10  C   UNL     1     -10.627  15.899  66.357  1.00  0.00    -0.298 A  
BRANCH   8  11
HETATM   11  C   UNL     1     -11.733  13.608  69.147  1.00  0.00    -0.329 A  
HETATM   12  N   UNL     1     -11.189  12.419  68.980  1.00  0.00    -0.260 NA 
HETATM   13  C   UNL     1     -11.687  11.530  69.925  1.00  0.00    -0.343 A  
HETATM   14  C   UNL     1     -11.330  10.170  70.064  1.00  0.00    -0.351 A  
HETATM   15  C   UNL     1     -11.888   9.407  71.100  1.00  0.00    -0.413 A  
HETATM   16  C   UNL     1     -12.790   9.987  71.979  1.00  0.00    -0.389 A  
HETATM   17  O   UNL     1     -13.345   9.275  73.006  1.00  0.00    -0.733 OA 
HETATM   18  C   UNL     1     -13.177  11.317  71.857  1.00  0.00    -0.491 A  
HETATM   19  C   UNL     1     -12.610  12.068  70.819  1.00  0.00    -0.222 A  
HETATM   20  H   UNL     1     -13.964   9.673  73.609  1.00  0.00     0.000 HD 
HETATM   21  S   UNL     1     -12.883  13.711  70.427  1.00  0.00     0.061 SA 
ENDBRANCH   8  11
ENDBRANCH   2   4
TORSDOF 2
ENDMDL
MODEL       26
REMARK 921   NORMALIZED FREE ENERGY PREDICTED BY IDOCK:   -5.96 KCAL/MOL
REMARK 922        TOTAL FREE ENERGY PREDICTED BY IDOCK:   -6.86 KCAL/MOL
REMARK 923 INTER-LIGAND FREE ENERGY PREDICTED BY IDOCK:   -6.65 KCAL/MOL
REMARK 924 INTRA-LIGAND FREE ENERGY PREDICTED BY IDOCK:   -0.21 KCAL/MOL
REMARK 927      BINDING AFFINITY PREDICTED BY RF-SCORE:    0.00 PKD
ROOT
HETATM    1  C   UNL     1     -13.379  15.895  73.197  1.00  0.00    -0.587 C  
HETATM    2  N   UNL     1     -12.701  14.615  73.068  1.00  0.00    -0.430 NA 
HETATM    3  H   UNL     1     -12.313  14.146  73.887  1.00  0.00     0.000 HD 
ENDROOT
BRANCH   2   4
HETATM    4  C   UNL     1     -12.594  14.037  71.793  1.00  0.00    -0.287 A  
HETATM    5  C   UNL     1     -12.766  12.672  71.517  1.00  0.00    -0.223 A  
HETATM    6  F   UNL     1     -13.170  11.817  72.469  1.00  0.00    -0.528 F  
HETATM    7  C   UNL     1     -12.506  12.133  70.258  1.00  0.00    -0.164 A  
HETATM    8  C   UNL     1     -12.019  12.938  69.223  1.00  0.00    -0.313 A  
HETATM    9  C   UNL     1     -11.875  14.310  69.467  1.00  0.00    -0.378 A  
HETATM   10  C   UNL     1     -12.135  14.842  70.740  1.00  0.00    -0.377 A  
BRANCH   8  11
HETATM   11  C   UNL     1     -11.575  12.370  67.940  1.00  0.00    -0.356 A  
HETATM   12  N   UNL     1     -11.412  13.044  66.819  1.00  0.00    -0.327 NA 
HETATM   13  C   UNL     1     -10.849  12.224  65.849  1.00  0.00    -0.271 A  
HETATM   14  C   UNL     1     -10.519  12.598  64.526  1.00  0.00    -0.379 A  
HETATM   15  C   UNL     1      -9.912  11.667  63.672  1.00  0.00    -0.406 A  
HETATM   16  C   UNL     1      -9.643  10.384  64.123  1.00  0.00    -0.322 A  
HETATM   17  O   UNL     1      -9.043   9.454  63.320  1.00  0.00    -0.401 OA 
HETATM   18  C   UNL     1      -9.974   9.979  65.412  1.00  0.00    -0.364 A  
HETATM   19  C   UNL     1     -10.578  10.921  66.256  1.00  0.00    -0.214 A  
HETATM   20  H   UNL     1      -8.859   8.575  63.630  1.00  0.00     0.000 HD 
HETATM   21  S   UNL     1     -11.084  10.720  67.878  1.00  0.00    -0.319 SA 
ENDBRANCH   8  11
ENDBRANCH   2   4
TORSDOF 2
ENDMDL
MODEL       27
REMARK 921   NORMALIZED FREE ENERGY PREDICTED BY IDOCK:   -5.95 KCAL/MOL
REMARK 922        TOTAL FREE ENERGY PREDICTED BY IDOCK:   -6.85 KCAL/MOL
REMARK 923 INTER-LIGAND FREE ENERGY PREDICTED BY IDOCK:   -6.64 KCAL/MOL
REMARK 924 INTRA-LIGAND FREE ENERGY PREDICTED BY IDOCK:   -0.22 KCAL/MOL
REMARK 927      BINDING AFFINITY PREDICTED BY RF-SCORE:    0.00 PKD
ROOT
HETATM    1  C   UNL     1     -11.345  16.090  64.336  1.00  0.00    -0.245 C  
HETATM    2  N   UNL     1     -11.824  14.726  64.183  1.00  0.00    -0.722 NA 
HETATM    3  H   UNL     1     -12.356  14.451  63.357  1.00  0.00     0.000 HD 
ENDROOT
BRANCH   2   4
HETATM    4  C   UNL     1     -11.540  13.797  65.196  1.00  0.00    -0.331 A  
HETATM    5  C   UNL     1     -10.951  12.540  64.985  1.00  0.00    -0.294 A  
HETATM    6  F   UNL     1     -10.503  12.178  63.773  1.00  0.00    -0.314 F  
HETATM    7  C   UNL     1     -10.825  11.601  66.008  1.00  0.00    -0.339 A  
HETATM    8  C   UNL     1     -11.324  11.867  67.287  1.00  0.00    -0.393 A  
HETATM    9  C   UNL     1     -11.882  13.129  67.528  1.00  0.00    -0.409 A  
HETATM   10  C   UNL     1     -12.008  14.066  66.490  1.00  0.00    -0.470 A  
BRANCH   8  11
HETATM   11  C   UNL     1     -11.358  10.837  68.337  1.00  0.00    -0.302 A  
HETATM   12  N   UNL     1     -10.738   9.675  68.291  1.00  0.00    -0.232 NA 
HETATM   13  C   UNL     1     -10.872   9.015  69.508  1.00  0.00    -0.166 A  
HETATM   14  C   UNL     1     -10.333   7.751  69.838  1.00  0.00    -0.223 A  
HETATM   15  C   UNL     1     -10.516   7.233  71.127  1.00  0.00    -0.221 A  
HETATM   16  C   UNL     1     -11.228   7.958  72.071  1.00  0.00    -0.287 A  
HETATM   17  O   UNL     1     -11.417   7.488  73.341  1.00  0.00    -0.629 OA 
HETATM   18  C   UNL     1     -11.788   9.195  71.772  1.00  0.00    -0.453 A  
HETATM   19  C   UNL     1     -11.595   9.702  70.479  1.00  0.00    -0.272 A  
HETATM   20  H   UNL     1     -11.905   7.985  73.988  1.00  0.00     0.000 HD 
HETATM   21  S   UNL     1     -12.150  11.184  69.828  1.00  0.00    -0.335 SA 
ENDBRANCH   8  11
ENDBRANCH   2   4
TORSDOF 2
ENDMDL
MODEL       28
REMARK 921   NORMALIZED FREE ENERGY PREDICTED BY IDOCK:   -5.94 KCAL/MOL
REMARK 922        TOTAL FREE ENERGY PREDICTED BY IDOCK:   -6.84 KCAL/MOL
REMARK 923 INTER-LIGAND FREE ENERGY PREDICTED BY IDOCK:   -6.68 KCAL/MOL
REMARK 924 INTRA-LIGAND FREE ENERGY PREDICTED BY IDOCK:   -0.16 KCAL/MOL
REMARK 927      BINDING AFFINITY PREDICTED BY RF-SCORE:    0.00 PKD
ROOT
HETATM    1  C   UNL     1     -12.312   6.829  72.307  1.00  0.00    -0.101 C  
HETATM    2  N   UNL     1     -12.154   8.210  72.736  1.00  0.00    -0.602 NA 
HETATM    3  H   UNL     1     -12.096   8.444  73.727  1.00  0.00     0.000 HD 
ENDROOT
BRANCH   2   4
HETATM    4  C   UNL     1     -12.081   9.213  71.757  1.00  0.00    -0.376 A  
HETATM    5  C   UNL     1     -11.063   9.320  70.797  1.00  0.00    -0.285 A  
HETATM    6  F   UNL     1     -10.121   8.373  70.676  1.00  0.00    -0.185 F  
HETATM    7  C   UNL     1     -10.964  10.418  69.942  1.00  0.00    -0.364 A  
HETATM    8  C   UNL     1     -11.864  11.483  70.042  1.00  0.00    -0.435 A  
HETATM    9  C   UNL     1     -12.909  11.380  70.968  1.00  0.00    -0.381 A  
HETATM   10  C   UNL     1     -12.998  10.273  71.827  1.00  0.00    -0.574 A  
BRANCH   8  11
HETATM   11  C   UNL     1     -11.685  12.726  69.274  1.00  0.00    -0.319 A  
HETATM   12  N   UNL     1     -11.561  13.933  69.788  1.00  0.00    -0.279 NA 
HETATM   13  C   UNL     1     -11.264  14.849  68.785  1.00  0.00    -0.275 A  
HETATM   14  C   UNL     1     -11.051  16.235  68.955  1.00  0.00    -0.345 A  
HETATM   15  C   UNL     1     -10.715  17.028  67.848  1.00  0.00    -0.348 A  
HETATM   16  C   UNL     1     -10.599  16.451  66.593  1.00  0.00    -0.239 A  
HETATM   17  O   UNL     1     -10.263  17.192  65.494  1.00  0.00    -0.592 OA 
HETATM   18  C   UNL     1     -10.823  15.094  66.389  1.00  0.00    -0.326 A  
HETATM   19  C   UNL     1     -11.156  14.314  67.504  1.00  0.00    -0.298 A  
HETATM   20  H   UNL     1     -10.184  16.797  64.633  1.00  0.00     0.000 HD 
HETATM   21  S   UNL     1     -11.476  12.634  67.565  1.00  0.00    -0.360 SA 
ENDBRANCH   8  11
ENDBRANCH   2   4
TORSDOF 2
ENDMDL
MODEL       29
REMARK 921   NORMALIZED FREE ENERGY PREDICTED BY IDOCK:   -5.94 KCAL/MOL
REMARK 922        TOTAL FREE ENERGY PREDICTED BY IDOCK:   -6.84 KCAL/MOL
REMARK 923 INTER-LIGAND FREE ENERGY PREDICTED BY IDOCK:   -6.62 KCAL/MOL
REMARK 924 INTRA-LIGAND FREE ENERGY PREDICTED BY IDOCK:   -0.22 KCAL/MOL
REMARK 927      BINDING AFFINITY PREDICTED BY RF-SCORE:    0.00 PKD
ROOT
HETATM    1  C   UNL     1     -10.284   4.018  71.901  1.00  0.00    -0.089 C  
HETATM    2  N   UNL     1     -10.974   4.968  72.760  1.00  0.00    -0.246 NA 
HETATM    3  H   UNL     1     -11.300   4.692  73.686  1.00  0.00     0.000 HD 
ENDROOT
BRANCH   2   4
HETATM    4  C   UNL     1     -11.183   6.273  72.286  1.00  0.00    -0.283 A  
HETATM    5  C   UNL     1     -10.265   7.327  72.417  1.00  0.00    -0.196 A  
HETATM    6  F   UNL     1      -9.039   7.120  72.922  1.00  0.00    -0.142 F  
HETATM    7  C   UNL     1     -10.584   8.635  72.057  1.00  0.00    -0.421 A  
HETATM    8  C   UNL     1     -11.861   8.954  71.584  1.00  0.00    -0.415 A  
HETATM    9  C   UNL     1     -12.780   7.912  71.411  1.00  0.00    -0.312 A  
HETATM   10  C   UNL     1     -12.451   6.598  71.781  1.00  0.00    -0.360 A  
BRANCH   8  11
HETATM   11  C   UNL     1     -12.280  10.347  71.358  1.00  0.00    -0.362 A  
HETATM   12  N   UNL     1     -13.053  11.054  72.158  1.00  0.00    -0.370 NA 
HETATM   13  C   UNL     1     -13.125  12.368  71.711  1.00  0.00    -0.342 A  
HETATM   14  C   UNL     1     -13.850  13.419  72.317  1.00  0.00    -0.671 A  
HETATM   15  C   UNL     1     -13.791  14.709  71.772  1.00  0.00    -0.530 A  
HETATM   16  C   UNL     1     -13.027  14.948  70.639  1.00  0.00    -0.338 A  
HETATM   17  O   UNL     1     -12.938  16.196  70.087  1.00  0.00    -0.561 OA 
HETATM   18  C   UNL     1     -12.318  13.932  70.008  1.00  0.00    -0.378 A  
HETATM   19  C   UNL     1     -12.385  12.648  70.565  1.00  0.00    -0.268 A  
HETATM   20  H   UNL     1     -12.414  16.360  69.311  1.00  0.00     0.000 HD 
HETATM   21  S   UNL     1     -11.623  11.215  70.023  1.00  0.00    -0.334 SA 
ENDBRANCH   8  11
ENDBRANCH   2   4
TORSDOF 2
ENDMDL
MODEL       30
REMARK 921   NORMALIZED FREE ENERGY PREDICTED BY IDOCK:   -5.92 KCAL/MOL
REMARK 922        TOTAL FREE ENERGY PREDICTED BY IDOCK:   -6.82 KCAL/MOL
REMARK 923 INTER-LIGAND FREE ENERGY PREDICTED BY IDOCK:   -6.61 KCAL/MOL
REMARK 924 INTRA-LIGAND FREE ENERGY PREDICTED BY IDOCK:   -0.21 KCAL/MOL
REMARK 927      BINDING AFFINITY PREDICTED BY RF-SCORE:    0.00 PKD
ROOT
HETATM    1  C   UNL     1      -7.285  16.954  66.559  1.00  0.00    -0.262 C  
HETATM    2  N   UNL     1      -8.539  16.468  66.008  1.00  0.00    -0.449 NA 
HETATM    3  H   UNL     1      -8.978  16.939  65.217  1.00  0.00     0.000 HD 
ENDROOT
BRANCH   2   4
HETATM    4  C   UNL     1      -9.133  15.336  66.589  1.00  0.00    -0.282 A  
HETATM    5  C   UNL     1     -10.413  14.854  66.272  1.00  0.00    -0.302 A  
HETATM    6  F   UNL     1     -11.133  15.396  65.279  1.00  0.00    -0.328 F  
HETATM    7  C   UNL     1     -11.008  13.812  66.983  1.00  0.00    -0.297 A  
HETATM    8  C   UNL     1     -10.358  13.231  68.076  1.00  0.00    -0.243 A  
HETATM    9  C   UNL     1      -9.066  13.672  68.386  1.00  0.00    -0.165 A  
HETATM   10  C   UNL     1      -8.477  14.724  67.667  1.00  0.00    -0.185 A  
BRANCH   8  11
HETATM   11  C   UNL     1     -11.028  12.252  68.947  1.00  0.00    -0.219 A  
HETATM   12  N   UNL     1     -10.689  10.985  69.078  1.00  0.00    -0.208 NA 
HETATM   13  C   UNL     1     -11.442  10.393  70.086  1.00  0.00    -0.319 A  
HETATM   14  C   UNL     1     -11.351   9.051  70.519  1.00  0.00    -0.282 A  
HETATM   15  C   UNL     1     -12.149   8.608  71.583  1.00  0.00    -0.385 A  
HETATM   16  C   UNL     1     -13.027   9.485  72.202  1.00  0.00    -0.412 A  
HETATM   17  O   UNL     1     -13.812   9.090  73.249  1.00  0.00    -1.159 OA 
HETATM   18  C   UNL     1     -13.154  10.806  71.787  1.00  0.00    -0.573 A  
HETATM   19  C   UNL     1     -12.348  11.235  70.724  1.00  0.00    -0.398 A  
HETATM   20  H   UNL     1     -14.414   9.691  73.674  1.00  0.00     0.000 HD 
HETATM   21  S   UNL     1     -12.277  12.787  70.007  1.00  0.00    -0.144 SA 
ENDBRANCH   8  11
ENDBRANCH   2   4
TORSDOF 2
ENDMDL
MODEL       31
REMARK 921   NORMALIZED FREE ENERGY PREDICTED BY IDOCK:   -5.91 KCAL/MOL
REMARK 922        TOTAL FREE ENERGY PREDICTED BY IDOCK:   -6.81 KCAL/MOL
REMARK 923 INTER-LIGAND FREE ENERGY PREDICTED BY IDOCK:   -6.59 KCAL/MOL
REMARK 924 INTRA-LIGAND FREE ENERGY PREDICTED BY IDOCK:   -0.22 KCAL/MOL
REMARK 927      BINDING AFFINITY PREDICTED BY RF-SCORE:    0.00 PKD
ROOT
HETATM    1  C   UNL     1     -10.036  17.224  68.337  1.00  0.00    -0.333 C  
HETATM    2  N   UNL     1     -11.395  16.933  68.766  1.00  0.00    -0.154 NA 
HETATM    3  H   UNL     1     -12.095  17.673  68.817  1.00  0.00     0.000 HD 
ENDROOT
BRANCH   2   4
HETATM    4  C   UNL     1     -11.721  15.612  69.109  1.00  0.00    -0.390 A  
HETATM    5  C   UNL     1     -12.237  15.213  70.352  1.00  0.00    -0.344 A  
HETATM    6  F   UNL     1     -12.568  16.115  71.288  1.00  0.00    -0.484 F  
HETATM    7  C   UNL     1     -12.406  13.869  70.686  1.00  0.00    -0.451 A  
HETATM    8  C   UNL     1     -12.026  12.859  69.798  1.00  0.00    -0.365 A  
HETATM    9  C   UNL     1     -11.544  13.236  68.538  1.00  0.00    -0.368 A  
HETATM   10  C   UNL     1     -11.372  14.591  68.212  1.00  0.00    -0.319 A  
BRANCH   8  11
HETATM   11  C   UNL     1     -12.034  11.440  70.186  1.00  0.00    -0.377 A  
HETATM   12  N   UNL     1     -11.306  10.490  69.634  1.00  0.00    -0.261 NA 
HETATM   13  C   UNL     1     -11.457   9.302  70.340  1.00  0.00    -0.213 A  
HETATM   14  C   UNL     1     -10.826   8.071  70.052  1.00  0.00    -0.235 A  
HETATM   15  C   UNL     1     -11.045   6.966  70.886  1.00  0.00    -0.313 A  
HETATM   16  C   UNL     1     -11.883   7.082  71.985  1.00  0.00    -0.298 A  
HETATM   17  O   UNL     1     -12.110   6.028  72.825  1.00  0.00    -0.525 OA 
HETATM   18  C   UNL     1     -12.534   8.274  72.284  1.00  0.00    -0.384 A  
HETATM   19  C   UNL     1     -12.305   9.371  71.443  1.00  0.00    -0.357 A  
HETATM   20  H   UNL     1     -12.685   6.108  73.578  1.00  0.00     0.000 HD 
HETATM   21  S   UNL     1     -12.951  10.950  71.561  1.00  0.00    -0.416 SA 
ENDBRANCH   8  11
ENDBRANCH   2   4
TORSDOF 2
ENDMDL
MODEL       32
REMARK 921   NORMALIZED FREE ENERGY PREDICTED BY IDOCK:   -5.90 KCAL/MOL
REMARK 922        TOTAL FREE ENERGY PREDICTED BY IDOCK:   -6.79 KCAL/MOL
REMARK 923 INTER-LIGAND FREE ENERGY PREDICTED BY IDOCK:   -6.58 KCAL/MOL
REMARK 924 INTRA-LIGAND FREE ENERGY PREDICTED BY IDOCK:   -0.21 KCAL/MOL
REMARK 927      BINDING AFFINITY PREDICTED BY RF-SCORE:    0.00 PKD
ROOT
HETATM    1  C   UNL     1      -6.730  20.149  65.101  1.00  0.00    -0.296 C  
HETATM    2  N   UNL     1      -7.731  20.389  66.128  1.00  0.00    -0.515 NA 
HETATM    3  H   UNL     1      -7.815  21.304  66.571  1.00  0.00     0.000 HD 
ENDROOT
BRANCH   2   4
HETATM    4  C   UNL     1      -8.579  19.333  66.497  1.00  0.00    -0.334 A  
HETATM    5  C   UNL     1      -9.799  19.487  67.174  1.00  0.00    -0.355 A  
HETATM    6  F   UNL     1     -10.306  20.704  67.423  1.00  0.00    -0.499 F  
HETATM    7  C   UNL     1     -10.529  18.395  67.642  1.00  0.00    -0.445 A  
HETATM    8  C   UNL     1     -10.044  17.093  67.487  1.00  0.00    -0.301 A  
HETATM    9  C   UNL     1      -8.847  16.914  66.782  1.00  0.00    -0.262 A  
HETATM   10  C   UNL     1      -8.118  18.020  66.318  1.00  0.00    -0.259 A  
BRANCH   8  11
HETATM   11  C   UNL     1     -10.704  15.938  68.117  1.00  0.00    -0.302 A  
HETATM   12  N   UNL     1     -10.812  14.735  67.589  1.00  0.00    -0.278 NA 
HETATM   13  C   UNL     1     -11.365  13.857  68.515  1.00  0.00    -0.280 A  
HETATM   14  C   UNL     1     -11.622  12.482  68.314  1.00  0.00    -0.376 A  
HETATM   15  C   UNL     1     -12.145  11.712  69.362  1.00  0.00    -0.328 A  
HETATM   16  C   UNL     1     -12.412  12.302  70.588  1.00  0.00    -0.236 A  
HETATM   17  O   UNL     1     -12.912  11.579  71.635  1.00  0.00    -0.437 OA 
HETATM   18  C   UNL     1     -12.189  13.656  70.812  1.00  0.00    -0.424 A  
HETATM   19  C   UNL     1     -11.664  14.413  69.756  1.00  0.00    -0.305 A  
HETATM   20  H   UNL     1     -13.096  11.983  72.476  1.00  0.00     0.000 HD 
HETATM   21  S   UNL     1     -11.281  16.080  69.735  1.00  0.00    -0.348 SA 
ENDBRANCH   8  11
ENDBRANCH   2   4
TORSDOF 2
ENDMDL
MODEL       33
REMARK 921   NORMALIZED FREE ENERGY PREDICTED BY IDOCK:   -5.86 KCAL/MOL
REMARK 922        TOTAL FREE ENERGY PREDICTED BY IDOCK:   -6.74 KCAL/MOL
REMARK 923 INTER-LIGAND FREE ENERGY PREDICTED BY IDOCK:   -6.53 KCAL/MOL
REMARK 924 INTRA-LIGAND FREE ENERGY PREDICTED BY IDOCK:   -0.22 KCAL/MOL
REMARK 927      BINDING AFFINITY PREDICTED BY RF-SCORE:    0.00 PKD
ROOT
HETATM    1  C   UNL     1     -11.148   5.919  69.702  1.00  0.00    -0.343 C  
HETATM    2  N   UNL     1     -10.097   6.842  70.097  1.00  0.00    -0.182 NA 
HETATM    3  H   UNL     1      -9.412   6.580  70.806  1.00  0.00     0.000 HD 
ENDROOT
BRANCH   2   4
HETATM    4  C   UNL     1     -10.044   8.103  69.481  1.00  0.00    -0.193 A  
HETATM    5  C   UNL     1      -9.937   9.323  70.166  1.00  0.00    -0.215 A  
HETATM    6  F   UNL     1      -9.758   9.360  71.495  1.00  0.00    -0.340 F  
HETATM    7  C   UNL     1     -10.035  10.550  69.510  1.00  0.00    -0.187 A  
HETATM    8  C   UNL     1     -10.288  10.608  68.137  1.00  0.00    -0.203 A  
HETATM    9  C   UNL     1     -10.362   9.402  67.428  1.00  0.00    -0.325 A  
HETATM   10  C   UNL     1     -10.266   8.172  68.097  1.00  0.00    -0.253 A  
BRANCH   8  11
HETATM   11  C   UNL     1     -10.565  11.880  67.451  1.00  0.00    -0.225 A  
HETATM   12  N   UNL     1     -10.048  13.051  67.768  1.00  0.00    -0.224 NA 
HETATM   13  C   UNL     1     -10.415  14.004  66.825  1.00  0.00    -0.277 A  
HETATM   14  C   UNL     1     -10.042  15.367  66.825  1.00  0.00    -0.266 A  
HETATM   15  C   UNL     1     -10.456  16.201  65.777  1.00  0.00    -0.384 A  
HETATM   16  C   UNL     1     -11.233  15.688  64.749  1.00  0.00    -0.382 A  
HETATM   17  O   UNL     1     -11.645  16.471  63.706  1.00  0.00    -1.617 OA 
HETATM   18  C   UNL     1     -11.633  14.357  64.730  1.00  0.00    -0.410 A  
HETATM   19  C   UNL     1     -11.210  13.534  65.783  1.00  0.00    -0.297 A  
HETATM   20  H   UNL     1     -12.178  16.119  63.002  1.00  0.00     0.000 HD 
HETATM   21  S   UNL     1     -11.533  11.872  66.025  1.00  0.00    -0.200 SA 
ENDBRANCH   8  11
ENDBRANCH   2   4
TORSDOF 2
ENDMDL
MODEL       34
REMARK 921   NORMALIZED FREE ENERGY PREDICTED BY IDOCK:   -5.73 KCAL/MOL
REMARK 922        TOTAL FREE ENERGY PREDICTED BY IDOCK:   -6.61 KCAL/MOL
REMARK 923 INTER-LIGAND FREE ENERGY PREDICTED BY IDOCK:   -6.40 KCAL/MOL
REMARK 924 INTRA-LIGAND FREE ENERGY PREDICTED BY IDOCK:   -0.21 KCAL/MOL
REMARK 927      BINDING AFFINITY PREDICTED BY RF-SCORE:    0.00 PKD
ROOT
HETATM    1  C   UNL     1     -10.970   8.534  70.537  1.00  0.00    -0.241 C  
HETATM    2  N   UNL     1     -12.020   9.447  70.114  1.00  0.00    -0.460 NA 
HETATM    3  H   UNL     1     -12.972   9.112  69.962  1.00  0.00     0.000 HD 
ENDROOT
BRANCH   2   4
HETATM    4  C   UNL     1     -11.695  10.798  69.918  1.00  0.00    -0.333 A  
HETATM    5  C   UNL     1     -12.308  11.872  70.583  1.00  0.00    -0.313 A  
HETATM    6  F   UNL     1     -13.197  11.662  71.566  1.00  0.00    -0.476 F  
HETATM    7  C   UNL     1     -12.046  13.199  70.244  1.00  0.00    -0.399 A  
HETATM    8  C   UNL     1     -11.184  13.509  69.189  1.00  0.00    -0.310 A  
HETATM    9  C   UNL     1     -10.534  12.454  68.536  1.00  0.00    -0.244 A  
HETATM   10  C   UNL     1     -10.807  11.122  68.881  1.00  0.00    -0.261 A  
BRANCH   8  11
HETATM   11  C   UNL     1     -11.020  14.887  68.699  1.00  0.00    -0.257 A  
HETATM   12  N   UNL     1     -10.737  15.937  69.444  1.00  0.00    -0.248 NA 
HETATM   13  C   UNL     1     -10.515  17.047  68.637  1.00  0.00    -0.363 A  
HETATM   14  C   UNL     1     -10.177  18.347  69.077  1.00  0.00    -0.199 A  
HETATM   15  C   UNL     1      -9.940  19.360  68.137  1.00  0.00    -0.510 A  
HETATM   16  C   UNL     1     -10.044  19.085  66.782  1.00  0.00    -0.379 A  
HETATM   17  O   UNL     1      -9.809  20.046  65.838  1.00  0.00    -0.466 OA 
HETATM   18  C   UNL     1     -10.394  17.822  66.317  1.00  0.00    -0.358 A  
HETATM   19  C   UNL     1     -10.626  16.819  67.268  1.00  0.00    -0.275 A  
HETATM   20  H   UNL     1      -9.880  19.857  64.909  1.00  0.00     0.000 HD 
HETATM   21  S   UNL     1     -11.059  15.185  67.002  1.00  0.00    -0.304 SA 
ENDBRANCH   8  11
ENDBRANCH   2   4
TORSDOF 2
ENDMDL
MODEL       35
REMARK 921   NORMALIZED FREE ENERGY PREDICTED BY IDOCK:   -5.70 KCAL/MOL
REMARK 922        TOTAL FREE ENERGY PREDICTED BY IDOCK:   -6.57 KCAL/MOL
REMARK 923 INTER-LIGAND FREE ENERGY PREDICTED BY IDOCK:   -6.36 KCAL/MOL
REMARK 924 INTRA-LIGAND FREE ENERGY PREDICTED BY IDOCK:   -0.20 KCAL/MOL
REMARK 927      BINDING AFFINITY PREDICTED BY RF-SCORE:    0.00 PKD
ROOT
HETATM    1  C   UNL     1     -11.832  14.302  64.425  1.00  0.00    -0.426 C  
HETATM    2  N   UNL     1     -11.796  14.726  65.815  1.00  0.00    -0.263 NA 
HETATM    3  H   UNL     1     -11.760  15.716  66.057  1.00  0.00     0.000 HD 
ENDROOT
BRANCH   2   4
HETATM    4  C   UNL     1     -11.814  13.743  66.818  1.00  0.00    -0.420 A  
HETATM    5  C   UNL     1     -11.863  14.008  68.195  1.00  0.00    -0.367 A  
HETATM    6  F   UNL     1     -12.014  15.258  68.657  1.00  0.00    -0.345 F  
HETATM    7  C   UNL     1     -11.732  12.998  69.148  1.00  0.00    -0.378 A  
HETATM    8  C   UNL     1     -11.504  11.675  68.758  1.00  0.00    -0.346 A  
HETATM    9  C   UNL     1     -11.488  11.383  67.389  1.00  0.00    -0.328 A  
HETATM   10  C   UNL     1     -11.616  12.407  66.437  1.00  0.00    -0.442 A  
BRANCH   8  11
HETATM   11  C   UNL     1     -11.193  10.620  69.736  1.00  0.00    -0.297 A  
HETATM   12  N   UNL     1      -9.983  10.221  70.076  1.00  0.00    -0.157 NA 
HETATM   13  C   UNL     1     -10.058   9.313  71.126  1.00  0.00    -0.304 A  
HETATM   14  C   UNL     1      -8.968   8.680  71.763  1.00  0.00    -0.307 A  
HETATM   15  C   UNL     1      -9.200   7.817  72.843  1.00  0.00    -0.266 A  
HETATM   16  C   UNL     1     -10.496   7.585  73.279  1.00  0.00    -0.371 A  
HETATM   17  O   UNL     1     -10.758   6.758  74.336  1.00  0.00    -0.413 OA 
HETATM   18  C   UNL     1     -11.591   8.177  72.661  1.00  0.00    -0.441 A  
HETATM   19  C   UNL     1     -11.345   9.039  71.584  1.00  0.00    -0.360 A  
HETATM   20  H   UNL     1     -11.646   6.599  74.634  1.00  0.00     0.000 HD 
HETATM   21  S   UNL     1     -12.477   9.910  70.641  1.00  0.00    -0.133 SA 
ENDBRANCH   8  11
ENDBRANCH   2   4
TORSDOF 2
ENDMDL
MODEL       36
REMARK 921   NORMALIZED FREE ENERGY PREDICTED BY IDOCK:   -5.70 KCAL/MOL
REMARK 922        TOTAL FREE ENERGY PREDICTED BY IDOCK:   -6.57 KCAL/MOL
REMARK 923 INTER-LIGAND FREE ENERGY PREDICTED BY IDOCK:   -6.34 KCAL/MOL
REMARK 924 INTRA-LIGAND FREE ENERGY PREDICTED BY IDOCK:   -0.23 KCAL/MOL
REMARK 927      BINDING AFFINITY PREDICTED BY RF-SCORE:    0.00 PKD
ROOT
HETATM    1  C   UNL     1     -10.388   5.734  74.194  1.00  0.00    -0.282 C  
HETATM    2  N   UNL     1     -10.630   7.167  74.162  1.00  0.00    -0.564 NA 
HETATM    3  H   UNL     1     -10.782   7.689  75.025  1.00  0.00     0.000 HD 
ENDROOT
BRANCH   2   4
HETATM    4  C   UNL     1     -10.651   7.816  72.917  1.00  0.00    -0.366 A  
HETATM    5  C   UNL     1      -9.518   8.324  72.262  1.00  0.00    -0.271 A  
HETATM    6  F   UNL     1      -8.284   8.116  72.747  1.00  0.00    -0.158 F  
HETATM    7  C   UNL     1      -9.616   9.086  71.099  1.00  0.00    -0.356 A  
HETATM    8  C   UNL     1     -10.865   9.409  70.560  1.00  0.00    -0.336 A  
HETATM    9  C   UNL     1     -12.006   8.882  71.177  1.00  0.00    -0.344 A  
HETATM   10  C   UNL     1     -11.898   8.119  72.350  1.00  0.00    -0.448 A  
BRANCH   8  11
HETATM   11  C   UNL     1     -11.006  10.349  69.436  1.00  0.00    -0.251 A  
HETATM   12  N   UNL     1     -10.634  10.118  68.192  1.00  0.00    -0.207 NA 
HETATM   13  C   UNL     1     -11.046  11.161  67.371  1.00  0.00    -0.307 A  
HETATM   14  C   UNL     1     -10.839  11.260  65.977  1.00  0.00    -0.273 A  
HETATM   15  C   UNL     1     -11.354  12.358  65.273  1.00  0.00    -0.374 A  
HETATM   16  C   UNL     1     -12.060  13.343  65.947  1.00  0.00    -0.439 A  
HETATM   17  O   UNL     1     -12.586  14.422  65.291  1.00  0.00    -0.424 OA 
HETATM   18  C   UNL     1     -12.264  13.285  67.322  1.00  0.00    -0.258 A  
HETATM   19  C   UNL     1     -11.745  12.181  68.011  1.00  0.00    -0.344 A  
HETATM   20  H   UNL     1     -13.069  15.097  65.753  1.00  0.00     0.000 HD 
HETATM   21  S   UNL     1     -11.843  11.835  69.684  1.00  0.00    -0.335 SA 
ENDBRANCH   8  11
ENDBRANCH   2   4
TORSDOF 2
ENDMDL
MODEL       37
REMARK 921   NORMALIZED FREE ENERGY PREDICTED BY IDOCK:   -5.68 KCAL/MOL
REMARK 922        TOTAL FREE ENERGY PREDICTED BY IDOCK:   -6.55 KCAL/MOL
REMARK 923 INTER-LIGAND FREE ENERGY PREDICTED BY IDOCK:   -6.32 KCAL/MOL
REMARK 924 INTRA-LIGAND FREE ENERGY PREDICTED BY IDOCK:   -0.23 KCAL/MOL
REMARK 927      BINDING AFFINITY PREDICTED BY RF-SCORE:    0.00 PKD
ROOT
HETATM    1  C   UNL     1      -6.863  20.717  66.709  1.00  0.00    -0.283 C  
HETATM    2  N   UNL     1      -8.093  20.345  66.029  1.00  0.00    -0.541 NA 
HETATM    3  H   UNL     1      -8.447  20.902  65.251  1.00  0.00     0.000 HD 
ENDROOT
BRANCH   2   4
HETATM    4  C   UNL     1      -8.784  19.204  66.465  1.00  0.00    -0.337 A  
HETATM    5  C   UNL     1      -9.945  19.224  67.253  1.00  0.00    -0.363 A  
HETATM    6  F   UNL     1     -10.557  20.379  67.556  1.00  0.00    -0.441 F  
HETATM    7  C   UNL     1     -10.505  18.060  67.777  1.00  0.00    -0.421 A  
HETATM    8  C   UNL     1      -9.897  16.818  67.567  1.00  0.00    -0.255 A  
HETATM    9  C   UNL     1      -8.758  16.771  66.754  1.00  0.00    -0.260 A  
HETATM   10  C   UNL     1      -8.199  17.949  66.234  1.00  0.00    -0.246 A  
BRANCH   8  11
HETATM   11  C   UNL     1     -10.366  15.599  68.245  1.00  0.00    -0.244 A  
HETATM   12  N   UNL     1     -11.104  15.565  69.336  1.00  0.00    -0.269 NA 
HETATM   13  C   UNL     1     -11.480  14.256  69.616  1.00  0.00    -0.282 A  
HETATM   14  C   UNL     1     -12.281  13.829  70.699  1.00  0.00    -0.434 A  
HETATM   15  C   UNL     1     -12.613  12.473  70.826  1.00  0.00    -0.299 A  
HETATM   16  C   UNL     1     -12.151  11.557  69.894  1.00  0.00    -0.316 A  
HETATM   17  O   UNL     1     -12.464  10.229  69.981  1.00  0.00    -0.509 OA 
HETATM   18  C   UNL     1     -11.344  11.942  68.829  1.00  0.00    -0.330 A  
HETATM   19  C   UNL     1     -11.022  13.301  68.713  1.00  0.00    -0.260 A  
HETATM   20  H   UNL     1     -12.147   9.600  69.342  1.00  0.00     0.000 HD 
HETATM   21  S   UNL     1     -10.067  14.066  67.518  1.00  0.00    -0.239 SA 
ENDBRANCH   8  11
ENDBRANCH   2   4
TORSDOF 2
ENDMDL
MODEL       38
REMARK 921   NORMALIZED FREE ENERGY PREDICTED BY IDOCK:   -5.67 KCAL/MOL
REMARK 922        TOTAL FREE ENERGY PREDICTED BY IDOCK:   -6.53 KCAL/MOL
REMARK 923 INTER-LIGAND FREE ENERGY PREDICTED BY IDOCK:   -6.30 KCAL/MOL
REMARK 924 INTRA-LIGAND FREE ENERGY PREDICTED BY IDOCK:   -0.23 KCAL/MOL
REMARK 927      BINDING AFFINITY PREDICTED BY RF-SCORE:    0.00 PKD
ROOT
HETATM    1  C   UNL     1     -11.182  16.167  64.686  1.00  0.00    -0.298 C  
HETATM    2  N   UNL     1     -10.679  14.804  64.632  1.00  0.00    -0.606 NA 
HETATM    3  H   UNL     1     -10.310  14.419  63.762  1.00  0.00     0.000 HD 
ENDROOT
BRANCH   2   4
HETATM    4  C   UNL     1     -10.711  14.029  65.802  1.00  0.00    -0.293 A  
HETATM    5  C   UNL     1      -9.699  14.008  66.775  1.00  0.00    -0.278 A  
HETATM    6  F   UNL     1      -8.649  14.841  66.702  1.00  0.00    -0.253 F  
HETATM    7  C   UNL     1      -9.718  13.112  67.843  1.00  0.00    -0.221 A  
HETATM    8  C   UNL     1     -10.739  12.164  67.962  1.00  0.00    -0.242 A  
HETATM    9  C   UNL     1     -11.777  12.192  67.023  1.00  0.00    -0.373 A  
HETATM   10  C   UNL     1     -11.747  13.095  65.948  1.00  0.00    -0.427 A  
BRANCH   8  11
HETATM   11  C   UNL     1     -10.696  11.100  68.977  1.00  0.00    -0.225 A  
HETATM   12  N   UNL     1      -9.615  10.452  69.364  1.00  0.00    -0.214 NA 
HETATM   13  C   UNL     1      -9.916   9.620  70.436  1.00  0.00    -0.271 A  
HETATM   14  C   UNL     1      -9.011   8.780  71.123  1.00  0.00    -0.280 A  
HETATM   15  C   UNL     1      -9.456   8.027  72.219  1.00  0.00    -0.272 A  
HETATM   16  C   UNL     1     -10.781   8.105  72.621  1.00  0.00    -0.351 A  
HETATM   17  O   UNL     1     -11.247   7.394  73.691  1.00  0.00    -0.588 OA 
HETATM   18  C   UNL     1     -11.701   8.907  71.953  1.00  0.00    -0.439 A  
HETATM   19  C   UNL     1     -11.242   9.655  70.861  1.00  0.00    -0.352 A  
HETATM   20  H   UNL     1     -12.155   7.447  73.967  1.00  0.00     0.000 HD 
HETATM   21  S   UNL     1     -12.127  10.725  69.862  1.00  0.00    -0.321 SA 
ENDBRANCH   8  11
ENDBRANCH   2   4
TORSDOF 2
ENDMDL
MODEL       39
REMARK 921   NORMALIZED FREE ENERGY PREDICTED BY IDOCK:   -5.62 KCAL/MOL
REMARK 922        TOTAL FREE ENERGY PREDICTED BY IDOCK:   -6.48 KCAL/MOL
REMARK 923 INTER-LIGAND FREE ENERGY PREDICTED BY IDOCK:   -6.26 KCAL/MOL
REMARK 924 INTRA-LIGAND FREE ENERGY PREDICTED BY IDOCK:   -0.22 KCAL/MOL
REMARK 927      BINDING AFFINITY PREDICTED BY RF-SCORE:    0.00 PKD
ROOT
HETATM    1  C   UNL     1      -7.067  18.163  65.702  1.00  0.00    -0.135 C  
HETATM    2  N   UNL     1      -8.303  18.487  66.396  1.00  0.00    -0.339 NA 
HETATM    3  H   UNL     1      -8.577  19.458  66.546  1.00  0.00     0.000 HD 
ENDROOT
BRANCH   2   4
HETATM    4  C   UNL     1      -9.112  17.435  66.854  1.00  0.00    -0.245 A  
HETATM    5  C   UNL     1     -10.334  17.600  67.525  1.00  0.00    -0.365 A  
HETATM    6  F   UNL     1     -10.883  18.814  67.677  1.00  0.00    -0.453 F  
HETATM    7  C   UNL     1     -11.022  16.523  68.084  1.00  0.00    -0.336 A  
HETATM    8  C   UNL     1     -10.491  15.231  68.032  1.00  0.00    -0.248 A  
HETATM    9  C   UNL     1      -9.290  15.039  67.336  1.00  0.00    -0.204 A  
HETATM   10  C   UNL     1      -8.603  16.129  66.779  1.00  0.00    -0.282 A  
BRANCH   8  11
HETATM   11  C   UNL     1     -11.106  14.108  68.757  1.00  0.00    -0.262 A  
HETATM   12  N   UNL     1     -10.807  12.835  68.595  1.00  0.00    -0.249 NA 
HETATM   13  C   UNL     1     -11.475  12.065  69.540  1.00  0.00    -0.282 A  
HETATM   14  C   UNL     1     -11.394  10.662  69.684  1.00  0.00    -0.360 A  
HETATM   15  C   UNL     1     -12.096  10.027  70.718  1.00  0.00    -0.418 A  
HETATM   16  C   UNL     1     -12.869  10.777  71.592  1.00  0.00    -0.457 A  
HETATM   17  O   UNL     1     -13.558  10.192  72.618  1.00  0.00    -0.587 OA 
HETATM   18  C   UNL     1     -12.985  12.157  71.465  1.00  0.00    -0.398 A  
HETATM   19  C   UNL     1     -12.276  12.778  70.428  1.00  0.00    -0.293 A  
HETATM   20  H   UNL     1     -14.088  10.706  73.217  1.00  0.00     0.000 HD 
HETATM   21  S   UNL     1     -12.217  14.441  70.032  1.00  0.00    -0.352 SA 
ENDBRANCH   8  11
ENDBRANCH   2   4
TORSDOF 2
ENDMDL
MODEL       40
REMARK 921   NORMALIZED FREE ENERGY PREDICTED BY IDOCK:   -5.60 KCAL/MOL
REMARK 922        TOTAL FREE ENERGY PREDICTED BY IDOCK:   -6.46 KCAL/MOL
REMARK 923 INTER-LIGAND FREE ENERGY PREDICTED BY IDOCK:   -6.24 KCAL/MOL
REMARK 924 INTRA-LIGAND FREE ENERGY PREDICTED BY IDOCK:   -0.22 KCAL/MOL
REMARK 927      BINDING AFFINITY PREDICTED BY RF-SCORE:    0.00 PKD
ROOT
HETATM    1  C   UNL     1     -12.128  13.238  63.391  1.00  0.00    -0.439 C  
HETATM    2  N   UNL     1     -11.057  12.254  63.393  1.00  0.00    -0.623 NA 
HETATM    3  H   UNL     1     -10.536  12.048  62.540  1.00  0.00     0.000 HD 
ENDROOT
BRANCH   2   4
HETATM    4  C   UNL     1     -10.755  11.594  64.595  1.00  0.00    -0.315 A  
HETATM    5  C   UNL     1     -10.072  10.371  64.685  1.00  0.00    -0.308 A  
HETATM    6  F   UNL     1      -9.546   9.788  63.597  1.00  0.00    -0.319 F  
HETATM    7  C   UNL     1      -9.927   9.691  65.894  1.00  0.00    -0.351 A  
HETATM    8  C   UNL     1     -10.501  10.191  67.067  1.00  0.00    -0.302 A  
HETATM    9  C   UNL     1     -11.155  11.428  67.006  1.00  0.00    -0.364 A  
HETATM   10  C   UNL     1     -11.299  12.103  65.783  1.00  0.00    -0.402 A  
BRANCH   8  11
HETATM   11  C   UNL     1     -10.511   9.416  68.318  1.00  0.00    -0.217 A  
HETATM   12  N   UNL     1     -10.792   9.894  69.513  1.00  0.00    -0.236 NA 
HETATM   13  C   UNL     1     -10.848   8.859  70.439  1.00  0.00    -0.236 A  
HETATM   14  C   UNL     1     -11.133   8.983  71.818  1.00  0.00    -0.444 A  
HETATM   15  C   UNL     1     -11.197   7.836  72.621  1.00  0.00    -0.438 A  
HETATM   16  C   UNL     1     -10.977   6.586  72.062  1.00  0.00    -0.247 A  
HETATM   17  O   UNL     1     -11.043   5.446  72.814  1.00  0.00    -0.258 OA 
HETATM   18  C   UNL     1     -10.675   6.432  70.714  1.00  0.00    -0.302 A  
HETATM   19  C   UNL     1     -10.616   7.587  69.923  1.00  0.00    -0.237 A  
HETATM   20  H   UNL     1     -10.891   4.589  72.431  1.00  0.00     0.000 HD 
HETATM   21  S   UNL     1     -10.279   7.710  68.250  1.00  0.00    -0.197 SA 
ENDBRANCH   8  11
ENDBRANCH   2   4
TORSDOF 2
ENDMDL
MODEL       41
REMARK 921   NORMALIZED FREE ENERGY PREDICTED BY IDOCK:   -5.59 KCAL/MOL
REMARK 922        TOTAL FREE ENERGY PREDICTED BY IDOCK:   -6.45 KCAL/MOL
REMARK 923 INTER-LIGAND FREE ENERGY PREDICTED BY IDOCK:   -6.21 KCAL/MOL
REMARK 924 INTRA-LIGAND FREE ENERGY PREDICTED BY IDOCK:   -0.24 KCAL/MOL
REMARK 927      BINDING AFFINITY PREDICTED BY RF-SCORE:    0.00 PKD
ROOT
HETATM    1  C   UNL     1      -7.229   9.390  63.288  1.00  0.00    -0.097 C  
HETATM    2  N   UNL     1      -8.668   9.179  63.270  1.00  0.00    -0.365 NA 
HETATM    3  H   UNL     1      -9.093   8.542  62.595  1.00  0.00     0.000 HD 
ENDROOT
BRANCH   2   4
HETATM    4  C   UNL     1      -9.459   9.869  64.201  1.00  0.00    -0.189 A  
HETATM    5  C   UNL     1     -10.049  11.123  63.975  1.00  0.00    -0.336 A  
HETATM    6  F   UNL     1      -9.985  11.713  62.772  1.00  0.00    -0.346 F  
HETATM    7  C   UNL     1     -10.703  11.826  64.986  1.00  0.00    -0.344 A  
HETATM    8  C   UNL     1     -10.761  11.318  66.287  1.00  0.00    -0.312 A  
HETATM    9  C   UNL     1     -10.211  10.052  66.525  1.00  0.00    -0.291 A  
HETATM   10  C   UNL     1      -9.550   9.354  65.502  1.00  0.00    -0.328 A  
BRANCH   8  11
HETATM   11  C   UNL     1     -11.293  12.110  67.407  1.00  0.00    -0.326 A  
HETATM   12  N   UNL     1     -11.590  11.642  68.603  1.00  0.00    -0.285 NA 
HETATM   13  C   UNL     1     -11.929  12.690  69.453  1.00  0.00    -0.260 A  
HETATM   14  C   UNL     1     -12.295  12.578  70.813  1.00  0.00    -0.376 A  
HETATM   15  C   UNL     1     -12.570  13.735  71.556  1.00  0.00    -0.405 A  
HETATM   16  C   UNL     1     -12.485  14.981  70.954  1.00  0.00    -0.345 A  
HETATM   17  O   UNL     1     -12.735  16.130  71.652  1.00  0.00    -0.546 OA 
HETATM   18  C   UNL     1     -12.147  15.123  69.613  1.00  0.00    -0.336 A  
HETATM   19  C   UNL     1     -11.874  13.959  68.883  1.00  0.00    -0.358 A  
HETATM   20  H   UNL     1     -12.678  16.985  71.239  1.00  0.00     0.000 HD 
HETATM   21  S   UNL     1     -11.429  13.820  67.237  1.00  0.00    -0.361 SA 
ENDBRANCH   8  11
ENDBRANCH   2   4
TORSDOF 2
ENDMDL
MODEL       42
REMARK 921   NORMALIZED FREE ENERGY PREDICTED BY IDOCK:   -5.54 KCAL/MOL
REMARK 922        TOTAL FREE ENERGY PREDICTED BY IDOCK:   -6.39 KCAL/MOL
REMARK 923 INTER-LIGAND FREE ENERGY PREDICTED BY IDOCK:   -6.18 KCAL/MOL
REMARK 924 INTRA-LIGAND FREE ENERGY PREDICTED BY IDOCK:   -0.21 KCAL/MOL
REMARK 927      BINDING AFFINITY PREDICTED BY RF-SCORE:    0.00 PKD
ROOT
HETATM    1  C   UNL     1     -14.007  15.135  72.550  1.00  0.00    -0.486 C  
HETATM    2  N   UNL     1     -13.328  13.860  72.722  1.00  0.00    -0.617 NA 
HETATM    3  H   UNL     1     -13.138  13.493  73.654  1.00  0.00     0.000 HD 
ENDROOT
BRANCH   2   4
HETATM    4  C   UNL     1     -12.940  13.147  71.576  1.00  0.00    -0.321 A  
HETATM    5  C   UNL     1     -12.914  11.747  71.478  1.00  0.00    -0.341 A  
HETATM    6  F   UNL     1     -13.380  10.973  72.469  1.00  0.00    -0.458 F  
HETATM    7  C   UNL     1     -12.383  11.093  70.366  1.00  0.00    -0.430 A  
HETATM    8  C   UNL     1     -11.814  11.819  69.315  1.00  0.00    -0.389 A  
HETATM    9  C   UNL     1     -11.863  13.217  69.377  1.00  0.00    -0.386 A  
HETATM   10  C   UNL     1     -12.396  13.866  70.502  1.00  0.00    -0.439 A  
BRANCH   8  11
HETATM   11  C   UNL     1     -11.097  11.158  68.214  1.00  0.00    -0.251 A  
HETATM   12  N   UNL     1     -11.322  11.348  66.929  1.00  0.00    -0.425 NA 
HETATM   13  C   UNL     1     -10.369  10.674  66.174  1.00  0.00    -0.227 A  
HETATM   14  C   UNL     1     -10.281  10.653  64.764  1.00  0.00    -0.401 A  
HETATM   15  C   UNL     1      -9.232   9.960  64.143  1.00  0.00    -0.312 A  
HETATM   16  C   UNL     1      -8.290   9.294  64.913  1.00  0.00    -0.158 A  
HETATM   17  O   UNL     1      -7.249   8.617  64.341  1.00  0.00    -0.092 OA 
HETATM   18  C   UNL     1      -8.360   9.279  66.301  1.00  0.00    -0.124 A  
HETATM   19  C   UNL     1      -9.412   9.978  66.908  1.00  0.00    -0.166 A  
HETATM   20  H   UNL     1      -6.603   8.161  64.868  1.00  0.00     0.000 HD 
HETATM   21  S   UNL     1      -9.751  10.145  68.577  1.00  0.00    -0.160 SA 
ENDBRANCH   8  11
ENDBRANCH   2   4
TORSDOF 2
ENDMDL
MODEL       43
REMARK 921   NORMALIZED FREE ENERGY PREDICTED BY IDOCK:   -5.50 KCAL/MOL
REMARK 922        TOTAL FREE ENERGY PREDICTED BY IDOCK:   -6.35 KCAL/MOL
REMARK 923 INTER-LIGAND FREE ENERGY PREDICTED BY IDOCK:   -6.13 KCAL/MOL
REMARK 924 INTRA-LIGAND FREE ENERGY PREDICTED BY IDOCK:   -0.22 KCAL/MOL
REMARK 927      BINDING AFFINITY PREDICTED BY RF-SCORE:    0.00 PKD
ROOT
HETATM    1  C   UNL     1     -13.981  16.016  72.554  1.00  0.00    -0.163 C  
HETATM    2  N   UNL     1     -13.924  15.341  71.267  1.00  0.00    -0.643 NA 
HETATM    3  H   UNL     1     -14.362  15.753  70.443  1.00  0.00     0.000 HD 
ENDROOT
BRANCH   2   4
HETATM    4  C   UNL     1     -13.254  14.110  71.183  1.00  0.00    -0.301 A  
HETATM    5  C   UNL     1     -12.385  13.743  70.144  1.00  0.00    -0.323 A  
HETATM    6  F   UNL     1     -12.039  14.617  69.187  1.00  0.00    -0.323 F  
HETATM    7  C   UNL     1     -11.861  12.455  70.038  1.00  0.00    -0.363 A  
HETATM    8  C   UNL     1     -12.221  11.460  70.953  1.00  0.00    -0.447 A  
HETATM    9  C   UNL     1     -13.058  11.816  72.019  1.00  0.00    -0.436 A  
HETATM   10  C   UNL     1     -13.583  13.114  72.114  1.00  0.00    -0.637 A  
BRANCH   8  11
HETATM   11  C   UNL     1     -11.822  10.056  70.771  1.00  0.00    -0.346 A  
HETATM   12  N   UNL     1     -11.181   9.571  69.726  1.00  0.00    -0.191 NA 
HETATM   13  C   UNL     1     -10.841   8.242  69.951  1.00  0.00    -0.213 A  
HETATM   14  C   UNL     1     -10.140   7.396  69.062  1.00  0.00    -0.193 A  
HETATM   15  C   UNL     1      -9.830   6.085  69.450  1.00  0.00    -0.203 A  
HETATM   16  C   UNL     1     -10.216   5.621  70.698  1.00  0.00    -0.227 A  
HETATM   17  O   UNL     1      -9.921   4.352  71.113  1.00  0.00    -0.190 OA 
HETATM   18  C   UNL     1     -10.924   6.422  71.587  1.00  0.00    -0.302 A  
HETATM   19  C   UNL     1     -11.225   7.731  71.188  1.00  0.00    -0.264 A  
HETATM   20  H   UNL     1     -10.186   4.035  71.969  1.00  0.00     0.000 HD 
HETATM   21  S   UNL     1     -12.067   8.939  72.060  1.00  0.00    -0.367 SA 
ENDBRANCH   8  11
ENDBRANCH   2   4
TORSDOF 2
ENDMDL
MODEL       44
REMARK 921   NORMALIZED FREE ENERGY PREDICTED BY IDOCK:   -5.49 KCAL/MOL
REMARK 922        TOTAL FREE ENERGY PREDICTED BY IDOCK:   -6.34 KCAL/MOL
REMARK 923 INTER-LIGAND FREE ENERGY PREDICTED BY IDOCK:   -6.11 KCAL/MOL
REMARK 924 INTRA-LIGAND FREE ENERGY PREDICTED BY IDOCK:   -0.23 KCAL/MOL
REMARK 927      BINDING AFFINITY PREDICTED BY RF-SCORE:    0.00 PKD
ROOT
HETATM    1  C   UNL     1     -10.550  15.799  65.092  1.00  0.00    -0.411 C  
HETATM    2  N   UNL     1     -11.759  14.996  65.177  1.00  0.00    -0.290 NA 
HETATM    3  H   UNL     1     -12.536  15.155  64.537  1.00  0.00     0.000 HD 
ENDROOT
BRANCH   2   4
HETATM    4  C   UNL     1     -11.832  13.996  66.160  1.00  0.00    -0.407 A  
HETATM    5  C   UNL     1     -11.909  14.236  67.540  1.00  0.00    -0.395 A  
HETATM    6  F   UNL     1     -12.035  15.481  68.022  1.00  0.00    -0.336 F  
HETATM    7  C   UNL     1     -11.834  13.205  68.476  1.00  0.00    -0.377 A  
HETATM    8  C   UNL     1     -11.635  11.882  68.067  1.00  0.00    -0.401 A  
HETATM    9  C   UNL     1     -11.593  11.616  66.693  1.00  0.00    -0.194 A  
HETATM   10  C   UNL     1     -11.665  12.662  65.758  1.00  0.00    -0.466 A  
BRANCH   8  11
HETATM   11  C   UNL     1     -11.382  10.801  69.032  1.00  0.00    -0.284 A  
HETATM   12  N   UNL     1     -11.949  10.682  70.216  1.00  0.00    -0.309 NA 
HETATM   13  C   UNL     1     -11.588   9.472  70.797  1.00  0.00    -0.308 A  
HETATM   14  C   UNL     1     -12.008   8.991  72.058  1.00  0.00    -0.433 A  
HETATM   15  C   UNL     1     -11.592   7.725  72.493  1.00  0.00    -0.422 A  
HETATM   16  C   UNL     1     -10.767   6.952  71.689  1.00  0.00    -0.222 A  
HETATM   17  O   UNL     1     -10.352   5.709  72.077  1.00  0.00    -0.199 OA 
HETATM   18  C   UNL     1     -10.321   7.405  70.452  1.00  0.00    -0.215 A  
HETATM   19  C   UNL     1     -10.746   8.671  70.030  1.00  0.00    -0.228 A  
HETATM   20  H   UNL     1      -9.786   5.179  71.526  1.00  0.00     0.000 HD 
HETATM   21  S   UNL     1     -10.373   9.483  68.570  1.00  0.00    -0.213 SA 
ENDBRANCH   8  11
ENDBRANCH   2   4
TORSDOF 2
ENDMDL
MODEL       45
REMARK 921   NORMALIZED FREE ENERGY PREDICTED BY IDOCK:   -5.48 KCAL/MOL
REMARK 922        TOTAL FREE ENERGY PREDICTED BY IDOCK:   -6.33 KCAL/MOL
REMARK 923 INTER-LIGAND FREE ENERGY PREDICTED BY IDOCK:   -6.10 KCAL/MOL
REMARK 924 INTRA-LIGAND FREE ENERGY PREDICTED BY IDOCK:   -0.22 KCAL/MOL
REMARK 927      BINDING AFFINITY PREDICTED BY RF-SCORE:    0.00 PKD
ROOT
HETATM    1  C   UNL     1      -8.918   5.991  66.422  1.00  0.00    -0.145 C  
HETATM    2  N   UNL     1     -10.163   6.740  66.358  1.00  0.00    -0.449 NA 
HETATM    3  H   UNL     1     -10.906   6.462  65.718  1.00  0.00     0.000 HD 
ENDROOT
BRANCH   2   4
HETATM    4  C   UNL     1     -10.319   7.854  67.198  1.00  0.00    -0.328 A  
HETATM    5  C   UNL     1     -10.534   7.787  68.583  1.00  0.00    -0.172 A  
HETATM    6  F   UNL     1     -10.489   6.616  69.236  1.00  0.00    -0.181 F  
HETATM    7  C   UNL     1     -10.826   8.920  69.343  1.00  0.00    -0.133 A  
HETATM    8  C   UNL     1     -10.958  10.172  68.735  1.00  0.00    -0.264 A  
HETATM    9  C   UNL     1     -10.712  10.267  67.360  1.00  0.00    -0.339 A  
HETATM   10  C   UNL     1     -10.422   9.121  66.603  1.00  0.00    -0.237 A  
BRANCH   8  11
HETATM   11  C   UNL     1     -11.431  11.350  69.479  1.00  0.00    -0.312 A  
HETATM   12  N   UNL     1     -11.288  12.605  69.100  1.00  0.00    -0.280 NA 
HETATM   13  C   UNL     1     -11.977  13.445  69.967  1.00  0.00    -0.337 A  
HETATM   14  C   UNL     1     -12.062  14.853  69.875  1.00  0.00    -0.379 A  
HETATM   15  C   UNL     1     -12.835  15.564  70.804  1.00  0.00    -0.513 A  
HETATM   16  C   UNL     1     -13.508  14.886  71.809  1.00  0.00    -0.388 A  
HETATM   17  O   UNL     1     -14.279  15.547  72.725  1.00  0.00    -0.465 OA 
HETATM   18  C   UNL     1     -13.428  13.504  71.939  1.00  0.00    -0.528 A  
HETATM   19  C   UNL     1     -12.653  12.806  71.003  1.00  0.00    -0.271 A  
HETATM   20  H   UNL     1     -14.740  15.083  73.414  1.00  0.00     0.000 HD 
HETATM   21  S   UNL     1     -12.376  11.121  70.902  1.00  0.00    -0.384 SA 
ENDBRANCH   8  11
ENDBRANCH   2   4
TORSDOF 2
ENDMDL
MODEL       46
REMARK 921   NORMALIZED FREE ENERGY PREDICTED BY IDOCK:   -5.47 KCAL/MOL
REMARK 922        TOTAL FREE ENERGY PREDICTED BY IDOCK:   -6.32 KCAL/MOL
REMARK 923 INTER-LIGAND FREE ENERGY PREDICTED BY IDOCK:   -6.10 KCAL/MOL
REMARK 924 INTRA-LIGAND FREE ENERGY PREDICTED BY IDOCK:   -0.21 KCAL/MOL
REMARK 927      BINDING AFFINITY PREDICTED BY RF-SCORE:    0.00 PKD
ROOT
HETATM    1  C   UNL     1      -7.155  20.903  67.173  1.00  0.00    -0.351 C  
HETATM    2  N   UNL     1      -8.479  20.586  66.660  1.00  0.00    -0.546 NA 
HETATM    3  H   UNL     1      -9.078  21.317  66.277  1.00  0.00     0.000 HD 
ENDROOT
BRANCH   2   4
HETATM    4  C   UNL     1      -8.913  19.251  66.704  1.00  0.00    -0.338 A  
HETATM    5  C   UNL     1     -10.239  18.850  66.930  1.00  0.00    -0.386 A  
HETATM    6  F   UNL     1     -11.232  19.749  67.011  1.00  0.00    -0.549 F  
HETATM    7  C   UNL     1     -10.587  17.511  67.107  1.00  0.00    -0.264 A  
HETATM    8  C   UNL     1      -9.608  16.513  67.105  1.00  0.00    -0.243 A  
HETATM    9  C   UNL     1      -8.284  16.888  66.844  1.00  0.00    -0.245 A  
HETATM   10  C   UNL     1      -7.943  18.239  66.672  1.00  0.00    -0.273 A  
BRANCH   8  11
HETATM   11  C   UNL     1      -9.920  15.118  67.456  1.00  0.00    -0.225 A  
HETATM   12  N   UNL     1     -10.754  14.735  68.403  1.00  0.00    -0.237 NA 
HETATM   13  C   UNL     1     -10.916  13.355  68.364  1.00  0.00    -0.267 A  
HETATM   14  C   UNL     1     -11.739  12.584  69.216  1.00  0.00    -0.379 A  
HETATM   15  C   UNL     1     -11.833  11.199  69.025  1.00  0.00    -0.418 A  
HETATM   16  C   UNL     1     -11.117  10.589  68.006  1.00  0.00    -0.300 A  
HETATM   17  O   UNL     1     -11.194   9.242  67.785  1.00  0.00    -0.484 OA 
HETATM   18  C   UNL     1     -10.282  11.316  67.164  1.00  0.00    -0.235 A  
HETATM   19  C   UNL     1     -10.199  12.700  67.365  1.00  0.00    -0.217 A  
HETATM   20  H   UNL     1     -10.702   8.824  67.087  1.00  0.00     0.000 HD 
HETATM   21  S   UNL     1      -9.274  13.845  66.492  1.00  0.00    -0.144 SA 
ENDBRANCH   8  11
ENDBRANCH   2   4
TORSDOF 2
ENDMDL
MODEL       47
REMARK 921   NORMALIZED FREE ENERGY PREDICTED BY IDOCK:   -5.46 KCAL/MOL
REMARK 922        TOTAL FREE ENERGY PREDICTED BY IDOCK:   -6.31 KCAL/MOL
REMARK 923 INTER-LIGAND FREE ENERGY PREDICTED BY IDOCK:   -6.07 KCAL/MOL
REMARK 924 INTRA-LIGAND FREE ENERGY PREDICTED BY IDOCK:   -0.24 KCAL/MOL
REMARK 927      BINDING AFFINITY PREDICTED BY RF-SCORE:    0.00 PKD
ROOT
HETATM    1  C   UNL     1      -8.742  20.422  67.346  1.00  0.00    -0.320 C  
HETATM    2  N   UNL     1     -10.130  19.989  67.342  1.00  0.00    -0.413 NA 
HETATM    3  H   UNL     1     -10.886  20.662  67.467  1.00  0.00     0.000 HD 
ENDROOT
BRANCH   2   4
HETATM    4  C   UNL     1     -10.407  18.624  67.162  1.00  0.00    -0.401 A  
HETATM    5  C   UNL     1     -10.469  17.678  68.196  1.00  0.00    -0.385 A  
HETATM    6  F   UNL     1     -10.375  18.049  69.482  1.00  0.00    -0.313 F  
HETATM    7  C   UNL     1     -10.605  16.313  67.944  1.00  0.00    -0.318 A  
HETATM    8  C   UNL     1     -10.643  15.830  66.632  1.00  0.00    -0.307 A  
HETATM    9  C   UNL     1     -10.619  16.761  65.586  1.00  0.00    -0.258 A  
HETATM   10  C   UNL     1     -10.479  18.132  65.850  1.00  0.00    -0.292 A  
BRANCH   8  11
HETATM   11  C   UNL     1     -10.614  14.389  66.334  1.00  0.00    -0.297 A  
HETATM   12  N   UNL     1     -10.191  13.848  65.209  1.00  0.00    -0.348 NA 
HETATM   13  C   UNL     1     -10.170  12.463  65.327  1.00  0.00    -0.282 A  
HETATM   14  C   UNL     1      -9.765  11.545  64.331  1.00  0.00    -0.229 A  
HETATM   15  C   UNL     1      -9.757  10.172  64.613  1.00  0.00    -0.377 A  
HETATM   16  C   UNL     1     -10.151   9.719  65.863  1.00  0.00    -0.243 A  
HETATM   17  O   UNL     1     -10.145   8.388  66.176  1.00  0.00    -0.462 OA 
HETATM   18  C   UNL     1     -10.574  10.595  66.857  1.00  0.00    -0.311 A  
HETATM   19  C   UNL     1     -10.575  11.965  66.562  1.00  0.00    -0.243 A  
HETATM   20  H   UNL     1     -10.415   8.078  67.033  1.00  0.00     0.000 HD 
HETATM   21  S   UNL     1     -11.029  13.267  67.574  1.00  0.00    -0.270 SA 
ENDBRANCH   8  11
ENDBRANCH   2   4
TORSDOF 2
ENDMDL
MODEL       48
REMARK 921   NORMALIZED FREE ENERGY PREDICTED BY IDOCK:   -5.40 KCAL/MOL
REMARK 922        TOTAL FREE ENERGY PREDICTED BY IDOCK:   -6.24 KCAL/MOL
REMARK 923 INTER-LIGAND FREE ENERGY PREDICTED BY IDOCK:   -6.02 KCAL/MOL
REMARK 924 INTRA-LIGAND FREE ENERGY PREDICTED BY IDOCK:   -0.21 KCAL/MOL
REMARK 927      BINDING AFFINITY PREDICTED BY RF-SCORE:    0.00 PKD
ROOT
HETATM    1  C   UNL     1      -8.883   4.870  64.817  1.00  0.00    -0.147 C  
HETATM    2  N   UNL     1      -8.674   5.531  66.096  1.00  0.00    -0.128 NA 
HETATM    3  H   UNL     1      -8.304   5.015  66.894  1.00  0.00     0.000 HD 
ENDROOT
BRANCH   2   4
HETATM    4  C   UNL     1      -8.992   6.894  66.207  1.00  0.00    -0.151 A  
HETATM    5  C   UNL     1     -10.177   7.395  66.767  1.00  0.00    -0.242 A  
HETATM    6  F   UNL     1     -11.065   6.579  67.355  1.00  0.00    -0.341 F  
HETATM    7  C   UNL     1     -10.503   8.750  66.720  1.00  0.00    -0.283 A  
HETATM    8  C   UNL     1      -9.669   9.662  66.068  1.00  0.00    -0.331 A  
HETATM    9  C   UNL     1      -8.463   9.189  65.534  1.00  0.00    -0.160 A  
HETATM   10  C   UNL     1      -8.146   7.823  65.583  1.00  0.00    -0.129 A  
BRANCH   8  11
HETATM   11  C   UNL     1     -10.066  11.063  65.854  1.00  0.00    -0.249 A  
HETATM   12  N   UNL     1      -9.616  12.100  66.532  1.00  0.00    -0.222 NA 
HETATM   13  C   UNL     1     -10.094  13.279  65.971  1.00  0.00    -0.299 A  
HETATM   14  C   UNL     1      -9.816  14.590  66.418  1.00  0.00    -0.306 A  
HETATM   15  C   UNL     1     -10.338  15.688  65.720  1.00  0.00    -0.386 A  
HETATM   16  C   UNL     1     -11.128  15.484  64.598  1.00  0.00    -0.359 A  
HETATM   17  O   UNL     1     -11.645  16.531  63.887  1.00  0.00    -1.598 OA 
HETATM   18  C   UNL     1     -11.436  14.206  64.145  1.00  0.00    -0.192 A  
HETATM   19  C   UNL     1     -10.906  13.118  64.851  1.00  0.00    -0.332 A  
HETATM   20  H   UNL     1     -12.186  16.391  63.119  1.00  0.00     0.000 HD 
HETATM   21  S   UNL     1     -11.101  11.449  64.531  1.00  0.00    -0.169 SA 
ENDBRANCH   8  11
ENDBRANCH   2   4
TORSDOF 2
ENDMDL
MODEL       49
REMARK 921   NORMALIZED FREE ENERGY PREDICTED BY IDOCK:   -5.40 KCAL/MOL
REMARK 922        TOTAL FREE ENERGY PREDICTED BY IDOCK:   -6.23 KCAL/MOL
REMARK 923 INTER-LIGAND FREE ENERGY PREDICTED BY IDOCK:   -6.02 KCAL/MOL
REMARK 924 INTRA-LIGAND FREE ENERGY PREDICTED BY IDOCK:   -0.21 KCAL/MOL
REMARK 927      BINDING AFFINITY PREDICTED BY RF-SCORE:    0.00 PKD
ROOT
HETATM    1  C   UNL     1     -12.072  12.470  63.476  1.00  0.00    -0.562 C  
HETATM    2  N   UNL     1     -11.277  12.953  64.593  1.00  0.00    -0.306 NA 
HETATM    3  H   UNL     1     -10.711  13.797  64.504  1.00  0.00     0.000 HD 
ENDROOT
BRANCH   2   4
HETATM    4  C   UNL     1     -11.304  12.232  65.798  1.00  0.00    -0.355 A  
HETATM    5  C   UNL     1     -11.810  12.723  67.011  1.00  0.00    -0.361 A  
HETATM    6  F   UNL     1     -12.424  13.914  67.076  1.00  0.00    -0.433 F  
HETATM    7  C   UNL     1     -11.679  12.017  68.207  1.00  0.00    -0.396 A  
HETATM    8  C   UNL     1     -10.995  10.798  68.245  1.00  0.00    -0.307 A  
HETATM    9  C   UNL     1     -10.514  10.273  67.039  1.00  0.00    -0.304 A  
HETATM   10  C   UNL     1     -10.647  10.993  65.841  1.00  0.00    -0.270 A  
BRANCH   8  11
HETATM   11  C   UNL     1     -10.693  10.116  69.514  1.00  0.00    -0.249 A  
HETATM   12  N   UNL     1     -11.586   9.621  70.349  1.00  0.00    -0.255 NA 
HETATM   13  C   UNL     1     -10.948   8.924  71.369  1.00  0.00    -0.310 A  
HETATM   14  C   UNL     1     -11.575   8.249  72.440  1.00  0.00    -0.464 A  
HETATM   15  C   UNL     1     -10.797   7.550  73.372  1.00  0.00    -0.339 A  
HETATM   16  C   UNL     1      -9.416   7.527  73.243  1.00  0.00    -0.240 A  
HETATM   17  O   UNL     1      -8.627   6.845  74.128  1.00  0.00    -0.136 OA 
HETATM   18  C   UNL     1      -8.767   8.197  72.212  1.00  0.00    -0.243 A  
HETATM   19  C   UNL     1      -9.558   8.891  71.287  1.00  0.00    -0.278 A  
HETATM   20  H   UNL     1      -7.680   6.830  74.040  1.00  0.00     0.000 HD 
HETATM   21  S   UNL     1      -9.051   9.791  69.923  1.00  0.00    -0.214 SA 
ENDBRANCH   8  11
ENDBRANCH   2   4
TORSDOF 2
ENDMDL
MODEL       50
REMARK 921   NORMALIZED FREE ENERGY PREDICTED BY IDOCK:   -5.38 KCAL/MOL
REMARK 922        TOTAL FREE ENERGY PREDICTED BY IDOCK:   -6.21 KCAL/MOL
REMARK 923 INTER-LIGAND FREE ENERGY PREDICTED BY IDOCK:   -6.01 KCAL/MOL
REMARK 924 INTRA-LIGAND FREE ENERGY PREDICTED BY IDOCK:   -0.20 KCAL/MOL
REMARK 927      BINDING AFFINITY PREDICTED BY RF-SCORE:    0.00 PKD
ROOT
HETATM    1  C   UNL     1      -8.685   8.027  73.647  1.00  0.00    -0.268 C  
HETATM    2  N   UNL     1      -7.838   8.494  72.561  1.00  0.00    -0.323 NA 
HETATM    3  H   UNL     1      -6.823   8.498  72.657  1.00  0.00     0.000 HD 
ENDROOT
BRANCH   2   4
HETATM    4  C   UNL     1      -8.448   8.937  71.377  1.00  0.00    -0.153 A  
HETATM    5  C   UNL     1      -7.756   9.372  70.236  1.00  0.00    -0.144 A  
HETATM    6  F   UNL     1      -6.420   9.283  70.159  1.00  0.00    -0.038 F  
HETATM    7  C   UNL     1      -8.413   9.937  69.143  1.00  0.00    -0.148 A  
HETATM    8  C   UNL     1      -9.797  10.129  69.163  1.00  0.00    -0.225 A  
HETATM    9  C   UNL     1     -10.511   9.669  70.277  1.00  0.00    -0.338 A  
HETATM   10  C   UNL     1      -9.841   9.105  71.374  1.00  0.00    -0.354 A  
BRANCH   8  11
HETATM   11  C   UNL     1     -10.493  10.874  68.102  1.00  0.00    -0.182 A  
HETATM   12  N   UNL     1     -11.146  12.008  68.263  1.00  0.00    -0.225 NA 
HETATM   13  C   UNL     1     -11.555  12.502  67.029  1.00  0.00    -0.368 A  
HETATM   14  C   UNL     1     -12.270  13.699  66.803  1.00  0.00    -0.416 A  
HETATM   15  C   UNL     1     -12.575  14.089  65.491  1.00  0.00    -0.543 A  
HETATM   16  C   UNL     1     -12.180  13.297  64.423  1.00  0.00    -0.390 A  
HETATM   17  O   UNL     1     -12.452  13.652  63.131  1.00  0.00    -1.033 OA 
HETATM   18  C   UNL     1     -11.493  12.104  64.614  1.00  0.00    -0.388 A  
HETATM   19  C   UNL     1     -11.193  11.727  65.930  1.00  0.00    -0.290 A  
HETATM   20  H   UNL     1     -12.181  13.110  62.399  1.00  0.00     0.000 HD 
HETATM   21  S   UNL     1     -10.360  10.334  66.471  1.00  0.00    -0.182 SA 
ENDBRANCH   8  11
ENDBRANCH   2   4
TORSDOF 2
ENDMDL
MODEL       51
REMARK 921   NORMALIZED FREE ENERGY PREDICTED BY IDOCK:   -5.35 KCAL/MOL
REMARK 922        TOTAL FREE ENERGY PREDICTED BY IDOCK:   -6.18 KCAL/MOL
REMARK 923 INTER-LIGAND FREE ENERGY PREDICTED BY IDOCK:   -6.13 KCAL/MOL
REMARK 924 INTRA-LIGAND FREE ENERGY PREDICTED BY IDOCK:   -0.05 KCAL/MOL
REMARK 927      BINDING AFFINITY PREDICTED BY RF-SCORE:    0.00 PKD
ROOT
HETATM    1  C   UNL     1     -12.350  11.444  70.928  1.00  0.00    -0.381 C  
HETATM    2  N   UNL     1     -12.908  12.770  71.134  1.00  0.00    -0.288 NA 
HETATM    3  H   UNL     1     -13.703  12.910  71.758  1.00  0.00     0.000 HD 
ENDROOT
BRANCH   2   4
HETATM    4  C   UNL     1     -12.329  13.855  70.457  1.00  0.00    -0.369 A  
HETATM    5  C   UNL     1     -11.977  13.853  69.099  1.00  0.00    -0.363 A  
HETATM    6  F   UNL     1     -12.285  12.818  68.303  1.00  0.00    -0.349 F  
HETATM    7  C   UNL     1     -11.273  14.907  68.515  1.00  0.00    -0.292 A  
HETATM    8  C   UNL     1     -10.852  15.996  69.284  1.00  0.00    -0.300 A  
HETATM    9  C   UNL     1     -11.224  16.035  70.633  1.00  0.00    -0.395 A  
HETATM   10  C   UNL     1     -11.929  14.968  71.212  1.00  0.00    -0.388 A  
BRANCH   8  11
HETATM   11  C   UNL     1      -9.965  17.036  68.737  1.00  0.00    -0.293 A  
HETATM   12  N   UNL     1      -8.694  17.198  69.046  1.00  0.00    -0.171 NA 
HETATM   13  C   UNL     1      -8.130  18.180  68.239  1.00  0.00    -0.297 A  
HETATM   14  C   UNL     1      -6.788  18.621  68.271  1.00  0.00    -0.257 A  
HETATM   15  C   UNL     1      -6.353  19.594  67.361  1.00  0.00    -0.210 A  
HETATM   16  C   UNL     1      -7.241  20.123  66.436  1.00  0.00    -0.273 A  
HETATM   17  O   UNL     1      -6.849  21.066  65.527  1.00  0.00    -0.494 OA 
HETATM   18  C   UNL     1      -8.573  19.726  66.392  1.00  0.00    -0.398 A  
HETATM   19  C   UNL     1      -8.993  18.751  67.307  1.00  0.00    -0.274 A  
HETATM   20  H   UNL     1      -7.457  21.429  64.894  1.00  0.00     0.000 HD 
HETATM   21  S   UNL     1     -10.550  18.065  67.485  1.00  0.00    -0.339 SA 
ENDBRANCH   8  11
ENDBRANCH   2   4
TORSDOF 2
ENDMDL
MODEL       52
REMARK 921   NORMALIZED FREE ENERGY PREDICTED BY IDOCK:   -5.34 KCAL/MOL
REMARK 922        TOTAL FREE ENERGY PREDICTED BY IDOCK:   -6.17 KCAL/MOL
REMARK 923 INTER-LIGAND FREE ENERGY PREDICTED BY IDOCK:   -5.93 KCAL/MOL
REMARK 924 INTRA-LIGAND FREE ENERGY PREDICTED BY IDOCK:   -0.24 KCAL/MOL
REMARK 927      BINDING AFFINITY PREDICTED BY RF-SCORE:    0.00 PKD
ROOT
HETATM    1  C   UNL     1      -9.884   8.411  68.764  1.00  0.00    -0.173 C  
HETATM    2  N   UNL     1     -11.083   8.882  68.090  1.00  0.00    -0.449 NA 
HETATM    3  H   UNL     1     -11.845   8.239  67.874  1.00  0.00     0.000 HD 
ENDROOT
BRANCH   2   4
HETATM    4  C   UNL     1     -11.170  10.240  67.744  1.00  0.00    -0.190 A  
HETATM    5  C   UNL     1     -10.581  10.813  66.606  1.00  0.00    -0.232 A  
HETATM    6  F   UNL     1      -9.971  10.055  65.683  1.00  0.00    -0.290 F  
HETATM    7  C   UNL     1     -10.578  12.191  66.389  1.00  0.00    -0.275 A  
HETATM    8  C   UNL     1     -11.133  13.063  67.331  1.00  0.00    -0.302 A  
HETATM    9  C   UNL     1     -11.758  12.509  68.456  1.00  0.00    -0.369 A  
HETATM   10  C   UNL     1     -11.752  11.121  68.667  1.00  0.00    -0.389 A  
BRANCH   8  11
HETATM   11  C   UNL     1     -10.994  14.523  67.214  1.00  0.00    -0.305 A  
HETATM   12  N   UNL     1     -11.047  15.381  68.213  1.00  0.00    -0.295 NA 
HETATM   13  C   UNL     1     -10.735  16.658  67.761  1.00  0.00    -0.327 A  
HETATM   14  C   UNL     1     -10.679  17.832  68.545  1.00  0.00    -0.148 A  
HETATM   15  C   UNL     1     -10.305  19.047  67.953  1.00  0.00    -0.485 A  
HETATM   16  C   UNL     1      -9.997  19.092  66.601  1.00  0.00    -0.376 A  
HETATM   17  O   UNL     1      -9.618  20.257  65.993  1.00  0.00    -0.614 OA 
HETATM   18  C   UNL     1     -10.062  17.959  65.798  1.00  0.00    -0.058 A  
HETATM   19  C   UNL     1     -10.435  16.752  66.404  1.00  0.00    -0.269 A  
HETATM   20  H   UNL     1      -9.407  20.288  65.067  1.00  0.00     0.000 HD 
HETATM   21  S   UNL     1     -10.594  15.208  65.684  1.00  0.00    -0.384 SA 
ENDBRANCH   8  11
ENDBRANCH   2   4
TORSDOF 2
ENDMDL
MODEL       53
REMARK 921   NORMALIZED FREE ENERGY PREDICTED BY IDOCK:   -5.27 KCAL/MOL
REMARK 922        TOTAL FREE ENERGY PREDICTED BY IDOCK:   -6.09 KCAL/MOL
REMARK 923 INTER-LIGAND FREE ENERGY PREDICTED BY IDOCK:   -5.87 KCAL/MOL
REMARK 924 INTRA-LIGAND FREE ENERGY PREDICTED BY IDOCK:   -0.23 KCAL/MOL
REMARK 927      BINDING AFFINITY PREDICTED BY RF-SCORE:    0.00 PKD
ROOT
HETATM    1  C   UNL     1      -6.232  20.050  70.686  1.00  0.00    -0.281 C  
HETATM    2  N   UNL     1      -5.903  19.294  69.488  1.00  0.00    -0.241 NA 
HETATM    3  H   UNL     1      -5.007  19.425  69.019  1.00  0.00     0.000 HD 
ENDROOT
BRANCH   2   4
HETATM    4  C   UNL     1      -6.847  18.381  68.991  1.00  0.00    -0.265 A  
HETATM    5  C   UNL     1      -6.804  16.994  69.203  1.00  0.00    -0.240 A  
HETATM    6  F   UNL     1      -5.890  16.444  70.016  1.00  0.00    -0.169 F  
HETATM    7  C   UNL     1      -7.685  16.121  68.565  1.00  0.00    -0.170 A  
HETATM    8  C   UNL     1      -8.628  16.600  67.650  1.00  0.00    -0.207 A  
HETATM    9  C   UNL     1      -8.711  17.984  67.452  1.00  0.00    -0.248 A  
HETATM   10  C   UNL     1      -7.817  18.854  68.095  1.00  0.00    -0.327 A  
BRANCH   8  11
HETATM   11  C   UNL     1      -9.453  15.691  66.838  1.00  0.00    -0.229 A  
HETATM   12  N   UNL     1     -10.543  16.029  66.178  1.00  0.00    -0.313 NA 
HETATM   13  C   UNL     1     -10.983  14.960  65.407  1.00  0.00    -0.364 A  
HETATM   14  C   UNL     1     -12.113  14.950  64.559  1.00  0.00    -0.420 A  
HETATM   15  C   UNL     1     -12.407  13.804  63.806  1.00  0.00    -0.313 A  
HETATM   16  C   UNL     1     -11.593  12.686  63.899  1.00  0.00    -0.451 A  
HETATM   17  O   UNL     1     -11.844  11.556  63.171  1.00  0.00    -0.881 OA 
HETATM   18  C   UNL     1     -10.485  12.657  64.739  1.00  0.00    -0.343 A  
HETATM   19  C   UNL     1     -10.202  13.810  65.484  1.00  0.00    -0.316 A  
HETATM   20  H   UNL     1     -11.286  10.789  63.236  1.00  0.00     0.000 HD 
HETATM   21  S   UNL     1      -8.918  14.073  66.584  1.00  0.00    -0.089 SA 
ENDBRANCH   8  11
ENDBRANCH   2   4
TORSDOF 2
ENDMDL
MODEL       54
REMARK 921   NORMALIZED FREE ENERGY PREDICTED BY IDOCK:   -5.26 KCAL/MOL
REMARK 922        TOTAL FREE ENERGY PREDICTED BY IDOCK:   -6.08 KCAL/MOL
REMARK 923 INTER-LIGAND FREE ENERGY PREDICTED BY IDOCK:   -5.86 KCAL/MOL
REMARK 924 INTRA-LIGAND FREE ENERGY PREDICTED BY IDOCK:   -0.21 KCAL/MOL
REMARK 927      BINDING AFFINITY PREDICTED BY RF-SCORE:    0.00 PKD
ROOT
HETATM    1  C   UNL     1      -6.962  20.615  67.101  1.00  0.00    -0.322 C  
HETATM    2  N   UNL     1      -8.356  20.406  66.740  1.00  0.00    -0.505 NA 
HETATM    3  H   UNL     1      -8.991  21.198  66.637  1.00  0.00     0.000 HD 
ENDROOT
BRANCH   2   4
HETATM    4  C   UNL     1      -8.806  19.093  66.535  1.00  0.00    -0.334 A  
HETATM    5  C   UNL     1     -10.132  18.666  66.712  1.00  0.00    -0.380 A  
HETATM    6  F   UNL     1     -11.111  19.540  66.989  1.00  0.00    -0.566 F  
HETATM    7  C   UNL     1     -10.493  17.321  66.634  1.00  0.00    -0.257 A  
HETATM    8  C   UNL     1      -9.527  16.334  66.415  1.00  0.00    -0.322 A  
HETATM    9  C   UNL     1      -8.204  16.742  66.200  1.00  0.00    -0.300 A  
HETATM   10  C   UNL     1      -7.850  18.097  66.284  1.00  0.00    -0.280 A  
BRANCH   8  11
HETATM   11  C   UNL     1      -9.849  14.901  66.498  1.00  0.00    -0.266 A  
HETATM   12  N   UNL     1      -9.616  14.007  65.557  1.00  0.00    -0.087 NA 
HETATM   13  C   UNL     1      -9.914  12.733  66.026  1.00  0.00    -0.271 A  
HETATM   14  C   UNL     1      -9.781  11.524  65.307  1.00  0.00    -0.268 A  
HETATM   15  C   UNL     1     -10.081  10.306  65.932  1.00  0.00    -0.319 A  
HETATM   16  C   UNL     1     -10.512  10.292  67.250  1.00  0.00    -0.253 A  
HETATM   17  O   UNL     1     -10.803   9.121  67.894  1.00  0.00    -0.438 OA 
HETATM   18  C   UNL     1     -10.673  11.465  67.979  1.00  0.00    -0.240 A  
HETATM   19  C   UNL     1     -10.367  12.675  67.342  1.00  0.00    -0.220 A  
HETATM   20  H   UNL     1     -11.099   9.112  68.798  1.00  0.00     0.000 HD 
HETATM   21  S   UNL     1     -10.457  14.261  67.978  1.00  0.00    -0.239 SA 
ENDBRANCH   8  11
ENDBRANCH   2   4
TORSDOF 2
ENDMDL
MODEL       55
REMARK 921   NORMALIZED FREE ENERGY PREDICTED BY IDOCK:   -5.24 KCAL/MOL
REMARK 922        TOTAL FREE ENERGY PREDICTED BY IDOCK:   -6.06 KCAL/MOL
REMARK 923 INTER-LIGAND FREE ENERGY PREDICTED BY IDOCK:   -5.85 KCAL/MOL
REMARK 924 INTRA-LIGAND FREE ENERGY PREDICTED BY IDOCK:   -0.21 KCAL/MOL
REMARK 927      BINDING AFFINITY PREDICTED BY RF-SCORE:    0.00 PKD
ROOT
HETATM    1  C   UNL     1     -10.858  17.307  65.095  1.00  0.00     0.058 C  
HETATM    2  N   UNL     1     -11.197  16.175  64.247  1.00  0.00    -1.138 NA 
HETATM    3  H   UNL     1     -11.525  16.319  63.292  1.00  0.00     0.000 HD 
ENDROOT
BRANCH   2   4
HETATM    4  C   UNL     1     -11.063  14.880  64.771  1.00  0.00    -0.383 A  
HETATM    5  C   UNL     1     -11.786  13.760  64.331  1.00  0.00    -0.427 A  
HETATM    6  F   UNL     1     -12.600  13.835  63.267  1.00  0.00    -0.469 F  
HETATM    7  C   UNL     1     -11.716  12.530  64.984  1.00  0.00    -0.407 A  
HETATM    8  C   UNL     1     -10.945  12.379  66.141  1.00  0.00    -0.321 A  
HETATM    9  C   UNL     1     -10.187  13.473  66.576  1.00  0.00    -0.283 A  
HETATM   10  C   UNL     1     -10.266  14.708  65.914  1.00  0.00    -0.344 A  
BRANCH   8  11
HETATM   11  C   UNL     1     -10.986  11.147  66.945  1.00  0.00    -0.273 A  
HETATM   12  N   UNL     1     -10.617   9.950  66.534  1.00  0.00    -0.137 NA 
HETATM   13  C   UNL     1     -10.652   9.051  67.594  1.00  0.00    -0.231 A  
HETATM   14  C   UNL     1     -10.314   7.681  67.540  1.00  0.00    -0.326 A  
HETATM   15  C   UNL     1     -10.357   6.907  68.708  1.00  0.00    -0.200 A  
HETATM   16  C   UNL     1     -10.735   7.487  69.909  1.00  0.00    -0.246 A  
HETATM   17  O   UNL     1     -10.778   6.765  71.070  1.00  0.00    -0.223 OA 
HETATM   18  C   UNL     1     -11.093   8.828  69.992  1.00  0.00    -0.169 A  
HETATM   19  C   UNL     1     -11.043   9.590  68.817  1.00  0.00    -0.001 A  
HETATM   20  H   UNL     1     -11.037   7.162  71.893  1.00  0.00     0.000 HD 
HETATM   21  S   UNL     1     -11.414  11.247  68.612  1.00  0.00    -0.324 SA 
ENDBRANCH   8  11
ENDBRANCH   2   4
TORSDOF 2
ENDMDL
MODEL       56
REMARK 921   NORMALIZED FREE ENERGY PREDICTED BY IDOCK:   -5.23 KCAL/MOL
REMARK 922        TOTAL FREE ENERGY PREDICTED BY IDOCK:   -6.04 KCAL/MOL
REMARK 923 INTER-LIGAND FREE ENERGY PREDICTED BY IDOCK:   -6.02 KCAL/MOL
REMARK 924 INTRA-LIGAND FREE ENERGY PREDICTED BY IDOCK:   -0.02 KCAL/MOL
REMARK 927      BINDING AFFINITY PREDICTED BY RF-SCORE:    0.00 PKD
ROOT
HETATM    1  C   UNL     1     -13.538  15.833  72.911  1.00  0.00    -0.577 C  
HETATM    2  N   UNL     1     -12.165  15.760  72.436  1.00  0.00    -0.423 NA 
HETATM    3  H   UNL     1     -11.410  16.207  72.955  1.00  0.00     0.000 HD 
ENDROOT
BRANCH   2   4
HETATM    4  C   UNL     1     -11.903  15.060  71.247  1.00  0.00    -0.337 A  
HETATM    5  C   UNL     1     -12.378  13.771  70.958  1.00  0.00    -0.372 A  
HETATM    6  F   UNL     1     -13.236  13.147  71.779  1.00  0.00    -0.445 F  
HETATM    7  C   UNL     1     -11.967  13.068  69.825  1.00  0.00    -0.377 A  
HETATM    8  C   UNL     1     -11.024  13.614  68.949  1.00  0.00    -0.281 A  
HETATM    9  C   UNL     1     -10.565  14.913  69.200  1.00  0.00    -0.248 A  
HETATM   10  C   UNL     1     -10.981  15.611  70.345  1.00  0.00    -0.366 A  
BRANCH   8  11
HETATM   11  C   UNL     1     -10.446  12.832  67.845  1.00  0.00    -0.220 A  
HETATM   12  N   UNL     1      -9.217  12.358  67.803  1.00  0.00    -0.185 NA 
HETATM   13  C   UNL     1      -9.057  11.550  66.683  1.00  0.00    -0.190 A  
HETATM   14  C   UNL     1      -7.881  10.860  66.310  1.00  0.00    -0.158 A  
HETATM   15  C   UNL     1      -7.885  10.044  65.171  1.00  0.00    -0.136 A  
HETATM   16  C   UNL     1      -9.039   9.921  64.411  1.00  0.00    -0.254 A  
HETATM   17  O   UNL     1      -9.082   9.125  63.300  1.00  0.00    -0.428 OA 
HETATM   18  C   UNL     1     -10.206  10.602  64.740  1.00  0.00    -0.401 A  
HETATM   19  C   UNL     1     -10.188  11.412  65.883  1.00  0.00    -0.246 A  
HETATM   20  H   UNL     1      -9.873   9.041  62.779  1.00  0.00     0.000 HD 
HETATM   21  S   UNL     1     -11.459  12.354  66.535  1.00  0.00    -0.380 SA 
ENDBRANCH   8  11
ENDBRANCH   2   4
TORSDOF 2
ENDMDL
MODEL       57
REMARK 921   NORMALIZED FREE ENERGY PREDICTED BY IDOCK:   -5.21 KCAL/MOL
REMARK 922        TOTAL FREE ENERGY PREDICTED BY IDOCK:   -6.02 KCAL/MOL
REMARK 923 INTER-LIGAND FREE ENERGY PREDICTED BY IDOCK:   -5.80 KCAL/MOL
REMARK 924 INTRA-LIGAND FREE ENERGY PREDICTED BY IDOCK:   -0.22 KCAL/MOL
REMARK 927      BINDING AFFINITY PREDICTED BY RF-SCORE:    0.00 PKD
ROOT
HETATM    1  C   UNL     1     -10.159   6.249  74.544  1.00  0.00    -0.336 C  
HETATM    2  N   UNL     1     -10.577   5.795  73.227  1.00  0.00    -0.238 NA 
HETATM    3  H   UNL     1     -10.665   4.799  73.023  1.00  0.00     0.000 HD 
ENDROOT
BRANCH   2   4
HETATM    4  C   UNL     1     -10.856   6.756  72.243  1.00  0.00    -0.231 A  
HETATM    5  C   UNL     1     -10.960   6.487  70.869  1.00  0.00    -0.274 A  
HETATM    6  F   UNL     1     -10.908   5.230  70.403  1.00  0.00    -0.338 F  
HETATM    7  C   UNL     1     -11.096   7.503  69.925  1.00  0.00    -0.185 A  
HETATM    8  C   UNL     1     -11.092   8.846  70.315  1.00  0.00    -0.251 A  
HETATM    9  C   UNL     1     -11.026   9.135  71.683  1.00  0.00    -0.445 A  
HETATM   10  C   UNL     1     -10.886   8.105  72.627  1.00  0.00    -0.429 A  
BRANCH   8  11
HETATM   11  C   UNL     1     -11.062   9.940  69.331  1.00  0.00    -0.199 A  
HETATM   12  N   UNL     1     -10.573   9.860  68.110  1.00  0.00    -0.213 NA 
HETATM   13  C   UNL     1     -10.839  11.033  67.413  1.00  0.00    -0.274 A  
HETATM   14  C   UNL     1     -10.478  11.311  66.075  1.00  0.00    -0.310 A  
HETATM   15  C   UNL     1     -10.856  12.528  65.492  1.00  0.00    -0.312 A  
HETATM   16  C   UNL     1     -11.576  13.456  66.229  1.00  0.00    -0.344 A  
HETATM   17  O   UNL     1     -11.970  14.649  65.689  1.00  0.00    -0.329 OA 
HETATM   18  C   UNL     1     -11.928  13.221  67.554  1.00  0.00    -0.371 A  
HETATM   19  C   UNL     1     -11.546  11.999  68.123  1.00  0.00    -0.340 A  
HETATM   20  H   UNL     1     -12.463  15.285  66.195  1.00  0.00     0.000 HD 
HETATM   21  S   UNL     1     -11.840  11.431  69.710  1.00  0.00    -0.385 SA 
ENDBRANCH   8  11
ENDBRANCH   2   4
TORSDOF 2
ENDMDL
MODEL       58
REMARK 921   NORMALIZED FREE ENERGY PREDICTED BY IDOCK:   -5.21 KCAL/MOL
REMARK 922        TOTAL FREE ENERGY PREDICTED BY IDOCK:   -6.02 KCAL/MOL
REMARK 923 INTER-LIGAND FREE ENERGY PREDICTED BY IDOCK:   -5.80 KCAL/MOL
REMARK 924 INTRA-LIGAND FREE ENERGY PREDICTED BY IDOCK:   -0.22 KCAL/MOL
REMARK 927      BINDING AFFINITY PREDICTED BY RF-SCORE:    0.00 PKD
ROOT
HETATM    1  C   UNL     1      -9.023   7.259  66.067  1.00  0.00    -0.116 C  
HETATM    2  N   UNL     1     -10.242   7.993  66.364  1.00  0.00    -0.483 NA 
HETATM    3  H   UNL     1     -11.138   7.510  66.431  1.00  0.00     0.000 HD 
ENDROOT
BRANCH   2   4
HETATM    4  C   UNL     1     -10.160   9.381  66.557  1.00  0.00    -0.262 A  
HETATM    5  C   UNL     1     -10.582  10.053  67.714  1.00  0.00    -0.261 A  
HETATM    6  F   UNL     1     -11.004   9.378  68.794  1.00  0.00    -0.238 F  
HETATM    7  C   UNL     1     -10.610  11.445  67.793  1.00  0.00    -0.231 A  
HETATM    8  C   UNL     1     -10.252  12.230  66.693  1.00  0.00    -0.235 A  
HETATM    9  C   UNL     1      -9.792  11.580  65.541  1.00  0.00    -0.269 A  
HETATM   10  C   UNL     1      -9.772  10.178  65.469  1.00  0.00    -0.344 A  
BRANCH   8  11
HETATM   11  C   UNL     1     -10.433  13.690  66.689  1.00  0.00    -0.272 A  
HETATM   12  N   UNL     1     -10.472  14.461  67.757  1.00  0.00    -0.244 NA 
HETATM   13  C   UNL     1     -10.511  15.798  67.379  1.00  0.00    -0.297 A  
HETATM   14  C   UNL     1     -10.549  16.912  68.247  1.00  0.00    -0.363 A  
HETATM   15  C   UNL     1     -10.540  18.209  67.715  1.00  0.00    -0.407 A  
HETATM   16  C   UNL     1     -10.500  18.394  66.341  1.00  0.00    -0.383 A  
HETATM   17  O   UNL     1     -10.480  19.644  65.788  1.00  0.00    -0.495 OA 
HETATM   18  C   UNL     1     -10.483  17.318  65.459  1.00  0.00    -0.135 A  
HETATM   19  C   UNL     1     -10.489  16.028  66.006  1.00  0.00    -0.345 A  
HETATM   20  H   UNL     1     -10.453  19.770  64.846  1.00  0.00     0.000 HD 
HETATM   21  S   UNL     1     -10.464  14.528  65.183  1.00  0.00    -0.424 SA 
ENDBRANCH   8  11
ENDBRANCH   2   4
TORSDOF 2
ENDMDL
MODEL       59
REMARK 921   NORMALIZED FREE ENERGY PREDICTED BY IDOCK:   -5.20 KCAL/MOL
REMARK 922        TOTAL FREE ENERGY PREDICTED BY IDOCK:   -6.01 KCAL/MOL
REMARK 923 INTER-LIGAND FREE ENERGY PREDICTED BY IDOCK:   -5.80 KCAL/MOL
REMARK 924 INTRA-LIGAND FREE ENERGY PREDICTED BY IDOCK:   -0.22 KCAL/MOL
REMARK 927      BINDING AFFINITY PREDICTED BY RF-SCORE:    0.00 PKD
ROOT
HETATM    1  C   UNL     1     -10.295   4.554  72.358  1.00  0.00    -0.191 C  
HETATM    2  N   UNL     1     -11.270   5.631  72.413  1.00  0.00    -0.281 NA 
HETATM    3  H   UNL     1     -12.068   5.580  73.045  1.00  0.00     0.000 HD 
ENDROOT
BRANCH   2   4
HETATM    4  C   UNL     1     -11.088   6.744  71.576  1.00  0.00    -0.251 A  
HETATM    5  C   UNL     1     -11.514   8.048  71.876  1.00  0.00    -0.291 A  
HETATM    6  F   UNL     1     -12.042   8.347  73.073  1.00  0.00    -0.423 F  
HETATM    7  C   UNL     1     -11.436   9.084  70.947  1.00  0.00    -0.347 A  
HETATM    8  C   UNL     1     -10.961   8.849  69.653  1.00  0.00    -0.132 A  
HETATM    9  C   UNL     1     -10.497   7.564  69.345  1.00  0.00    -0.222 A  
HETATM   10  C   UNL     1     -10.583   6.526  70.286  1.00  0.00    -0.278 A  
BRANCH   8  11
HETATM   11  C   UNL     1     -11.026   9.877  68.603  1.00  0.00    -0.179 A  
HETATM   12  N   UNL     1     -11.697  11.009  68.679  1.00  0.00    -0.412 NA 
HETATM   13  C   UNL     1     -11.420  11.802  67.571  1.00  0.00    -0.303 A  
HETATM   14  C   UNL     1     -11.945  13.088  67.310  1.00  0.00    -0.379 A  
HETATM   15  C   UNL     1     -11.537  13.787  66.166  1.00  0.00    -0.369 A  
HETATM   16  C   UNL     1     -10.624  13.214  65.293  1.00  0.00    -0.313 A  
HETATM   17  O   UNL     1     -10.196  13.872  64.174  1.00  0.00    -0.671 OA 
HETATM   18  C   UNL     1     -10.104  11.943  65.511  1.00  0.00    -0.277 A  
HETATM   19  C   UNL     1     -10.520  11.256  66.660  1.00  0.00    -0.247 A  
HETATM   20  H   UNL     1      -9.570  13.478  63.575  1.00  0.00     0.000 HD 
HETATM   21  S   UNL     1     -10.052   9.699  67.192  1.00  0.00    -0.234 SA 
ENDBRANCH   8  11
ENDBRANCH   2   4
TORSDOF 2
ENDMDL
MODEL       60
REMARK 921   NORMALIZED FREE ENERGY PREDICTED BY IDOCK:   -5.19 KCAL/MOL
REMARK 922        TOTAL FREE ENERGY PREDICTED BY IDOCK:   -6.00 KCAL/MOL
REMARK 923 INTER-LIGAND FREE ENERGY PREDICTED BY IDOCK:   -5.77 KCAL/MOL
REMARK 924 INTRA-LIGAND FREE ENERGY PREDICTED BY IDOCK:   -0.23 KCAL/MOL
REMARK 927      BINDING AFFINITY PREDICTED BY RF-SCORE:    0.00 PKD
ROOT
HETATM    1  C   UNL     1      -9.035   5.734  65.807  1.00  0.00    -0.135 C  
HETATM    2  N   UNL     1      -8.484   6.880  66.513  1.00  0.00    -0.120 NA 
HETATM    3  H   UNL     1      -7.475   7.005  66.595  1.00  0.00     0.000 HD 
ENDROOT
BRANCH   2   4
HETATM    4  C   UNL     1      -9.371   7.809  67.079  1.00  0.00    -0.157 A  
HETATM    5  C   UNL     1      -9.801   8.988  66.450  1.00  0.00    -0.286 A  
HETATM    6  F   UNL     1      -9.470   9.257  65.178  1.00  0.00    -0.299 F  
HETATM    7  C   UNL     1     -10.568   9.944  67.116  1.00  0.00    -0.295 A  
HETATM    8  C   UNL     1     -10.904   9.779  68.463  1.00  0.00    -0.227 A  
HETATM    9  C   UNL     1     -10.515   8.593  69.098  1.00  0.00    -0.223 A  
HETATM   10  C   UNL     1      -9.741   7.638  68.421  1.00  0.00    -0.164 A  
BRANCH   8  11
HETATM   11  C   UNL     1     -11.562  10.844  69.236  1.00  0.00    -0.318 A  
HETATM   12  N   UNL     1     -12.287  10.667  70.322  1.00  0.00    -0.321 NA 
HETATM   13  C   UNL     1     -12.633  11.897  70.869  1.00  0.00    -0.266 A  
HETATM   14  C   UNL     1     -13.395  12.107  72.040  1.00  0.00    -0.470 A  
HETATM   15  C   UNL     1     -13.627  13.413  72.495  1.00  0.00    -0.659 A  
HETATM   16  C   UNL     1     -13.112  14.492  71.793  1.00  0.00    -0.346 A  
HETATM   17  O   UNL     1     -13.309  15.778  72.213  1.00  0.00    -0.453 OA 
HETATM   18  C   UNL     1     -12.374  14.320  70.626  1.00  0.00    -0.431 A  
HETATM   19  C   UNL     1     -12.149  13.009  70.185  1.00  0.00    -0.307 A  
HETATM   20  H   UNL     1     -12.956  16.518  71.732  1.00  0.00     0.000 HD 
HETATM   21  S   UNL     1     -11.281  12.489  68.805  1.00  0.00    -0.291 SA 
ENDBRANCH   8  11
ENDBRANCH   2   4
TORSDOF 2
ENDMDL
MODEL       61
REMARK 921   NORMALIZED FREE ENERGY PREDICTED BY IDOCK:   -5.19 KCAL/MOL
REMARK 922        TOTAL FREE ENERGY PREDICTED BY IDOCK:   -6.00 KCAL/MOL
REMARK 923 INTER-LIGAND FREE ENERGY PREDICTED BY IDOCK:   -5.99 KCAL/MOL
REMARK 924 INTRA-LIGAND FREE ENERGY PREDICTED BY IDOCK:   -0.01 KCAL/MOL
REMARK 927      BINDING AFFINITY PREDICTED BY RF-SCORE:    0.00 PKD
ROOT
HETATM    1  C   UNL     1     -14.285  15.624  72.337  1.00  0.00    -0.434 C  
HETATM    2  N   UNL     1     -12.986  15.494  71.695  1.00  0.00    -0.435 NA 
HETATM    3  H   UNL     1     -12.302  16.249  71.745  1.00  0.00     0.000 HD 
ENDROOT
BRANCH   2   4
HETATM    4  C   UNL     1     -12.694  14.306  71.007  1.00  0.00    -0.359 A  
HETATM    5  C   UNL     1     -12.931  13.015  71.504  1.00  0.00    -0.305 A  
HETATM    6  F   UNL     1     -13.578  12.826  72.664  1.00  0.00    -0.606 F  
HETATM    7  C   UNL     1     -12.488  11.872  70.838  1.00  0.00    -0.397 A  
HETATM    8  C   UNL     1     -11.747  11.976  69.657  1.00  0.00    -0.405 A  
HETATM    9  C   UNL     1     -11.531  13.254  69.124  1.00  0.00    -0.357 A  
HETATM   10  C   UNL     1     -11.977  14.398  69.804  1.00  0.00    -0.385 A  
BRANCH   8  11
HETATM   11  C   UNL     1     -11.123  10.803  69.026  1.00  0.00    -0.253 A  
HETATM   12  N   UNL     1     -10.776   9.693  69.646  1.00  0.00    -0.229 NA 
HETATM   13  C   UNL     1     -10.350   8.745  68.723  1.00  0.00    -0.213 A  
HETATM   14  C   UNL     1      -9.911   7.433  69.012  1.00  0.00    -0.168 A  
HETATM   15  C   UNL     1      -9.552   6.573  67.965  1.00  0.00    -0.119 A  
HETATM   16  C   UNL     1      -9.624   7.013  66.652  1.00  0.00    -0.167 A  
HETATM   17  O   UNL     1      -9.292   6.197  65.606  1.00  0.00    -0.367 OA 
HETATM   18  C   UNL     1     -10.033   8.304  66.335  1.00  0.00    -0.264 A  
HETATM   19  C   UNL     1     -10.390   9.152  67.392  1.00  0.00    -0.264 A  
HETATM   20  H   UNL     1      -9.341   6.499  64.705  1.00  0.00     0.000 HD 
HETATM   21  S   UNL     1     -10.934  10.772  67.313  1.00  0.00    -0.265 SA 
ENDBRANCH   8  11
ENDBRANCH   2   4
TORSDOF 2
ENDMDL
MODEL       62
REMARK 921   NORMALIZED FREE ENERGY PREDICTED BY IDOCK:   -5.15 KCAL/MOL
REMARK 922        TOTAL FREE ENERGY PREDICTED BY IDOCK:   -5.96 KCAL/MOL
REMARK 923 INTER-LIGAND FREE ENERGY PREDICTED BY IDOCK:   -5.74 KCAL/MOL
REMARK 924 INTRA-LIGAND FREE ENERGY PREDICTED BY IDOCK:   -0.21 KCAL/MOL
REMARK 927      BINDING AFFINITY PREDICTED BY RF-SCORE:    0.00 PKD
ROOT
HETATM    1  C   UNL     1      -9.886  11.549  63.098  1.00  0.00    -0.390 C  
HETATM    2  N   UNL     1     -10.158  12.165  64.387  1.00  0.00    -0.389 NA 
HETATM    3  H   UNL     1     -10.164  13.180  64.489  1.00  0.00     0.000 HD 
ENDROOT
BRANCH   2   4
HETATM    4  C   UNL     1     -10.412  11.332  65.488  1.00  0.00    -0.265 A  
HETATM    5  C   UNL     1     -11.060  11.739  66.665  1.00  0.00    -0.310 A  
HETATM    6  F   UNL     1     -11.597  12.964  66.774  1.00  0.00    -0.318 F  
HETATM    7  C   UNL     1     -11.156  10.909  67.782  1.00  0.00    -0.371 A  
HETATM    8  C   UNL     1     -10.567   9.641  67.782  1.00  0.00    -0.320 A  
HETATM    9  C   UNL     1      -9.948   9.201  66.605  1.00  0.00    -0.343 A  
HETATM   10  C   UNL     1      -9.853  10.046  65.487  1.00  0.00    -0.373 A  
BRANCH   8  11
HETATM   11  C   UNL     1     -10.505   8.814  68.997  1.00  0.00    -0.203 A  
HETATM   12  N   UNL     1     -10.508   9.268  70.234  1.00  0.00    -0.211 NA 
HETATM   13  C   UNL     1     -10.584   8.208  71.130  1.00  0.00    -0.204 A  
HETATM   14  C   UNL     1     -10.620   8.304  72.540  1.00  0.00    -0.407 A  
HETATM   15  C   UNL     1     -10.743   7.142  73.313  1.00  0.00    -0.403 A  
HETATM   16  C   UNL     1     -10.822   5.903  72.695  1.00  0.00    -0.251 A  
HETATM   17  O   UNL     1     -10.953   4.750  73.418  1.00  0.00    -0.265 OA 
HETATM   18  C   UNL     1     -10.769   5.773  71.312  1.00  0.00    -0.323 A  
HETATM   19  C   UNL     1     -10.649   6.943  70.551  1.00  0.00    -0.220 A  
HETATM   20  H   UNL     1     -11.008   3.901  72.994  1.00  0.00     0.000 HD 
HETATM   21  S   UNL     1     -10.569   7.098  68.849  1.00  0.00    -0.178 SA 
ENDBRANCH   8  11
ENDBRANCH   2   4
TORSDOF 2
ENDMDL
MODEL       63
REMARK 921   NORMALIZED FREE ENERGY PREDICTED BY IDOCK:   -5.15 KCAL/MOL
REMARK 922        TOTAL FREE ENERGY PREDICTED BY IDOCK:   -5.95 KCAL/MOL
REMARK 923 INTER-LIGAND FREE ENERGY PREDICTED BY IDOCK:   -5.73 KCAL/MOL
REMARK 924 INTRA-LIGAND FREE ENERGY PREDICTED BY IDOCK:   -0.22 KCAL/MOL
REMARK 927      BINDING AFFINITY PREDICTED BY RF-SCORE:    0.00 PKD
ROOT
HETATM    1  C   UNL     1      -6.519  20.801  66.092  1.00  0.00    -0.234 C  
HETATM    2  N   UNL     1      -7.728  20.181  65.575  1.00  0.00    -0.483 NA 
HETATM    3  H   UNL     1      -8.243  20.607  64.804  1.00  0.00     0.000 HD 
ENDROOT
BRANCH   2   4
HETATM    4  C   UNL     1      -8.170  18.983  66.158  1.00  0.00    -0.231 A  
HETATM    5  C   UNL     1      -7.573  17.728  65.957  1.00  0.00    -0.220 A  
HETATM    6  F   UNL     1      -6.434  17.606  65.260  1.00  0.00    -0.149 F  
HETATM    7  C   UNL     1      -8.141  16.552  66.446  1.00  0.00    -0.362 A  
HETATM    8  C   UNL     1      -9.362  16.578  67.127  1.00  0.00    -0.242 A  
HETATM    9  C   UNL     1      -9.956  17.823  67.370  1.00  0.00    -0.323 A  
HETATM   10  C   UNL     1      -9.379  19.002  66.870  1.00  0.00    -0.346 A  
BRANCH   8  11
HETATM   11  C   UNL     1     -10.068  15.343  67.504  1.00  0.00    -0.233 A  
HETATM   12  N   UNL     1     -10.017  14.201  66.848  1.00  0.00    -0.255 NA 
HETATM   13  C   UNL     1     -10.685  13.212  67.561  1.00  0.00    -0.238 A  
HETATM   14  C   UNL     1     -10.832  11.860  67.179  1.00  0.00    -0.301 A  
HETATM   15  C   UNL     1     -11.499  10.966  68.028  1.00  0.00    -0.356 A  
HETATM   16  C   UNL     1     -12.015  11.412  69.236  1.00  0.00    -0.332 A  
HETATM   17  O   UNL     1     -12.662  10.565  70.093  1.00  0.00    -0.488 OA 
HETATM   18  C   UNL     1     -11.905  12.740  69.631  1.00  0.00    -0.384 A  
HETATM   19  C   UNL     1     -11.234  13.622  68.773  1.00  0.00    -0.279 A  
HETATM   20  H   UNL     1     -13.016  10.871  70.921  1.00  0.00     0.000 HD 
HETATM   21  S   UNL     1     -10.937  15.293  68.991  1.00  0.00    -0.271 SA 
ENDBRANCH   8  11
ENDBRANCH   2   4
TORSDOF 2
ENDMDL
MODEL       64
REMARK 921   NORMALIZED FREE ENERGY PREDICTED BY IDOCK:   -5.13 KCAL/MOL
REMARK 922        TOTAL FREE ENERGY PREDICTED BY IDOCK:   -5.94 KCAL/MOL
REMARK 923 INTER-LIGAND FREE ENERGY PREDICTED BY IDOCK:   -5.72 KCAL/MOL
REMARK 924 INTRA-LIGAND FREE ENERGY PREDICTED BY IDOCK:   -0.22 KCAL/MOL
REMARK 927      BINDING AFFINITY PREDICTED BY RF-SCORE:    0.00 PKD
ROOT
HETATM    1  C   UNL     1     -10.160   6.249  74.545  1.00  0.00    -0.336 C  
HETATM    2  N   UNL     1     -10.589   5.799  73.231  1.00  0.00    -0.238 NA 
HETATM    3  H   UNL     1     -10.695   4.805  73.029  1.00  0.00     0.000 HD 
ENDROOT
BRANCH   2   4
HETATM    4  C   UNL     1     -10.857   6.764  72.246  1.00  0.00    -0.231 A  
HETATM    5  C   UNL     1     -10.904   6.506  70.867  1.00  0.00    -0.253 A  
HETATM    6  F   UNL     1     -10.805   5.256  70.391  1.00  0.00    -0.338 F  
HETATM    7  C   UNL     1     -11.031   7.529  69.927  1.00  0.00    -0.223 A  
HETATM    8  C   UNL     1     -11.075   8.867  70.330  1.00  0.00    -0.251 A  
HETATM    9  C   UNL     1     -11.066   9.143  71.703  1.00  0.00    -0.445 A  
HETATM   10  C   UNL     1     -10.934   8.108  72.641  1.00  0.00    -0.440 A  
BRANCH   8  11
HETATM   11  C   UNL     1     -11.036   9.972  69.358  1.00  0.00    -0.223 A  
HETATM   12  N   UNL     1     -11.388  11.218  69.601  1.00  0.00    -0.278 NA 
HETATM   13  C   UNL     1     -11.090  12.019  68.505  1.00  0.00    -0.244 A  
HETATM   14  C   UNL     1     -11.313  13.411  68.400  1.00  0.00    -0.329 A  
HETATM   15  C   UNL     1     -10.917  14.093  67.241  1.00  0.00    -0.304 A  
HETATM   16  C   UNL     1     -10.313  13.401  66.202  1.00  0.00    -0.295 A  
HETATM   17  O   UNL     1      -9.905  14.036  65.062  1.00  0.00    -0.588 OA 
HETATM   18  C   UNL     1     -10.098  12.029  66.266  1.00  0.00    -0.247 A  
HETATM   19  C   UNL     1     -10.497  11.360  67.431  1.00  0.00    -0.205 A  
HETATM   20  H   UNL     1      -9.491  13.562  64.350  1.00  0.00     0.000 HD 
HETATM   21  S   UNL     1     -10.355   9.695  67.799  1.00  0.00    -0.251 SA 
ENDBRANCH   8  11
ENDBRANCH   2   4
TORSDOF 2
ENDMDL
MODEL       65
REMARK 921   NORMALIZED FREE ENERGY PREDICTED BY IDOCK:   -5.13 KCAL/MOL
REMARK 922        TOTAL FREE ENERGY PREDICTED BY IDOCK:   -5.93 KCAL/MOL
REMARK 923 INTER-LIGAND FREE ENERGY PREDICTED BY IDOCK:   -5.70 KCAL/MOL
REMARK 924 INTRA-LIGAND FREE ENERGY PREDICTED BY IDOCK:   -0.23 KCAL/MOL
REMARK 927      BINDING AFFINITY PREDICTED BY RF-SCORE:    0.00 PKD
ROOT
HETATM    1  C   UNL     1     -10.428   8.784  68.121  1.00  0.00    -0.191 C  
HETATM    2  N   UNL     1     -11.596   9.610  67.859  1.00  0.00    -0.175 NA 
HETATM    3  H   UNL     1     -12.532   9.204  67.861  1.00  0.00     0.000 HD 
ENDROOT
BRANCH   2   4
HETATM    4  C   UNL     1     -11.408  10.977  67.605  1.00  0.00    -0.281 A  
HETATM    5  C   UNL     1     -10.848  11.502  66.429  1.00  0.00    -0.285 A  
HETATM    6  F   UNL     1     -10.550  10.709  65.389  1.00  0.00    -0.332 F  
HETATM    7  C   UNL     1     -10.553  12.858  66.292  1.00  0.00    -0.281 A  
HETATM    8  C   UNL     1     -10.768  13.747  67.349  1.00  0.00    -0.279 A  
HETATM    9  C   UNL     1     -11.360  13.250  68.518  1.00  0.00    -0.319 A  
HETATM   10  C   UNL     1     -11.650  11.883  68.648  1.00  0.00    -0.366 A  
BRANCH   8  11
HETATM   11  C   UNL     1     -10.310  15.144  67.295  1.00  0.00    -0.261 A  
HETATM   12  N   UNL     1      -9.285  15.588  66.595  1.00  0.00    -0.248 NA 
HETATM   13  C   UNL     1      -9.228  16.976  66.663  1.00  0.00    -0.256 A  
HETATM   14  C   UNL     1      -8.274  17.805  66.032  1.00  0.00    -0.109 A  
HETATM   15  C   UNL     1      -8.372  19.198  66.158  1.00  0.00    -0.254 A  
HETATM   16  C   UNL     1      -9.399  19.755  66.903  1.00  0.00    -0.366 A  
HETATM   17  O   UNL     1      -9.531  21.110  67.038  1.00  0.00    -0.668 OA 
HETATM   18  C   UNL     1     -10.342  18.966  67.553  1.00  0.00    -0.496 A  
HETATM   19  C   UNL     1     -10.233  17.576  67.417  1.00  0.00    -0.337 A  
HETATM   20  H   UNL     1     -10.236  21.492  67.549  1.00  0.00     0.000 HD 
HETATM   21  S   UNL     1     -11.238  16.363  68.084  1.00  0.00    -0.193 SA 
ENDBRANCH   8  11
ENDBRANCH   2   4
TORSDOF 2
ENDMDL
MODEL       66
REMARK 921   NORMALIZED FREE ENERGY PREDICTED BY IDOCK:   -5.12 KCAL/MOL
REMARK 922        TOTAL FREE ENERGY PREDICTED BY IDOCK:   -5.92 KCAL/MOL
REMARK 923 INTER-LIGAND FREE ENERGY PREDICTED BY IDOCK:   -5.68 KCAL/MOL
REMARK 924 INTRA-LIGAND FREE ENERGY PREDICTED BY IDOCK:   -0.24 KCAL/MOL
REMARK 927      BINDING AFFINITY PREDICTED BY RF-SCORE:    0.00 PKD
ROOT
HETATM    1  C   UNL     1     -10.174   4.697  66.611  1.00  0.00    -0.213 C  
HETATM    2  N   UNL     1      -9.297   5.273  67.617  1.00  0.00    -0.115 NA 
HETATM    3  H   UNL     1      -8.399   4.841  67.835  1.00  0.00     0.000 HD 
ENDROOT
BRANCH   2   4
HETATM    4  C   UNL     1      -9.713   6.438  68.282  1.00  0.00    -0.127 A  
HETATM    5  C   UNL     1     -10.515   6.457  69.433  1.00  0.00    -0.228 A  
HETATM    6  F   UNL     1     -10.856   5.322  70.061  1.00  0.00    -0.371 F  
HETATM    7  C   UNL     1     -11.017   7.645  69.966  1.00  0.00    -0.237 A  
HETATM    8  C   UNL     1     -10.767   8.870  69.339  1.00  0.00    -0.192 A  
HETATM    9  C   UNL     1      -9.939   8.876  68.210  1.00  0.00    -0.201 A  
HETATM   10  C   UNL     1      -9.443   7.676  67.679  1.00  0.00    -0.165 A  
BRANCH   8  11
HETATM   11  C   UNL     1     -11.420  10.113  69.778  1.00  0.00    -0.228 A  
HETATM   12  N   UNL     1     -12.195  10.240  70.837  1.00  0.00    -0.334 NA 
HETATM   13  C   UNL     1     -12.521  11.577  71.031  1.00  0.00    -0.356 A  
HETATM   14  C   UNL     1     -13.325  12.101  72.069  1.00  0.00    -0.470 A  
HETATM   15  C   UNL     1     -13.530  13.484  72.159  1.00  0.00    -0.631 A  
HETATM   16  C   UNL     1     -12.949  14.333  71.229  1.00  0.00    -0.352 A  
HETATM   17  O   UNL     1     -13.119  15.688  71.294  1.00  0.00    -0.484 OA 
HETATM   18  C   UNL     1     -12.170  13.848  70.184  1.00  0.00    -0.425 A  
HETATM   19  C   UNL     1     -11.972  12.463  70.107  1.00  0.00    -0.298 A  
HETATM   20  H   UNL     1     -12.721  16.270  70.656  1.00  0.00     0.000 HD 
HETATM   21  S   UNL     1     -11.066  11.584  68.953  1.00  0.00    -0.253 SA 
ENDBRANCH   8  11
ENDBRANCH   2   4
TORSDOF 2
ENDMDL
MODEL       67
REMARK 921   NORMALIZED FREE ENERGY PREDICTED BY IDOCK:   -5.10 KCAL/MOL
REMARK 922        TOTAL FREE ENERGY PREDICTED BY IDOCK:   -5.90 KCAL/MOL
REMARK 923 INTER-LIGAND FREE ENERGY PREDICTED BY IDOCK:   -5.67 KCAL/MOL
REMARK 924 INTRA-LIGAND FREE ENERGY PREDICTED BY IDOCK:   -0.23 KCAL/MOL
REMARK 927      BINDING AFFINITY PREDICTED BY RF-SCORE:    0.00 PKD
ROOT
HETATM    1  C   UNL     1     -10.625  18.891  66.606  1.00  0.00    -0.395 C  
HETATM    2  N   UNL     1      -9.619  18.125  65.887  1.00  0.00    -0.507 NA 
HETATM    3  H   UNL     1      -8.881  18.597  65.364  1.00  0.00     0.000 HD 
ENDROOT
BRANCH   2   4
HETATM    4  C   UNL     1      -9.686  16.724  65.929  1.00  0.00    -0.217 A  
HETATM    5  C   UNL     1     -10.603  15.945  65.207  1.00  0.00    -0.419 A  
HETATM    6  F   UNL     1     -11.432  16.502  64.311  1.00  0.00    -0.548 F  
HETATM    7  C   UNL     1     -10.717  14.568  65.398  1.00  0.00    -0.372 A  
HETATM    8  C   UNL     1      -9.940  13.914  66.359  1.00  0.00    -0.303 A  
HETATM    9  C   UNL     1      -8.993  14.666  67.065  1.00  0.00    -0.258 A  
HETATM   10  C   UNL     1      -8.888  16.052  66.868  1.00  0.00    -0.258 A  
BRANCH   8  11
HETATM   11  C   UNL     1     -10.158  12.500  66.702  1.00  0.00    -0.230 A  
HETATM   12  N   UNL     1      -9.830  11.469  65.948  1.00  0.00    -0.223 NA 
HETATM   13  C   UNL     1     -10.047  10.284  66.642  1.00  0.00    -0.223 A  
HETATM   14  C   UNL     1      -9.802   8.977  66.163  1.00  0.00    -0.349 A  
HETATM   15  C   UNL     1     -10.031   7.876  67.000  1.00  0.00    -0.322 A  
HETATM   16  C   UNL     1     -10.501   8.072  68.290  1.00  0.00    -0.161 A  
HETATM   17  O   UNL     1     -10.725   7.021  69.136  1.00  0.00    -0.219 OA 
HETATM   18  C   UNL     1     -10.772   9.343  68.784  1.00  0.00    -0.200 A  
HETATM   19  C   UNL     1     -10.536  10.435  67.937  1.00  0.00    -0.232 A  
HETATM   20  H   UNL     1     -11.048   7.155  70.020  1.00  0.00     0.000 HD 
HETATM   21  S   UNL     1     -10.764  12.098  68.264  1.00  0.00    -0.233 SA 
ENDBRANCH   8  11
ENDBRANCH   2   4
TORSDOF 2
ENDMDL
MODEL       68
REMARK 921   NORMALIZED FREE ENERGY PREDICTED BY IDOCK:   -5.09 KCAL/MOL
REMARK 922        TOTAL FREE ENERGY PREDICTED BY IDOCK:   -5.89 KCAL/MOL
REMARK 923 INTER-LIGAND FREE ENERGY PREDICTED BY IDOCK:   -5.69 KCAL/MOL
REMARK 924 INTRA-LIGAND FREE ENERGY PREDICTED BY IDOCK:   -0.20 KCAL/MOL
REMARK 927      BINDING AFFINITY PREDICTED BY RF-SCORE:    0.00 PKD
ROOT
HETATM    1  C   UNL     1     -13.428  15.339  72.149  1.00  0.00    -0.446 C  
HETATM    2  N   UNL     1     -13.074  15.881  70.847  1.00  0.00    -0.615 NA 
HETATM    3  H   UNL     1     -13.427  16.790  70.548  1.00  0.00     0.000 HD 
ENDROOT
BRANCH   2   4
HETATM    4  C   UNL     1     -12.235  15.127  70.011  1.00  0.00    -0.338 A  
HETATM    5  C   UNL     1     -11.332  15.671  69.085  1.00  0.00    -0.338 A  
HETATM    6  F   UNL     1     -11.122  16.994  69.014  1.00  0.00    -0.281 F  
HETATM    7  C   UNL     1     -10.630  14.874  68.181  1.00  0.00    -0.244 A  
HETATM    8  C   UNL     1     -10.835  13.492  68.138  1.00  0.00    -0.271 A  
HETATM    9  C   UNL     1     -11.705  12.925  69.078  1.00  0.00    -0.375 A  
HETATM   10  C   UNL     1     -12.410  13.735  69.981  1.00  0.00    -0.364 A  
BRANCH   8  11
HETATM   11  C   UNL     1     -10.241  12.651  67.087  1.00  0.00    -0.225 A  
HETATM   12  N   UNL     1      -9.168  11.896  67.224  1.00  0.00    -0.175 NA 
HETATM   13  C   UNL     1      -8.975  11.131  66.079  1.00  0.00    -0.200 A  
HETATM   14  C   UNL     1      -7.936  10.198  65.862  1.00  0.00    -0.134 A  
HETATM   15  C   UNL     1      -7.898   9.466  64.667  1.00  0.00    -0.120 A  
HETATM   16  C   UNL     1      -8.874   9.664  63.702  1.00  0.00    -0.232 A  
HETATM   17  O   UNL     1      -8.872   8.960  62.530  1.00  0.00    -0.369 OA 
HETATM   18  C   UNL     1      -9.897  10.589  63.876  1.00  0.00    -0.373 A  
HETATM   19  C   UNL     1      -9.925  11.311  65.077  1.00  0.00    -0.274 A  
HETATM   20  H   UNL     1      -9.541   9.095  61.868  1.00  0.00     0.000 HD 
HETATM   21  S   UNL     1     -11.052  12.498  65.574  1.00  0.00    -0.312 SA 
ENDBRANCH   8  11
ENDBRANCH   2   4
TORSDOF 2
ENDMDL
MODEL       69
REMARK 921   NORMALIZED FREE ENERGY PREDICTED BY IDOCK:   -5.08 KCAL/MOL
REMARK 922        TOTAL FREE ENERGY PREDICTED BY IDOCK:   -5.88 KCAL/MOL
REMARK 923 INTER-LIGAND FREE ENERGY PREDICTED BY IDOCK:   -5.68 KCAL/MOL
REMARK 924 INTRA-LIGAND FREE ENERGY PREDICTED BY IDOCK:   -0.21 KCAL/MOL
REMARK 927      BINDING AFFINITY PREDICTED BY RF-SCORE:    0.00 PKD
ROOT
HETATM    1  C   UNL     1     -10.469   6.886  73.689  1.00  0.00    -0.369 C  
HETATM    2  N   UNL     1     -10.304   6.482  72.302  1.00  0.00    -0.189 NA 
HETATM    3  H   UNL     1     -10.025   5.530  72.067  1.00  0.00     0.000 HD 
ENDROOT
BRANCH   2   4
HETATM    4  C   UNL     1     -10.539   7.431  71.294  1.00  0.00    -0.216 A  
HETATM    5  C   UNL     1     -10.253   7.238  69.933  1.00  0.00    -0.205 A  
HETATM    6  F   UNL     1      -9.826   6.052  69.475  1.00  0.00    -0.159 F  
HETATM    7  C   UNL     1     -10.372   8.267  69.000  1.00  0.00    -0.233 A  
HETATM    8  C   UNL     1     -10.746   9.554  69.399  1.00  0.00    -0.244 A  
HETATM    9  C   UNL     1     -11.071   9.758  70.745  1.00  0.00    -0.415 A  
HETATM   10  C   UNL     1     -10.944   8.718  71.679  1.00  0.00    -0.391 A  
BRANCH   8  11
HETATM   11  C   UNL     1     -10.715  10.695  68.469  1.00  0.00    -0.217 A  
HETATM   12  N   UNL     1     -11.761  11.213  67.857  1.00  0.00    -0.593 NA 
HETATM   13  C   UNL     1     -11.389  12.364  67.171  1.00  0.00    -0.329 A  
HETATM   14  C   UNL     1     -12.240  13.195  66.409  1.00  0.00    -0.396 A  
HETATM   15  C   UNL     1     -11.726  14.352  65.807  1.00  0.00    -0.362 A  
HETATM   16  C   UNL     1     -10.385  14.673  65.958  1.00  0.00    -0.305 A  
HETATM   17  O   UNL     1      -9.853  15.800  65.394  1.00  0.00    -0.355 OA 
HETATM   18  C   UNL     1      -9.518  13.866  66.685  1.00  0.00    -0.296 A  
HETATM   19  C   UNL     1     -10.046  12.714  67.282  1.00  0.00    -0.214 A  
HETATM   20  H   UNL     1      -8.934  16.020  65.497  1.00  0.00     0.000 HD 
HETATM   21  S   UNL     1      -9.235  11.545  68.233  1.00  0.00    -0.188 SA 
ENDBRANCH   8  11
ENDBRANCH   2   4
TORSDOF 2
ENDMDL
MODEL       70
REMARK 921   NORMALIZED FREE ENERGY PREDICTED BY IDOCK:   -5.06 KCAL/MOL
REMARK 922        TOTAL FREE ENERGY PREDICTED BY IDOCK:   -5.85 KCAL/MOL
REMARK 923 INTER-LIGAND FREE ENERGY PREDICTED BY IDOCK:   -5.63 KCAL/MOL
REMARK 924 INTRA-LIGAND FREE ENERGY PREDICTED BY IDOCK:   -0.22 KCAL/MOL
REMARK 927      BINDING AFFINITY PREDICTED BY RF-SCORE:    0.00 PKD
ROOT
HETATM    1  C   UNL     1     -11.323  13.936  64.412  1.00  0.00    -0.341 C  
HETATM    2  N   UNL     1     -11.802  14.223  65.754  1.00  0.00    -0.365 NA 
HETATM    3  H   UNL     1     -12.151  15.151  65.995  1.00  0.00     0.000 HD 
ENDROOT
BRANCH   2   4
HETATM    4  C   UNL     1     -11.776  13.196  66.711  1.00  0.00    -0.385 A  
HETATM    5  C   UNL     1     -11.964  13.382  68.089  1.00  0.00    -0.321 A  
HETATM    6  F   UNL     1     -12.305  14.580  68.587  1.00  0.00    -0.302 F  
HETATM    7  C   UNL     1     -11.783  12.348  69.007  1.00  0.00    -0.372 A  
HETATM    8  C   UNL     1     -11.364  11.083  68.584  1.00  0.00    -0.346 A  
HETATM    9  C   UNL     1     -11.206  10.866  67.209  1.00  0.00    -0.307 A  
HETATM   10  C   UNL     1     -11.386  11.915  66.293  1.00  0.00    -0.394 A  
BRANCH   8  11
HETATM   11  C   UNL     1     -11.002  10.025  69.540  1.00  0.00    -0.253 A  
HETATM   12  N   UNL     1     -11.520   9.868  70.742  1.00  0.00    -0.326 NA 
HETATM   13  C   UNL     1     -11.053   8.689  71.311  1.00  0.00    -0.272 A  
HETATM   14  C   UNL     1     -11.396   8.181  72.584  1.00  0.00    -0.450 A  
HETATM   15  C   UNL     1     -10.875   6.950  73.006  1.00  0.00    -0.328 A  
HETATM   16  C   UNL     1     -10.023   6.237  72.175  1.00  0.00    -0.166 A  
HETATM   17  O   UNL     1      -9.506   5.028  72.550  1.00  0.00    -0.140 OA 
HETATM   18  C   UNL     1      -9.651   6.719  70.925  1.00  0.00    -0.173 A  
HETATM   19  C   UNL     1     -10.180   7.950  70.516  1.00  0.00    -0.198 A  
HETATM   20  H   UNL     1      -8.921   4.540  71.981  1.00  0.00     0.000 HD 
HETATM   21  S   UNL     1      -9.914   8.783  69.046  1.00  0.00    -0.197 SA 
ENDBRANCH   8  11
ENDBRANCH   2   4
TORSDOF 2
ENDMDL
MODEL       71
REMARK 921   NORMALIZED FREE ENERGY PREDICTED BY IDOCK:   -5.05 KCAL/MOL
REMARK 922        TOTAL FREE ENERGY PREDICTED BY IDOCK:   -5.85 KCAL/MOL
REMARK 923 INTER-LIGAND FREE ENERGY PREDICTED BY IDOCK:   -5.64 KCAL/MOL
REMARK 924 INTRA-LIGAND FREE ENERGY PREDICTED BY IDOCK:   -0.21 KCAL/MOL
REMARK 927      BINDING AFFINITY PREDICTED BY RF-SCORE:    0.00 PKD
ROOT
HETATM    1  C   UNL     1      -6.269  10.031  63.071  1.00  0.00    -0.130 C  
HETATM    2  N   UNL     1      -7.508  10.768  63.261  1.00  0.00    -0.352 NA 
HETATM    3  H   UNL     1      -7.798  11.481  62.591  1.00  0.00     0.000 HD 
ENDROOT
BRANCH   2   4
HETATM    4  C   UNL     1      -8.298  10.477  64.385  1.00  0.00    -0.097 A  
HETATM    5  C   UNL     1      -9.660  10.792  64.508  1.00  0.00    -0.270 A  
HETATM    6  F   UNL     1     -10.348  11.309  63.479  1.00  0.00    -0.323 F  
HETATM    7  C   UNL     1     -10.356  10.610  65.702  1.00  0.00    -0.285 A  
HETATM    8  C   UNL     1      -9.703  10.139  66.845  1.00  0.00    -0.233 A  
HETATM    9  C   UNL     1      -8.353   9.785  66.734  1.00  0.00    -0.124 A  
HETATM   10  C   UNL     1      -7.659   9.976  65.529  1.00  0.00    -0.136 A  
BRANCH   8  11
HETATM   11  C   UNL     1     -10.367  10.098  68.158  1.00  0.00    -0.185 A  
HETATM   12  N   UNL     1     -11.165  11.028  68.642  1.00  0.00    -0.239 NA 
HETATM   13  C   UNL     1     -11.726  10.598  69.840  1.00  0.00    -0.317 A  
HETATM   14  C   UNL     1     -12.637  11.319  70.643  1.00  0.00    -0.377 A  
HETATM   15  C   UNL     1     -13.152  10.732  71.807  1.00  0.00    -0.573 A  
HETATM   16  C   UNL     1     -12.763   9.451  72.169  1.00  0.00    -0.382 A  
HETATM   17  O   UNL     1     -13.254   8.845  73.291  1.00  0.00    -0.831 OA 
HETATM   18  C   UNL     1     -11.853   8.723  71.410  1.00  0.00    -0.369 A  
HETATM   19  C   UNL     1     -11.347   9.321  70.248  1.00  0.00    -0.203 A  
HETATM   20  H   UNL     1     -12.987   7.967  73.539  1.00  0.00     0.000 HD 
HETATM   21  S   UNL     1     -10.233   8.676  69.122  1.00  0.00    -0.209 SA 
ENDBRANCH   8  11
ENDBRANCH   2   4
TORSDOF 2
ENDMDL
MODEL       72
REMARK 921   NORMALIZED FREE ENERGY PREDICTED BY IDOCK:   -5.04 KCAL/MOL
REMARK 922        TOTAL FREE ENERGY PREDICTED BY IDOCK:   -5.83 KCAL/MOL
REMARK 923 INTER-LIGAND FREE ENERGY PREDICTED BY IDOCK:   -5.61 KCAL/MOL
REMARK 924 INTRA-LIGAND FREE ENERGY PREDICTED BY IDOCK:   -0.22 KCAL/MOL
REMARK 927      BINDING AFFINITY PREDICTED BY RF-SCORE:    0.00 PKD
ROOT
HETATM    1  C   UNL     1     -11.572  15.840  64.211  1.00  0.00    -0.191 C  
HETATM    2  N   UNL     1     -12.306  14.634  63.861  1.00  0.00    -1.060 NA 
HETATM    3  H   UNL     1     -13.091  14.672  63.212  1.00  0.00     0.000 HD 
ENDROOT
BRANCH   2   4
HETATM    4  C   UNL     1     -11.909  13.416  64.437  1.00  0.00    -0.408 A  
HETATM    5  C   UNL     1     -12.010  13.106  65.802  1.00  0.00    -0.423 A  
HETATM    6  F   UNL     1     -12.617  13.940  66.659  1.00  0.00    -0.448 F  
HETATM    7  C   UNL     1     -11.467  11.939  66.338  1.00  0.00    -0.371 A  
HETATM    8  C   UNL     1     -10.759  11.044  65.530  1.00  0.00    -0.218 A  
HETATM    9  C   UNL     1     -10.677  11.316  64.159  1.00  0.00    -0.436 A  
HETATM   10  C   UNL     1     -11.223  12.496  63.629  1.00  0.00    -0.545 A  
BRANCH   8  11
HETATM   11  C   UNL     1     -10.032   9.896  66.095  1.00  0.00    -0.263 A  
HETATM   12  N   UNL     1     -10.413   9.186  67.138  1.00  0.00    -0.265 NA 
HETATM   13  C   UNL     1      -9.568   8.095  67.306  1.00  0.00    -0.163 A  
HETATM   14  C   UNL     1      -9.669   7.105  68.309  1.00  0.00    -0.148 A  
HETATM   15  C   UNL     1      -8.764   6.035  68.323  1.00  0.00    -0.113 A  
HETATM   16  C   UNL     1      -7.772   5.953  67.357  1.00  0.00    -0.097 A  
HETATM   17  O   UNL     1      -6.880   4.917  67.334  1.00  0.00    -0.054 OA 
HETATM   18  C   UNL     1      -7.635   6.921  66.368  1.00  0.00    -0.089 A  
HETATM   19  C   UNL     1      -8.547   7.984  66.365  1.00  0.00    -0.145 A  
HETATM   20  H   UNL     1      -6.200   4.862  66.672  1.00  0.00     0.000 HD 
HETATM   21  S   UNL     1      -8.633   9.305  65.281  1.00  0.00    -0.177 SA 
ENDBRANCH   8  11
ENDBRANCH   2   4
TORSDOF 2
ENDMDL
MODEL       73
REMARK 921   NORMALIZED FREE ENERGY PREDICTED BY IDOCK:   -5.04 KCAL/MOL
REMARK 922        TOTAL FREE ENERGY PREDICTED BY IDOCK:   -5.83 KCAL/MOL
REMARK 923 INTER-LIGAND FREE ENERGY PREDICTED BY IDOCK:   -5.62 KCAL/MOL
REMARK 924 INTRA-LIGAND FREE ENERGY PREDICTED BY IDOCK:   -0.21 KCAL/MOL
REMARK 927      BINDING AFFINITY PREDICTED BY RF-SCORE:    0.00 PKD
ROOT
HETATM    1  C   UNL     1      -9.990   7.819  66.682  1.00  0.00    -0.228 C  
HETATM    2  N   UNL     1     -11.009   8.670  67.277  1.00  0.00    -0.391 NA 
HETATM    3  H   UNL     1     -11.910   8.284  67.559  1.00  0.00     0.000 HD 
ENDROOT
BRANCH   2   4
HETATM    4  C   UNL     1     -10.725  10.033  67.455  1.00  0.00    -0.274 A  
HETATM    5  C   UNL     1     -11.258  10.833  68.477  1.00  0.00    -0.279 A  
HETATM    6  F   UNL     1     -12.011  10.303  69.452  1.00  0.00    -0.258 F  
HETATM    7  C   UNL     1     -11.055  12.212  68.519  1.00  0.00    -0.295 A  
HETATM    8  C   UNL     1     -10.339  12.860  67.508  1.00  0.00    -0.223 A  
HETATM    9  C   UNL     1      -9.768  12.075  66.498  1.00  0.00    -0.230 A  
HETATM   10  C   UNL     1      -9.981  10.688  66.462  1.00  0.00    -0.265 A  
BRANCH   8  11
HETATM   11  C   UNL     1     -10.254  14.327  67.434  1.00  0.00    -0.247 A  
HETATM   12  N   UNL     1     -10.353  15.046  66.334  1.00  0.00    -0.278 NA 
HETATM   13  C   UNL     1     -10.370  16.400  66.650  1.00  0.00    -0.292 A  
HETATM   14  C   UNL     1     -10.477  17.471  65.734  1.00  0.00    -0.212 A  
HETATM   15  C   UNL     1     -10.525  18.789  66.209  1.00  0.00    -0.489 A  
HETATM   16  C   UNL     1     -10.463  19.037  67.573  1.00  0.00    -0.454 A  
HETATM   17  O   UNL     1     -10.519  20.309  68.071  1.00  0.00    -0.310 OA 
HETATM   18  C   UNL     1     -10.338  18.006  68.497  1.00  0.00    -0.359 A  
HETATM   19  C   UNL     1     -10.293  16.694  68.009  1.00  0.00    -0.303 A  
HETATM   20  H   UNL     1     -10.476  20.479  69.005  1.00  0.00     0.000 HD 
HETATM   21  S   UNL     1     -10.152  15.237  68.894  1.00  0.00    -0.234 SA 
ENDBRANCH   8  11
ENDBRANCH   2   4
TORSDOF 2
ENDMDL
MODEL       74
REMARK 921   NORMALIZED FREE ENERGY PREDICTED BY IDOCK:   -5.01 KCAL/MOL
REMARK 922        TOTAL FREE ENERGY PREDICTED BY IDOCK:   -5.80 KCAL/MOL
REMARK 923 INTER-LIGAND FREE ENERGY PREDICTED BY IDOCK:   -5.56 KCAL/MOL
REMARK 924 INTRA-LIGAND FREE ENERGY PREDICTED BY IDOCK:   -0.24 KCAL/MOL
REMARK 927      BINDING AFFINITY PREDICTED BY RF-SCORE:    0.00 PKD
ROOT
HETATM    1  C   UNL     1      -9.195  19.590  66.215  1.00  0.00    -0.365 C  
HETATM    2  N   UNL     1     -10.512  18.984  66.103  1.00  0.00    -0.463 NA 
HETATM    3  H   UNL     1     -11.324  19.546  65.849  1.00  0.00     0.000 HD 
ENDROOT
BRANCH   2   4
HETATM    4  C   UNL     1     -10.641  17.608  66.349  1.00  0.00    -0.208 A  
HETATM    5  C   UNL     1     -10.587  17.015  67.620  1.00  0.00    -0.333 A  
HETATM    6  F   UNL     1     -10.518  17.763  68.732  1.00  0.00    -0.335 F  
HETATM    7  C   UNL     1     -10.576  15.631  67.792  1.00  0.00    -0.281 A  
HETATM    8  C   UNL     1     -10.577  14.775  66.687  1.00  0.00    -0.299 A  
HETATM    9  C   UNL     1     -10.668  15.345  65.411  1.00  0.00    -0.416 A  
HETATM   10  C   UNL     1     -10.674  16.739  65.248  1.00  0.00    -0.183 A  
BRANCH   8  11
HETATM   11  C   UNL     1     -10.395  13.321  66.830  1.00  0.00    -0.255 A  
HETATM   12  N   UNL     1     -10.573  12.632  67.940  1.00  0.00    -0.215 NA 
HETATM   13  C   UNL     1     -10.454  11.272  67.680  1.00  0.00    -0.193 A  
HETATM   14  C   UNL     1     -10.591  10.226  68.619  1.00  0.00    -0.232 A  
HETATM   15  C   UNL     1     -10.486   8.893  68.196  1.00  0.00    -0.254 A  
HETATM   16  C   UNL     1     -10.243   8.607  66.861  1.00  0.00    -0.296 A  
HETATM   17  O   UNL     1     -10.145   7.319  66.412  1.00  0.00    -0.442 OA 
HETATM   18  C   UNL     1     -10.083   9.615  65.916  1.00  0.00    -0.304 A  
HETATM   19  C   UNL     1     -10.192  10.942  66.352  1.00  0.00    -0.238 A  
HETATM   20  H   UNL     1      -9.978   7.124  65.497  1.00  0.00     0.000 HD 
HETATM   21  S   UNL     1     -10.053  12.376  65.431  1.00  0.00    -0.246 SA 
ENDBRANCH   8  11
ENDBRANCH   2   4
TORSDOF 2
ENDMDL
MODEL       75
REMARK 921   NORMALIZED FREE ENERGY PREDICTED BY IDOCK:   -5.00 KCAL/MOL
REMARK 922        TOTAL FREE ENERGY PREDICTED BY IDOCK:   -5.78 KCAL/MOL
REMARK 923 INTER-LIGAND FREE ENERGY PREDICTED BY IDOCK:   -5.56 KCAL/MOL
REMARK 924 INTRA-LIGAND FREE ENERGY PREDICTED BY IDOCK:   -0.22 KCAL/MOL
REMARK 927      BINDING AFFINITY PREDICTED BY RF-SCORE:    0.00 PKD
ROOT
HETATM    1  C   UNL     1      -8.592   4.562  70.349  1.00  0.00    -0.078 C  
HETATM    2  N   UNL     1      -9.683   5.457  70.699  1.00  0.00    -0.171 NA 
HETATM    3  H   UNL     1     -10.343   5.211  71.437  1.00  0.00     0.000 HD 
ENDROOT
BRANCH   2   4
HETATM    4  C   UNL     1      -9.808   6.668  70.000  1.00  0.00    -0.165 A  
HETATM    5  C   UNL     1     -10.724   7.684  70.317  1.00  0.00    -0.239 A  
HETATM    6  F   UNL     1     -11.490   7.608  71.416  1.00  0.00    -0.250 F  
HETATM    7  C   UNL     1     -10.902   8.801  69.502  1.00  0.00    -0.151 A  
HETATM    8  C   UNL     1     -10.195   8.930  68.303  1.00  0.00    -0.239 A  
HETATM    9  C   UNL     1      -9.250   7.947  67.986  1.00  0.00    -0.134 A  
HETATM   10  C   UNL     1      -9.080   6.823  68.811  1.00  0.00    -0.132 A  
BRANCH   8  11
HETATM   11  C   UNL     1     -10.484  10.007  67.343  1.00  0.00    -0.260 A  
HETATM   12  N   UNL     1     -10.205   9.980  66.055  1.00  0.00    -0.237 NA 
HETATM   13  C   UNL     1     -10.745  11.098  65.428  1.00  0.00    -0.192 A  
HETATM   14  C   UNL     1     -10.660  11.407  64.052  1.00  0.00    -0.444 A  
HETATM   15  C   UNL     1     -11.296  12.554  63.557  1.00  0.00    -0.556 A  
HETATM   16  C   UNL     1     -12.000  13.383  64.418  1.00  0.00    -0.411 A  
HETATM   17  O   UNL     1     -12.640  14.504  63.968  1.00  0.00    -0.797 OA 
HETATM   18  C   UNL     1     -12.085  13.117  65.781  1.00  0.00    -0.502 A  
HETATM   19  C   UNL     1     -11.446  11.966  66.261  1.00  0.00    -0.301 A  
HETATM   20  H   UNL     1     -13.122  15.071  64.559  1.00  0.00     0.000 HD 
HETATM   21  S   UNL     1     -11.384  11.380  67.867  1.00  0.00    -0.304 SA 
ENDBRANCH   8  11
ENDBRANCH   2   4
TORSDOF 2
ENDMDL
MODEL       76
REMARK 921   NORMALIZED FREE ENERGY PREDICTED BY IDOCK:   -4.98 KCAL/MOL
REMARK 922        TOTAL FREE ENERGY PREDICTED BY IDOCK:   -5.77 KCAL/MOL
REMARK 923 INTER-LIGAND FREE ENERGY PREDICTED BY IDOCK:   -5.87 KCAL/MOL
REMARK 924 INTRA-LIGAND FREE ENERGY PREDICTED BY IDOCK:    0.10 KCAL/MOL
REMARK 927      BINDING AFFINITY PREDICTED BY RF-SCORE:    0.00 PKD
ROOT
HETATM    1  C   UNL     1     -13.872  15.841  72.366  1.00  0.00    -0.443 C  
HETATM    2  N   UNL     1     -13.673  15.348  71.013  1.00  0.00    -0.763 NA 
HETATM    3  H   UNL     1     -13.851  15.949  70.208  1.00  0.00     0.000 HD 
ENDROOT
BRANCH   2   4
HETATM    4  C   UNL     1     -13.232  14.027  70.838  1.00  0.00    -0.180 A  
HETATM    5  C   UNL     1     -13.516  12.967  71.713  1.00  0.00    -0.280 A  
HETATM    6  F   UNL     1     -14.351  13.128  72.750  1.00  0.00    -0.525 F  
HETATM    7  C   UNL     1     -12.931  11.710  71.566  1.00  0.00    -0.463 A  
HETATM    8  C   UNL     1     -11.998  11.470  70.553  1.00  0.00    -0.439 A  
HETATM    9  C   UNL     1     -11.728  12.503  69.647  1.00  0.00    -0.372 A  
HETATM   10  C   UNL     1     -12.318  13.767  69.805  1.00  0.00    -0.311 A  
BRANCH   8  11
HETATM   11  C   UNL     1     -11.240  10.211  70.477  1.00  0.00    -0.336 A  
HETATM   12  N   UNL     1     -11.308   9.221  71.346  1.00  0.00    -0.335 NA 
HETATM   13  C   UNL     1     -10.570   8.135  70.889  1.00  0.00    -0.209 A  
HETATM   14  C   UNL     1     -10.418   6.893  71.544  1.00  0.00    -0.231 A  
HETATM   15  C   UNL     1      -9.675   5.872  70.935  1.00  0.00    -0.211 A  
HETATM   16  C   UNL     1      -9.089   6.086  69.697  1.00  0.00    -0.135 A  
HETATM   17  O   UNL     1      -8.367   5.109  69.069  1.00  0.00    -0.087 OA 
HETATM   18  C   UNL     1      -9.203   7.304  69.035  1.00  0.00    -0.139 A  
HETATM   19  C   UNL     1      -9.951   8.314  69.655  1.00  0.00    -0.193 A  
HETATM   20  H   UNL     1      -7.965   5.257  68.220  1.00  0.00     0.000 HD 
HETATM   21  S   UNL     1     -10.271   9.896  69.087  1.00  0.00    -0.220 SA 
ENDBRANCH   8  11
ENDBRANCH   2   4
TORSDOF 2
ENDMDL
MODEL       77
REMARK 921   NORMALIZED FREE ENERGY PREDICTED BY IDOCK:   -4.93 KCAL/MOL
REMARK 922        TOTAL FREE ENERGY PREDICTED BY IDOCK:   -5.72 KCAL/MOL
REMARK 923 INTER-LIGAND FREE ENERGY PREDICTED BY IDOCK:   -5.51 KCAL/MOL
REMARK 924 INTRA-LIGAND FREE ENERGY PREDICTED BY IDOCK:   -0.21 KCAL/MOL
REMARK 927      BINDING AFFINITY PREDICTED BY RF-SCORE:    0.00 PKD
ROOT
HETATM    1  C   UNL     1     -10.927   9.421  70.991  1.00  0.00    -0.338 C  
HETATM    2  N   UNL     1     -10.719   9.678  69.576  1.00  0.00    -0.224 NA 
HETATM    3  H   UNL     1     -10.672   8.909  68.908  1.00  0.00     0.000 HD 
ENDROOT
BRANCH   2   4
HETATM    4  C   UNL     1     -10.583  11.008  69.148  1.00  0.00    -0.219 A  
HETATM    5  C   UNL     1      -9.511  11.497  68.385  1.00  0.00    -0.195 A  
HETATM    6  F   UNL     1      -8.570  10.673  67.903  1.00  0.00    -0.119 F  
HETATM    7  C   UNL     1      -9.356  12.856  68.113  1.00  0.00    -0.214 A  
HETATM    8  C   UNL     1     -10.253  13.795  68.631  1.00  0.00    -0.209 A  
HETATM    9  C   UNL     1     -11.350  13.325  69.364  1.00  0.00    -0.280 A  
HETATM   10  C   UNL     1     -11.495  11.956  69.637  1.00  0.00    -0.337 A  
BRANCH   8  11
HETATM   11  C   UNL     1     -10.021  15.243  68.504  1.00  0.00    -0.222 A  
HETATM   12  N   UNL     1      -8.881  15.861  68.744  1.00  0.00    -0.199 NA 
HETATM   13  C   UNL     1      -8.981  17.200  68.385  1.00  0.00    -0.259 A  
HETATM   14  C   UNL     1      -7.961  18.172  68.487  1.00  0.00    -0.312 A  
HETATM   15  C   UNL     1      -8.198  19.480  68.042  1.00  0.00    -0.352 A  
HETATM   16  C   UNL     1      -9.434  19.816  67.509  1.00  0.00    -0.344 A  
HETATM   17  O   UNL     1      -9.697  21.079  67.056  1.00  0.00    -0.671 OA 
HETATM   18  C   UNL     1     -10.465  18.888  67.414  1.00  0.00    -0.520 A  
HETATM   19  C   UNL     1     -10.212  17.584  67.860  1.00  0.00    -0.350 A  
HETATM   20  H   UNL     1     -10.544  21.310  66.691  1.00  0.00     0.000 HD 
HETATM   21  S   UNL     1     -11.271  16.240  67.862  1.00  0.00    -0.140 SA 
ENDBRANCH   8  11
ENDBRANCH   2   4
TORSDOF 2
ENDMDL
MODEL       78
REMARK 921   NORMALIZED FREE ENERGY PREDICTED BY IDOCK:   -4.93 KCAL/MOL
REMARK 922        TOTAL FREE ENERGY PREDICTED BY IDOCK:   -5.71 KCAL/MOL
REMARK 923 INTER-LIGAND FREE ENERGY PREDICTED BY IDOCK:   -5.49 KCAL/MOL
REMARK 924 INTRA-LIGAND FREE ENERGY PREDICTED BY IDOCK:   -0.22 KCAL/MOL
REMARK 927      BINDING AFFINITY PREDICTED BY RF-SCORE:    0.00 PKD
ROOT
HETATM    1  C   UNL     1     -10.148   5.354  71.118  1.00  0.00    -0.212 C  
HETATM    2  N   UNL     1      -9.401   5.489  69.877  1.00  0.00    -0.143 NA 
HETATM    3  H   UNL     1      -8.773   4.748  69.565  1.00  0.00     0.000 HD 
ENDROOT
BRANCH   2   4
HETATM    4  C   UNL     1      -9.564   6.659  69.120  1.00  0.00    -0.135 A  
HETATM    5  C   UNL     1      -9.093   7.927  69.497  1.00  0.00    -0.149 A  
HETATM    6  F   UNL     1      -8.333   8.088  70.590  1.00  0.00    -0.111 F  
HETATM    7  C   UNL     1      -9.409   9.078  68.775  1.00  0.00    -0.140 A  
HETATM    8  C   UNL     1     -10.250   9.013  67.660  1.00  0.00    -0.300 A  
HETATM    9  C   UNL     1     -10.700   7.754  67.246  1.00  0.00    -0.326 A  
HETATM   10  C   UNL     1     -10.380   6.601  67.980  1.00  0.00    -0.226 A  
BRANCH   8  11
HETATM   11  C   UNL     1     -10.737  10.226  66.983  1.00  0.00    -0.216 A  
HETATM   12  N   UNL     1     -11.570  11.109  67.498  1.00  0.00    -0.561 NA 
HETATM   13  C   UNL     1     -11.699  12.196  66.641  1.00  0.00    -0.313 A  
HETATM   14  C   UNL     1     -12.497  13.342  66.859  1.00  0.00    -0.114 A  
HETATM   15  C   UNL     1     -12.491  14.382  65.919  1.00  0.00    -0.319 A  
HETATM   16  C   UNL     1     -11.709  14.280  64.778  1.00  0.00    -0.415 A  
HETATM   17  O   UNL     1     -11.672  15.280  63.846  1.00  0.00    -0.831 OA 
HETATM   18  C   UNL     1     -10.929  13.157  64.524  1.00  0.00    -0.392 A  
HETATM   19  C   UNL     1     -10.943  12.127  65.474  1.00  0.00    -0.301 A  
HETATM   20  H   UNL     1     -11.136  15.210  63.064  1.00  0.00     0.000 HD 
HETATM   21  S   UNL     1     -10.090  10.644  65.442  1.00  0.00    -0.287 SA 
ENDBRANCH   8  11
ENDBRANCH   2   4
TORSDOF 2
ENDMDL
MODEL       79
REMARK 921   NORMALIZED FREE ENERGY PREDICTED BY IDOCK:   -4.89 KCAL/MOL
REMARK 922        TOTAL FREE ENERGY PREDICTED BY IDOCK:   -5.66 KCAL/MOL
REMARK 923 INTER-LIGAND FREE ENERGY PREDICTED BY IDOCK:   -5.46 KCAL/MOL
REMARK 924 INTRA-LIGAND FREE ENERGY PREDICTED BY IDOCK:   -0.21 KCAL/MOL
REMARK 927      BINDING AFFINITY PREDICTED BY RF-SCORE:    0.00 PKD
ROOT
HETATM    1  C   UNL     1      -5.176  20.860  70.546  1.00  0.00    -0.222 C  
HETATM    2  N   UNL     1      -5.277  20.840  69.095  1.00  0.00    -0.302 NA 
HETATM    3  H   UNL     1      -4.857  21.580  68.533  1.00  0.00     0.000 HD 
ENDROOT
BRANCH   2   4
HETATM    4  C   UNL     1      -5.965  19.779  68.485  1.00  0.00    -0.234 A  
HETATM    5  C   UNL     1      -5.979  19.524  67.105  1.00  0.00    -0.178 A  
HETATM    6  F   UNL     1      -5.219  20.236  66.260  1.00  0.00    -0.169 F  
HETATM    7  C   UNL     1      -6.795  18.543  66.542  1.00  0.00    -0.230 A  
HETATM    8  C   UNL     1      -7.670  17.798  67.339  1.00  0.00    -0.214 A  
HETATM    9  C   UNL     1      -7.645  18.011  68.723  1.00  0.00    -0.277 A  
HETATM   10  C   UNL     1      -6.822  19.003  69.280  1.00  0.00    -0.318 A  
BRANCH   8  11
HETATM   11  C   UNL     1      -8.661  16.880  66.756  1.00  0.00    -0.232 A  
HETATM   12  N   UNL     1      -9.686  17.235  66.006  1.00  0.00    -0.497 NA 
HETATM   13  C   UNL     1     -10.327  16.105  65.512  1.00  0.00    -0.367 A  
HETATM   14  C   UNL     1     -11.457  16.088  64.664  1.00  0.00    -0.252 A  
HETATM   15  C   UNL     1     -11.968  14.864  64.210  1.00  0.00    -0.355 A  
HETATM   16  C   UNL     1     -11.367  13.676  64.598  1.00  0.00    -0.366 A  
HETATM   17  O   UNL     1     -11.833  12.465  64.165  1.00  0.00    -0.356 OA 
HETATM   18  C   UNL     1     -10.266  13.658  65.447  1.00  0.00    -0.330 A  
HETATM   19  C   UNL     1      -9.765  14.889  65.891  1.00  0.00    -0.333 A  
HETATM   20  H   UNL     1     -11.421  11.651  64.431  1.00  0.00     0.000 HD 
HETATM   21  S   UNL     1      -8.432  15.180  66.923  1.00  0.00    -0.227 SA 
ENDBRANCH   8  11
ENDBRANCH   2   4
TORSDOF 2
ENDMDL
MODEL       80
REMARK 921   NORMALIZED FREE ENERGY PREDICTED BY IDOCK:   -4.88 KCAL/MOL
REMARK 922        TOTAL FREE ENERGY PREDICTED BY IDOCK:   -5.65 KCAL/MOL
REMARK 923 INTER-LIGAND FREE ENERGY PREDICTED BY IDOCK:   -5.43 KCAL/MOL
REMARK 924 INTRA-LIGAND FREE ENERGY PREDICTED BY IDOCK:   -0.22 KCAL/MOL
REMARK 927      BINDING AFFINITY PREDICTED BY RF-SCORE:    0.00 PKD
ROOT
HETATM    1  C   UNL     1      -5.345  14.055  72.082  1.00  0.00    -0.215 C  
HETATM    2  N   UNL     1      -5.328  15.019  70.994  1.00  0.00    -0.135 NA 
HETATM    3  H   UNL     1      -4.724  15.841  71.035  1.00  0.00     0.000 HD 
ENDROOT
BRANCH   2   4
HETATM    4  C   UNL     1      -6.160  14.795  69.885  1.00  0.00    -0.141 A  
HETATM    5  C   UNL     1      -6.986  15.765  69.297  1.00  0.00    -0.186 A  
HETATM    6  F   UNL     1      -6.949  17.044  69.700  1.00  0.00    -0.233 F  
HETATM    7  C   UNL     1      -7.898  15.449  68.290  1.00  0.00    -0.123 A  
HETATM    8  C   UNL     1      -8.051  14.129  67.855  1.00  0.00    -0.154 A  
HETATM    9  C   UNL     1      -7.210  13.152  68.403  1.00  0.00    -0.107 A  
HETATM   10  C   UNL     1      -6.299  13.479  69.418  1.00  0.00    -0.110 A  
BRANCH   8  11
HETATM   11  C   UNL     1      -9.118  13.739  66.920  1.00  0.00    -0.242 A  
HETATM   12  N   UNL     1      -9.934  14.567  66.299  1.00  0.00    -0.291 NA 
HETATM   13  C   UNL     1     -10.719  13.869  65.388  1.00  0.00    -0.325 A  
HETATM   14  C   UNL     1     -11.700  14.421  64.534  1.00  0.00    -0.430 A  
HETATM   15  C   UNL     1     -12.382  13.592  63.633  1.00  0.00    -0.377 A  
HETATM   16  C   UNL     1     -12.097  12.235  63.587  1.00  0.00    -0.554 A  
HETATM   17  O   UNL     1     -12.736  11.400  62.713  1.00  0.00    -0.927 OA 
HETATM   18  C   UNL     1     -11.152  11.659  64.428  1.00  0.00    -0.382 A  
HETATM   19  C   UNL     1     -10.476  12.499  65.322  1.00  0.00    -0.287 A  
HETATM   20  H   UNL     1     -12.541  10.470  62.682  1.00  0.00     0.000 HD 
HETATM   21  S   UNL     1      -9.268  12.085  66.460  1.00  0.00    -0.209 SA 
ENDBRANCH   8  11
ENDBRANCH   2   4
TORSDOF 2
ENDMDL
MODEL       81
REMARK 921   NORMALIZED FREE ENERGY PREDICTED BY IDOCK:   -4.83 KCAL/MOL
REMARK 922        TOTAL FREE ENERGY PREDICTED BY IDOCK:   -5.60 KCAL/MOL
REMARK 923 INTER-LIGAND FREE ENERGY PREDICTED BY IDOCK:   -5.39 KCAL/MOL
REMARK 924 INTRA-LIGAND FREE ENERGY PREDICTED BY IDOCK:   -0.21 KCAL/MOL
REMARK 927      BINDING AFFINITY PREDICTED BY RF-SCORE:    0.00 PKD
ROOT
HETATM    1  C   UNL     1      -5.848  20.443  71.351  1.00  0.00    -0.227 C  
HETATM    2  N   UNL     1      -5.911  20.343  69.902  1.00  0.00    -0.358 NA 
HETATM    3  H   UNL     1      -5.506  21.068  69.311  1.00  0.00     0.000 HD 
ENDROOT
BRANCH   2   4
HETATM    4  C   UNL     1      -6.543  19.225  69.334  1.00  0.00    -0.312 A  
HETATM    5  C   UNL     1      -7.688  19.280  68.524  1.00  0.00    -0.345 A  
HETATM    6  F   UNL     1      -8.205  20.454  68.133  1.00  0.00    -0.268 F  
HETATM    7  C   UNL     1      -8.355  18.129  68.107  1.00  0.00    -0.285 A  
HETATM    8  C   UNL     1      -7.925  16.864  68.521  1.00  0.00    -0.242 A  
HETATM    9  C   UNL     1      -6.764  16.785  69.300  1.00  0.00    -0.229 A  
HETATM   10  C   UNL     1      -6.101  17.950  69.718  1.00  0.00    -0.209 A  
BRANCH   8  11
HETATM   11  C   UNL     1      -8.705  15.648  68.240  1.00  0.00    -0.174 A  
HETATM   12  N   UNL     1      -8.331  14.666  67.444  1.00  0.00    -0.192 NA 
HETATM   13  C   UNL     1      -9.241  13.617  67.524  1.00  0.00    -0.218 A  
HETATM   14  C   UNL     1      -9.168  12.392  66.824  1.00  0.00    -0.212 A  
HETATM   15  C   UNL     1     -10.141  11.407  67.043  1.00  0.00    -0.237 A  
HETATM   16  C   UNL     1     -11.174  11.641  67.939  1.00  0.00    -0.269 A  
HETATM   17  O   UNL     1     -12.134  10.699  68.185  1.00  0.00    -0.797 OA 
HETATM   18  C   UNL     1     -11.285  12.843  68.629  1.00  0.00    -0.321 A  
HETATM   19  C   UNL     1     -10.303  13.817  68.402  1.00  0.00    -0.247 A  
HETATM   20  H   UNL     1     -12.841  10.859  68.799  1.00  0.00     0.000 HD 
HETATM   21  S   UNL     1     -10.172  15.373  69.102  1.00  0.00    -0.254 SA 
ENDBRANCH   8  11
ENDBRANCH   2   4
TORSDOF 2
ENDMDL
MODEL       82
REMARK 921   NORMALIZED FREE ENERGY PREDICTED BY IDOCK:   -4.73 KCAL/MOL
REMARK 922        TOTAL FREE ENERGY PREDICTED BY IDOCK:   -5.49 KCAL/MOL
REMARK 923 INTER-LIGAND FREE ENERGY PREDICTED BY IDOCK:   -5.28 KCAL/MOL
REMARK 924 INTRA-LIGAND FREE ENERGY PREDICTED BY IDOCK:   -0.21 KCAL/MOL
REMARK 927      BINDING AFFINITY PREDICTED BY RF-SCORE:    0.00 PKD
ROOT
HETATM    1  C   UNL     1     -12.342  13.942  65.430  1.00  0.00    -0.470 C  
HETATM    2  N   UNL     1     -11.184  14.128  66.289  1.00  0.00    -0.322 NA 
HETATM    3  H   UNL     1     -10.578  14.941  66.176  1.00  0.00     0.000 HD 
ENDROOT
BRANCH   2   4
HETATM    4  C   UNL     1     -10.919  13.166  67.276  1.00  0.00    -0.268 A  
HETATM    5  C   UNL     1      -9.663  12.585  67.509  1.00  0.00    -0.196 A  
HETATM    6  F   UNL     1      -8.571  13.007  66.854  1.00  0.00    -0.199 F  
HETATM    7  C   UNL     1      -9.490  11.531  68.405  1.00  0.00    -0.195 A  
HETATM    8  C   UNL     1     -10.583  10.983  69.082  1.00  0.00    -0.253 A  
HETATM    9  C   UNL     1     -11.839  11.572  68.893  1.00  0.00    -0.406 A  
HETATM   10  C   UNL     1     -12.004  12.630  67.985  1.00  0.00    -0.300 A  
BRANCH   8  11
HETATM   11  C   UNL     1     -10.459   9.766  69.901  1.00  0.00    -0.261 A  
HETATM   12  N   UNL     1     -10.703   9.684  71.194  1.00  0.00    -0.331 NA 
HETATM   13  C   UNL     1     -10.624   8.360  71.610  1.00  0.00    -0.258 A  
HETATM   14  C   UNL     1     -10.834   7.882  72.923  1.00  0.00    -0.451 A  
HETATM   15  C   UNL     1     -10.762   6.506  73.181  1.00  0.00    -0.297 A  
HETATM   16  C   UNL     1     -10.480   5.621  72.151  1.00  0.00    -0.216 A  
HETATM   17  O   UNL     1     -10.413   4.272  72.366  1.00  0.00    -0.181 OA 
HETATM   18  C   UNL     1     -10.249   6.062  70.853  1.00  0.00    -0.259 A  
HETATM   19  C   UNL     1     -10.326   7.439  70.609  1.00  0.00    -0.212 A  
HETATM   20  H   UNL     1     -10.220   3.666  71.660  1.00  0.00     0.000 HD 
HETATM   21  S   UNL     1     -10.100   8.268  69.129  1.00  0.00    -0.206 SA 
ENDBRANCH   8  11
ENDBRANCH   2   4
TORSDOF 2
ENDMDL
MODEL       83
REMARK 921   NORMALIZED FREE ENERGY PREDICTED BY IDOCK:   -4.69 KCAL/MOL
REMARK 922        TOTAL FREE ENERGY PREDICTED BY IDOCK:   -5.44 KCAL/MOL
REMARK 923 INTER-LIGAND FREE ENERGY PREDICTED BY IDOCK:   -5.23 KCAL/MOL
REMARK 924 INTRA-LIGAND FREE ENERGY PREDICTED BY IDOCK:   -0.21 KCAL/MOL
REMARK 927      BINDING AFFINITY PREDICTED BY RF-SCORE:    0.00 PKD
ROOT
HETATM    1  C   UNL     1      -9.849   5.763  74.465  1.00  0.00    -0.248 C  
HETATM    2  N   UNL     1     -10.902   6.750  74.291  1.00  0.00    -0.312 NA 
HETATM    3  H   UNL     1     -11.569   6.938  75.040  1.00  0.00     0.000 HD 
ENDROOT
BRANCH   2   4
HETATM    4  C   UNL     1     -10.982   7.439  73.070  1.00  0.00    -0.374 A  
HETATM    5  C   UNL     1     -11.939   7.191  72.074  1.00  0.00    -0.295 A  
HETATM    6  F   UNL     1     -12.944   6.327  72.277  1.00  0.00    -0.296 F  
HETATM    7  C   UNL     1     -11.881   7.806  70.823  1.00  0.00    -0.205 A  
HETATM    8  C   UNL     1     -10.830   8.670  70.500  1.00  0.00    -0.257 A  
HETATM    9  C   UNL     1      -9.885   8.959  71.492  1.00  0.00    -0.384 A  
HETATM   10  C   UNL     1      -9.949   8.332  72.747  1.00  0.00    -0.333 A  
BRANCH   8  11
HETATM   11  C   UNL     1     -10.649   9.198  69.138  1.00  0.00    -0.208 A  
HETATM   12  N   UNL     1     -11.206  10.293  68.661  1.00  0.00    -0.234 NA 
HETATM   13  C   UNL     1     -10.705  10.568  67.393  1.00  0.00    -0.281 A  
HETATM   14  C   UNL     1     -11.057  11.663  66.574  1.00  0.00    -0.357 A  
HETATM   15  C   UNL     1     -10.431  11.832  65.331  1.00  0.00    -0.317 A  
HETATM   16  C   UNL     1      -9.473  10.922  64.909  1.00  0.00    -0.235 A  
HETATM   17  O   UNL     1      -8.835  11.062  63.708  1.00  0.00    -0.343 OA 
HETATM   18  C   UNL     1      -9.119   9.823  65.683  1.00  0.00    -0.222 A  
HETATM   19  C   UNL     1      -9.752   9.668  66.923  1.00  0.00    -0.186 A  
HETATM   20  H   UNL     1      -8.179  10.438  63.418  1.00  0.00     0.000 HD 
HETATM   21  S   UNL     1      -9.520   8.433  68.085  1.00  0.00    -0.139 SA 
ENDBRANCH   8  11
ENDBRANCH   2   4
TORSDOF 2
ENDMDL
MODEL       84
REMARK 921   NORMALIZED FREE ENERGY PREDICTED BY IDOCK:   -4.68 KCAL/MOL
REMARK 922        TOTAL FREE ENERGY PREDICTED BY IDOCK:   -5.43 KCAL/MOL
REMARK 923 INTER-LIGAND FREE ENERGY PREDICTED BY IDOCK:   -5.41 KCAL/MOL
REMARK 924 INTRA-LIGAND FREE ENERGY PREDICTED BY IDOCK:   -0.03 KCAL/MOL
REMARK 927      BINDING AFFINITY PREDICTED BY RF-SCORE:    0.00 PKD
ROOT
HETATM    1  C   UNL     1      -9.485   3.761  69.171  1.00  0.00    -0.172 C  
HETATM    2  N   UNL     1      -9.892   4.542  70.328  1.00  0.00    -0.220 NA 
HETATM    3  H   UNL     1      -9.880   4.134  71.263  1.00  0.00     0.000 HD 
ENDROOT
BRANCH   2   4
HETATM    4  C   UNL     1     -10.300   5.871  70.130  1.00  0.00    -0.241 A  
HETATM    5  C   UNL     1      -9.604   6.815  69.360  1.00  0.00    -0.146 A  
HETATM    6  F   UNL     1      -8.524   6.466  68.645  1.00  0.00    -0.119 F  
HETATM    7  C   UNL     1      -9.980   8.157  69.317  1.00  0.00    -0.188 A  
HETATM    8  C   UNL     1     -11.053   8.623  70.083  1.00  0.00    -0.199 A  
HETATM    9  C   UNL     1     -11.784   7.691  70.830  1.00  0.00    -0.291 A  
HETATM   10  C   UNL     1     -11.395   6.342  70.870  1.00  0.00    -0.398 A  
BRANCH   8  11
HETATM   11  C   UNL     1     -11.366  10.057  70.190  1.00  0.00    -0.291 A  
HETATM   12  N   UNL     1     -10.959  10.995  69.358  1.00  0.00    -0.240 NA 
HETATM   13  C   UNL     1     -11.557  12.208  69.679  1.00  0.00    -0.291 A  
HETATM   14  C   UNL     1     -11.372  13.436  69.005  1.00  0.00    -0.335 A  
HETATM   15  C   UNL     1     -12.081  14.571  69.421  1.00  0.00    -0.328 A  
HETATM   16  C   UNL     1     -12.956  14.487  70.494  1.00  0.00    -0.249 A  
HETATM   17  O   UNL     1     -13.671  15.572  70.919  1.00  0.00    -0.794 OA 
HETATM   18  C   UNL     1     -13.145  13.299  71.191  1.00  0.00    -0.224 A  
HETATM   19  C   UNL     1     -12.431  12.171  70.762  1.00  0.00    -0.271 A  
HETATM   20  H   UNL     1     -14.271  15.514  71.655  1.00  0.00     0.000 HD 
HETATM   21  S   UNL     1     -12.462  10.588  71.409  1.00  0.00    -0.408 SA 
ENDBRANCH   8  11
ENDBRANCH   2   4
TORSDOF 2
ENDMDL
MODEL       85
REMARK 921   NORMALIZED FREE ENERGY PREDICTED BY IDOCK:   -4.68 KCAL/MOL
REMARK 922        TOTAL FREE ENERGY PREDICTED BY IDOCK:   -5.43 KCAL/MOL
REMARK 923 INTER-LIGAND FREE ENERGY PREDICTED BY IDOCK:   -5.20 KCAL/MOL
REMARK 924 INTRA-LIGAND FREE ENERGY PREDICTED BY IDOCK:   -0.22 KCAL/MOL
REMARK 927      BINDING AFFINITY PREDICTED BY RF-SCORE:    0.00 PKD
ROOT
HETATM    1  C   UNL     1      -7.875   5.358  65.760  1.00  0.00    -0.100 C  
HETATM    2  N   UNL     1      -9.123   6.080  65.571  1.00  0.00    -0.358 NA 
HETATM    3  H   UNL     1      -9.818   5.751  64.900  1.00  0.00     0.000 HD 
ENDROOT
BRANCH   2   4
HETATM    4  C   UNL     1      -9.350   7.238  66.330  1.00  0.00    -0.150 A  
HETATM    5  C   UNL     1     -10.221   7.316  67.428  1.00  0.00    -0.236 A  
HETATM    6  F   UNL     1     -10.830   6.222  67.910  1.00  0.00    -0.242 F  
HETATM    7  C   UNL     1     -10.517   8.527  68.054  1.00  0.00    -0.249 A  
HETATM    8  C   UNL     1      -9.980   9.727  67.577  1.00  0.00    -0.230 A  
HETATM    9  C   UNL     1      -9.080   9.667  66.506  1.00  0.00    -0.185 A  
HETATM   10  C   UNL     1      -8.792   8.444  65.880  1.00  0.00    -0.212 A  
BRANCH   8  11
HETATM   11  C   UNL     1     -10.406  11.032  68.107  1.00  0.00    -0.182 A  
HETATM   12  N   UNL     1     -10.166  12.201  67.547  1.00  0.00    -0.197 NA 
HETATM   13  C   UNL     1     -10.834  13.206  68.239  1.00  0.00    -0.253 A  
HETATM   14  C   UNL     1     -10.824  14.584  67.928  1.00  0.00    -0.260 A  
HETATM   15  C   UNL     1     -11.586  15.475  68.696  1.00  0.00    -0.379 A  
HETATM   16  C   UNL     1     -12.341  15.003  69.760  1.00  0.00    -0.240 A  
HETATM   17  O   UNL     1     -13.103  15.843  70.523  1.00  0.00    -0.714 OA 
HETATM   18  C   UNL     1     -12.355  13.656  70.104  1.00  0.00    -0.372 A  
HETATM   19  C   UNL     1     -11.591  12.776  69.326  1.00  0.00    -0.314 A  
HETATM   20  H   UNL     1     -13.620  15.519  71.252  1.00  0.00     0.000 HD 
HETATM   21  S   UNL     1     -11.420  11.083  69.500  1.00  0.00    -0.329 SA 
ENDBRANCH   8  11
ENDBRANCH   2   4
TORSDOF 2
ENDMDL
MODEL       86
REMARK 921   NORMALIZED FREE ENERGY PREDICTED BY IDOCK:   -4.67 KCAL/MOL
REMARK 922        TOTAL FREE ENERGY PREDICTED BY IDOCK:   -5.41 KCAL/MOL
REMARK 923 INTER-LIGAND FREE ENERGY PREDICTED BY IDOCK:   -5.19 KCAL/MOL
REMARK 924 INTRA-LIGAND FREE ENERGY PREDICTED BY IDOCK:   -0.22 KCAL/MOL
REMARK 927      BINDING AFFINITY PREDICTED BY RF-SCORE:    0.00 PKD
ROOT
HETATM    1  C   UNL     1      -9.266   3.370  64.955  1.00  0.00    -0.145 C  
HETATM    2  N   UNL     1      -8.794   4.194  66.056  1.00  0.00    -0.118 NA 
HETATM    3  H   UNL     1      -8.167   3.811  66.762  1.00  0.00     0.000 HD 
ENDROOT
BRANCH   2   4
HETATM    4  C   UNL     1      -9.221   5.530  66.124  1.00  0.00    -0.158 A  
HETATM    5  C   UNL     1      -8.493   6.628  65.640  1.00  0.00    -0.144 A  
HETATM    6  F   UNL     1      -7.353   6.456  64.955  1.00  0.00    -0.064 F  
HETATM    7  C   UNL     1      -8.899   7.943  65.865  1.00  0.00    -0.183 A  
HETATM    8  C   UNL     1     -10.040   8.217  66.626  1.00  0.00    -0.351 A  
HETATM    9  C   UNL     1     -10.801   7.136  67.087  1.00  0.00    -0.403 A  
HETATM   10  C   UNL     1     -10.382   5.816  66.859  1.00  0.00    -0.306 A  
BRANCH   8  11
HETATM   11  C   UNL     1     -10.397   9.589  67.022  1.00  0.00    -0.250 A  
HETATM   12  N   UNL     1     -10.621  10.592  66.196  1.00  0.00    -0.162 NA 
HETATM   13  C   UNL     1     -11.073  11.699  66.904  1.00  0.00    -0.308 A  
HETATM   14  C   UNL     1     -11.425  12.954  66.358  1.00  0.00    -0.389 A  
HETATM   15  C   UNL     1     -11.908  13.967  67.199  1.00  0.00    -0.445 A  
HETATM   16  C   UNL     1     -12.034  13.736  68.560  1.00  0.00    -0.367 A  
HETATM   17  O   UNL     1     -12.511  14.698  69.407  1.00  0.00    -0.549 OA 
HETATM   18  C   UNL     1     -11.676  12.520  69.131  1.00  0.00    -0.375 A  
HETATM   19  C   UNL     1     -11.197  11.516  68.279  1.00  0.00    -0.261 A  
HETATM   20  H   UNL     1     -12.597  14.540  70.341  1.00  0.00     0.000 HD 
HETATM   21  S   UNL     1     -10.693   9.932  68.685  1.00  0.00    -0.214 SA 
ENDBRANCH   8  11
ENDBRANCH   2   4
TORSDOF 2
ENDMDL
MODEL       87
REMARK 921   NORMALIZED FREE ENERGY PREDICTED BY IDOCK:   -4.66 KCAL/MOL
REMARK 922        TOTAL FREE ENERGY PREDICTED BY IDOCK:   -5.41 KCAL/MOL
REMARK 923 INTER-LIGAND FREE ENERGY PREDICTED BY IDOCK:   -5.19 KCAL/MOL
REMARK 924 INTRA-LIGAND FREE ENERGY PREDICTED BY IDOCK:   -0.23 KCAL/MOL
REMARK 927      BINDING AFFINITY PREDICTED BY RF-SCORE:    0.00 PKD
ROOT
HETATM    1  C   UNL     1      -6.122  20.286  70.477  1.00  0.00    -0.308 C  
HETATM    2  N   UNL     1      -6.414  19.984  69.085  1.00  0.00    -0.322 NA 
HETATM    3  H   UNL     1      -6.155  20.636  68.345  1.00  0.00     0.000 HD 
ENDROOT
BRANCH   2   4
HETATM    4  C   UNL     1      -7.058  18.774  68.782  1.00  0.00    -0.308 A  
HETATM    5  C   UNL     1      -8.435  18.641  68.540  1.00  0.00    -0.338 A  
HETATM    6  F   UNL     1      -9.234  19.716  68.469  1.00  0.00    -0.371 F  
HETATM    7  C   UNL     1      -9.042  17.395  68.387  1.00  0.00    -0.274 A  
HETATM    8  C   UNL     1      -8.297  16.218  68.511  1.00  0.00    -0.204 A  
HETATM    9  C   UNL     1      -6.916  16.329  68.716  1.00  0.00    -0.159 A  
HETATM   10  C   UNL     1      -6.315  17.588  68.873  1.00  0.00    -0.211 A  
BRANCH   8  11
HETATM   11  C   UNL     1      -8.937  14.892  68.524  1.00  0.00    -0.179 A  
HETATM   12  N   UNL     1     -10.147  14.629  68.976  1.00  0.00    -0.228 NA 
HETATM   13  C   UNL     1     -10.480  13.308  68.703  1.00  0.00    -0.228 A  
HETATM   14  C   UNL     1     -11.698  12.668  69.026  1.00  0.00    -0.367 A  
HETATM   15  C   UNL     1     -11.906  11.335  68.645  1.00  0.00    -0.369 A  
HETATM   16  C   UNL     1     -10.916  10.648  67.958  1.00  0.00    -0.282 A  
HETATM   17  O   UNL     1     -11.089   9.351  67.562  1.00  0.00    -0.454 OA 
HETATM   18  C   UNL     1      -9.699  11.243  67.642  1.00  0.00    -0.183 A  
HETATM   19  C   UNL     1      -9.506  12.576  68.028  1.00  0.00    -0.209 A  
HETATM   20  H   UNL     1     -10.411   8.881  67.091  1.00  0.00     0.000 HD 
HETATM   21  S   UNL     1      -8.133  13.565  67.774  1.00  0.00    -0.194 SA 
ENDBRANCH   8  11
ENDBRANCH   2   4
TORSDOF 2
ENDMDL
MODEL       88
REMARK 921   NORMALIZED FREE ENERGY PREDICTED BY IDOCK:   -4.57 KCAL/MOL
REMARK 922        TOTAL FREE ENERGY PREDICTED BY IDOCK:   -5.31 KCAL/MOL
REMARK 923 INTER-LIGAND FREE ENERGY PREDICTED BY IDOCK:   -5.10 KCAL/MOL
REMARK 924 INTRA-LIGAND FREE ENERGY PREDICTED BY IDOCK:   -0.22 KCAL/MOL
REMARK 927      BINDING AFFINITY PREDICTED BY RF-SCORE:    0.00 PKD
ROOT
HETATM    1  C   UNL     1      -8.344   5.734  64.702  1.00  0.00    -0.102 C  
HETATM    2  N   UNL     1      -7.916   7.081  65.048  1.00  0.00    -0.125 NA 
HETATM    3  H   UNL     1      -6.975   7.402  64.821  1.00  0.00     0.000 HD 
ENDROOT
BRANCH   2   4
HETATM    4  C   UNL     1      -8.827   7.928  65.699  1.00  0.00    -0.082 A  
HETATM    5  C   UNL     1      -9.302   9.141  65.178  1.00  0.00    -0.110 A  
HETATM    6  F   UNL     1      -8.993   9.530  63.932  1.00  0.00    -0.218 F  
HETATM    7  C   UNL     1     -10.092  10.010  65.930  1.00  0.00    -0.319 A  
HETATM    8  C   UNL     1     -10.408   9.718  67.260  1.00  0.00    -0.308 A  
HETATM    9  C   UNL     1      -9.975   8.495  67.788  1.00  0.00    -0.241 A  
HETATM   10  C   UNL     1      -9.177   7.628  67.024  1.00  0.00    -0.168 A  
BRANCH   8  11
HETATM   11  C   UNL     1     -11.093  10.690  68.128  1.00  0.00    -0.285 A  
HETATM   12  N   UNL     1     -11.659  10.417  69.287  1.00  0.00    -0.212 NA 
HETATM   13  C   UNL     1     -12.082  11.592  69.898  1.00  0.00    -0.316 A  
HETATM   14  C   UNL     1     -12.721  11.698  71.153  1.00  0.00    -0.426 A  
HETATM   15  C   UNL     1     -13.051  12.963  71.661  1.00  0.00    -0.430 A  
HETATM   16  C   UNL     1     -12.753  14.102  70.928  1.00  0.00    -0.361 A  
HETATM   17  O   UNL     1     -13.050  15.352  71.398  1.00  0.00    -0.419 OA 
HETATM   18  C   UNL     1     -12.142  14.030  69.681  1.00  0.00    -0.408 A  
HETATM   19  C   UNL     1     -11.817  12.760  69.187  1.00  0.00    -0.301 A  
HETATM   20  H   UNL     1     -12.846  16.133  70.896  1.00  0.00     0.000 HD 
HETATM   21  S   UNL     1     -11.061  12.360  67.705  1.00  0.00    -0.265 SA 
ENDBRANCH   8  11
ENDBRANCH   2   4
TORSDOF 2
ENDMDL
MODEL       89
REMARK 921   NORMALIZED FREE ENERGY PREDICTED BY IDOCK:   -4.55 KCAL/MOL
REMARK 922        TOTAL FREE ENERGY PREDICTED BY IDOCK:   -5.28 KCAL/MOL
REMARK 923 INTER-LIGAND FREE ENERGY PREDICTED BY IDOCK:   -5.04 KCAL/MOL
REMARK 924 INTRA-LIGAND FREE ENERGY PREDICTED BY IDOCK:   -0.24 KCAL/MOL
REMARK 927      BINDING AFFINITY PREDICTED BY RF-SCORE:    0.00 PKD
ROOT
HETATM    1  C   UNL     1      -8.559  10.726  62.331  1.00  0.00    -0.281 C  
HETATM    2  N   UNL     1      -7.697  10.685  63.501  1.00  0.00    -0.351 NA 
HETATM    3  H   UNL     1      -6.718  10.964  63.437  1.00  0.00     0.000 HD 
ENDROOT
BRANCH   2   4
HETATM    4  C   UNL     1      -8.242  10.255  64.721  1.00  0.00    -0.163 A  
HETATM    5  C   UNL     1      -8.572   8.925  65.024  1.00  0.00    -0.176 A  
HETATM    6  F   UNL     1      -8.273   7.926  64.179  1.00  0.00    -0.145 F  
HETATM    7  C   UNL     1      -9.243   8.577  66.196  1.00  0.00    -0.269 A  
HETATM    8  C   UNL     1      -9.652   9.560  67.102  1.00  0.00    -0.206 A  
HETATM    9  C   UNL     1      -9.301  10.889  66.837  1.00  0.00    -0.186 A  
HETATM   10  C   UNL     1      -8.629  11.230  65.653  1.00  0.00    -0.023 A  
BRANCH   8  11
HETATM   11  C   UNL     1     -10.508   9.243  68.258  1.00  0.00    -0.215 A  
HETATM   12  N   UNL     1     -10.579   8.072  68.860  1.00  0.00    -0.183 NA 
HETATM   13  C   UNL     1     -11.375   8.170  69.996  1.00  0.00     0.000 A  
HETATM   14  C   UNL     1     -11.674   7.126  70.900  1.00  0.00    -0.367 A  
HETATM   15  C   UNL     1     -12.460   7.389  72.030  1.00  0.00    -0.280 A  
HETATM   16  C   UNL     1     -12.944   8.669  72.255  1.00  0.00    -0.381 A  
HETATM   17  O   UNL     1     -13.704   8.963  73.353  1.00  0.00    -1.094 OA 
HETATM   18  C   UNL     1     -12.685   9.713  71.374  1.00  0.00    -0.466 A  
HETATM   19  C   UNL     1     -11.896   9.436  70.249  1.00  0.00    -0.018 A  
HETATM   20  H   UNL     1     -14.037   9.840  73.507  1.00  0.00     0.000 HD 
HETATM   21  S   UNL     1     -11.407  10.507  69.008  1.00  0.00    -0.240 SA 
ENDBRANCH   8  11
ENDBRANCH   2   4
TORSDOF 2
ENDMDL
MODEL       90
REMARK 921   NORMALIZED FREE ENERGY PREDICTED BY IDOCK:   -4.53 KCAL/MOL
REMARK 922        TOTAL FREE ENERGY PREDICTED BY IDOCK:   -5.26 KCAL/MOL
REMARK 923 INTER-LIGAND FREE ENERGY PREDICTED BY IDOCK:   -5.06 KCAL/MOL
REMARK 924 INTRA-LIGAND FREE ENERGY PREDICTED BY IDOCK:   -0.20 KCAL/MOL
REMARK 927      BINDING AFFINITY PREDICTED BY RF-SCORE:    0.00 PKD
ROOT
HETATM    1  C   UNL     1      -6.596   8.814  63.707  1.00  0.00    -0.087 C  
HETATM    2  N   UNL     1      -7.257  10.105  63.596  1.00  0.00    -0.176 NA 
HETATM    3  H   UNL     1      -7.163  10.667  62.751  1.00  0.00     0.000 HD 
ENDROOT
BRANCH   2   4
HETATM    4  C   UNL     1      -8.026  10.559  64.679  1.00  0.00    -0.037 A  
HETATM    5  C   UNL     1      -7.513  10.877  65.946  1.00  0.00    -0.048 A  
HETATM    6  F   UNL     1      -6.193  10.875  66.181  1.00  0.00    -0.099 F  
HETATM    7  C   UNL     1      -8.343  11.185  67.024  1.00  0.00    -0.144 A  
HETATM    8  C   UNL     1      -9.734  11.146  66.889  1.00  0.00    -0.216 A  
HETATM    9  C   UNL     1     -10.266  10.867  65.624  1.00  0.00    -0.323 A  
HETATM   10  C   UNL     1      -9.423  10.554  64.545  1.00  0.00    -0.329 A  
BRANCH   8  11
HETATM   11  C   UNL     1     -10.632  11.298  68.045  1.00  0.00    -0.195 A  
HETATM   12  N   UNL     1     -11.117  10.312  68.773  1.00  0.00    -0.237 NA 
HETATM   13  C   UNL     1     -11.809  10.823  69.865  1.00  0.00    -0.335 A  
HETATM   14  C   UNL     1     -12.456  10.071  70.871  1.00  0.00    -0.431 A  
HETATM   15  C   UNL     1     -13.079  10.731  71.940  1.00  0.00    -0.557 A  
HETATM   16  C   UNL     1     -13.061  12.116  72.004  1.00  0.00    -0.357 A  
HETATM   17  O   UNL     1     -13.649  12.791  73.038  1.00  0.00    -0.544 OA 
HETATM   18  C   UNL     1     -12.450  12.885  71.020  1.00  0.00    -0.374 A  
HETATM   19  C   UNL     1     -11.830  12.212  69.958  1.00  0.00    -0.306 A  
HETATM   20  H   UNL     1     -13.637  13.741  73.081  1.00  0.00     0.000 HD 
HETATM   21  S   UNL     1     -11.000  12.880  68.620  1.00  0.00    -0.266 SA 
ENDBRANCH   8  11
ENDBRANCH   2   4
TORSDOF 2
ENDMDL
MODEL       91
REMARK 921   NORMALIZED FREE ENERGY PREDICTED BY IDOCK:   -4.52 KCAL/MOL
REMARK 922        TOTAL FREE ENERGY PREDICTED BY IDOCK:   -5.25 KCAL/MOL
REMARK 923 INTER-LIGAND FREE ENERGY PREDICTED BY IDOCK:   -5.01 KCAL/MOL
REMARK 924 INTRA-LIGAND FREE ENERGY PREDICTED BY IDOCK:   -0.24 KCAL/MOL
REMARK 927      BINDING AFFINITY PREDICTED BY RF-SCORE:    0.00 PKD
ROOT
HETATM    1  C   UNL     1      -7.561   8.623  63.116  1.00  0.00    -0.112 C  
HETATM    2  N   UNL     1      -8.838   8.500  63.801  1.00  0.00    -0.375 NA 
HETATM    3  H   UNL     1      -9.350   7.618  63.794  1.00  0.00     0.000 HD 
ENDROOT
BRANCH   2   4
HETATM    4  C   UNL     1      -9.350   9.622  64.472  1.00  0.00    -0.182 A  
HETATM    5  C   UNL     1      -9.922  10.738  63.842  1.00  0.00    -0.343 A  
HETATM    6  F   UNL     1     -10.125  10.758  62.517  1.00  0.00    -0.234 F  
HETATM    7  C   UNL     1     -10.282  11.884  64.551  1.00  0.00    -0.320 A  
HETATM    8  C   UNL     1     -10.045  11.977  65.926  1.00  0.00    -0.264 A  
HETATM    9  C   UNL     1      -9.509  10.860  66.580  1.00  0.00    -0.210 A  
HETATM   10  C   UNL     1      -9.146   9.713  65.857  1.00  0.00    -0.221 A  
BRANCH   8  11
HETATM   11  C   UNL     1     -10.255  13.231  66.667  1.00  0.00    -0.265 A  
HETATM   12  N   UNL     1     -10.239  13.357  67.979  1.00  0.00    -0.237 NA 
HETATM   13  C   UNL     1     -10.330  14.700  68.329  1.00  0.00    -0.230 A  
HETATM   14  C   UNL     1     -10.332  15.224  69.641  1.00  0.00    -0.271 A  
HETATM   15  C   UNL     1     -10.386  16.612  69.835  1.00  0.00    -0.022 A  
HETATM   16  C   UNL     1     -10.442  17.463  68.741  1.00  0.00    -0.333 A  
HETATM   17  O   UNL     1     -10.485  18.821  68.894  1.00  0.00    -0.448 OA 
HETATM   18  C   UNL     1     -10.462  16.977  67.439  1.00  0.00    -0.322 A  
HETATM   19  C   UNL     1     -10.405  15.589  67.259  1.00  0.00    -0.267 A  
HETATM   20  H   UNL     1     -10.524  19.404  68.145  1.00  0.00     0.000 HD 
HETATM   21  S   UNL     1     -10.405  14.708  65.793  1.00  0.00    -0.354 SA 
ENDBRANCH   8  11
ENDBRANCH   2   4
TORSDOF 2
ENDMDL
MODEL       92
REMARK 921   NORMALIZED FREE ENERGY PREDICTED BY IDOCK:   -4.51 KCAL/MOL
REMARK 922        TOTAL FREE ENERGY PREDICTED BY IDOCK:   -5.25 KCAL/MOL
REMARK 923 INTER-LIGAND FREE ENERGY PREDICTED BY IDOCK:   -5.09 KCAL/MOL
REMARK 924 INTRA-LIGAND FREE ENERGY PREDICTED BY IDOCK:   -0.15 KCAL/MOL
REMARK 927      BINDING AFFINITY PREDICTED BY RF-SCORE:    0.00 PKD
ROOT
HETATM    1  C   UNL     1      -5.894   5.224  64.799  1.00  0.00    -0.021 C  
HETATM    2  N   UNL     1      -7.341   5.255  64.936  1.00  0.00    -0.066 NA 
HETATM    3  H   UNL     1      -7.940   4.794  64.250  1.00  0.00     0.000 HD 
ENDROOT
BRANCH   2   4
HETATM    4  C   UNL     1      -7.897   5.932  66.033  1.00  0.00    -0.105 A  
HETATM    5  C   UNL     1      -7.681   5.589  67.377  1.00  0.00    -0.100 A  
HETATM    6  F   UNL     1      -6.809   4.628  67.716  1.00  0.00    -0.050 F  
HETATM    7  C   UNL     1      -8.373   6.206  68.418  1.00  0.00    -0.114 A  
HETATM    8  C   UNL     1      -9.349   7.171  68.154  1.00  0.00    -0.129 A  
HETATM    9  C   UNL     1      -9.555   7.554  66.823  1.00  0.00    -0.265 A  
HETATM   10  C   UNL     1      -8.856   6.924  65.780  1.00  0.00    -0.088 A  
BRANCH   8  11
HETATM   11  C   UNL     1     -10.212   7.714  69.215  1.00  0.00    -0.210 A  
HETATM   12  N   UNL     1     -10.512   8.987  69.383  1.00  0.00    -0.220 NA 
HETATM   13  C   UNL     1     -11.461   9.123  70.390  1.00  0.00    -0.194 A  
HETATM   14  C   UNL     1     -12.032  10.334  70.843  1.00  0.00    -0.473 A  
HETATM   15  C   UNL     1     -13.015  10.308  71.842  1.00  0.00    -0.554 A  
HETATM   16  C   UNL     1     -13.419   9.098  72.386  1.00  0.00    -0.476 A  
HETATM   17  O   UNL     1     -14.382   9.035  73.354  1.00  0.00    -1.143 OA 
HETATM   18  C   UNL     1     -12.862   7.891  71.976  1.00  0.00    -0.287 A  
HETATM   19  C   UNL     1     -11.882   7.932  70.975  1.00  0.00    -0.268 A  
HETATM   20  H   UNL     1     -14.658   8.205  73.727  1.00  0.00     0.000 HD 
HETATM   21  S   UNL     1     -11.032   6.625  70.270  1.00  0.00    -0.330 SA 
ENDBRANCH   8  11
ENDBRANCH   2   4
TORSDOF 2
ENDMDL
MODEL       93
REMARK 921   NORMALIZED FREE ENERGY PREDICTED BY IDOCK:   -4.45 KCAL/MOL
REMARK 922        TOTAL FREE ENERGY PREDICTED BY IDOCK:   -5.17 KCAL/MOL
REMARK 923 INTER-LIGAND FREE ENERGY PREDICTED BY IDOCK:   -4.95 KCAL/MOL
REMARK 924 INTRA-LIGAND FREE ENERGY PREDICTED BY IDOCK:   -0.22 KCAL/MOL
REMARK 927      BINDING AFFINITY PREDICTED BY RF-SCORE:    0.00 PKD
ROOT
HETATM    1  C   UNL     1     -10.340   6.619  71.473  1.00  0.00    -0.209 C  
HETATM    2  N   UNL     1     -10.877   6.799  70.134  1.00  0.00    -0.249 NA 
HETATM    3  H   UNL     1     -11.195   5.998  69.588  1.00  0.00     0.000 HD 
ENDROOT
BRANCH   2   4
HETATM    4  C   UNL     1     -10.949   8.099  69.608  1.00  0.00    -0.088 A  
HETATM    5  C   UNL     1     -10.667   8.439  68.276  1.00  0.00    -0.028 A  
HETATM    6  F   UNL     1     -10.410   7.495  67.358  1.00  0.00    -0.233 F  
HETATM    7  C   UNL     1     -10.615   9.765  67.846  1.00  0.00    -0.310 A  
HETATM    8  C   UNL     1     -10.804  10.816  68.748  1.00  0.00    -0.262 A  
HETATM    9  C   UNL     1     -11.123  10.498  70.074  1.00  0.00    -0.376 A  
HETATM   10  C   UNL     1     -11.169   9.161  70.499  1.00  0.00    -0.309 A  
BRANCH   8  11
HETATM   11  C   UNL     1     -10.588  12.219  68.362  1.00  0.00    -0.235 A  
HETATM   12  N   UNL     1      -9.951  12.627  67.282  1.00  0.00    -0.210 NA 
HETATM   13  C   UNL     1     -10.059  14.008  67.159  1.00  0.00    -0.259 A  
HETATM   14  C   UNL     1      -9.515  14.801  66.124  1.00  0.00    -0.324 A  
HETATM   15  C   UNL     1      -9.747  16.183  66.112  1.00  0.00    -0.352 A  
HETATM   16  C   UNL     1     -10.503  16.768  67.117  1.00  0.00    -0.299 A  
HETATM   17  O   UNL     1     -10.758  18.111  67.130  1.00  0.00    -0.375 OA 
HETATM   18  C   UNL     1     -11.035  16.018  68.160  1.00  0.00    -0.339 A  
HETATM   19  C   UNL     1     -10.797  14.637  68.158  1.00  0.00    -0.252 A  
HETATM   20  H   UNL     1     -11.276  18.512  67.819  1.00  0.00     0.000 HD 
HETATM   21  S   UNL     1     -11.324  13.469  69.292  1.00  0.00    -0.242 SA 
ENDBRANCH   8  11
ENDBRANCH   2   4
TORSDOF 2
ENDMDL
MODEL       94
REMARK 921   NORMALIZED FREE ENERGY PREDICTED BY IDOCK:   -4.39 KCAL/MOL
REMARK 922        TOTAL FREE ENERGY PREDICTED BY IDOCK:   -5.11 KCAL/MOL
REMARK 923 INTER-LIGAND FREE ENERGY PREDICTED BY IDOCK:   -4.88 KCAL/MOL
REMARK 924 INTRA-LIGAND FREE ENERGY PREDICTED BY IDOCK:   -0.23 KCAL/MOL
REMARK 927      BINDING AFFINITY PREDICTED BY RF-SCORE:    0.00 PKD
ROOT
HETATM    1  C   UNL     1     -12.239  15.463  64.275  1.00  0.00    -0.126 C  
HETATM    2  N   UNL     1     -12.776  14.125  64.464  1.00  0.00    -0.654 NA 
HETATM    3  H   UNL     1     -13.727  13.899  64.171  1.00  0.00     0.000 HD 
ENDROOT
BRANCH   2   4
HETATM    4  C   UNL     1     -11.958  13.151  65.059  1.00  0.00    -0.383 A  
HETATM    5  C   UNL     1     -11.205  12.201  64.352  1.00  0.00    -0.341 A  
HETATM    6  F   UNL     1     -11.126  12.234  63.013  1.00  0.00    -0.427 F  
HETATM    7  C   UNL     1     -10.525  11.167  64.996  1.00  0.00    -0.357 A  
HETATM    8  C   UNL     1     -10.606  11.016  66.384  1.00  0.00    -0.308 A  
HETATM    9  C   UNL     1     -11.322  11.974  67.111  1.00  0.00    -0.396 A  
HETATM   10  C   UNL     1     -12.006  13.009  66.454  1.00  0.00    -0.466 A  
BRANCH   8  11
HETATM   11  C   UNL     1     -10.043   9.842  67.071  1.00  0.00    -0.218 A  
HETATM   12  N   UNL     1      -9.724   8.699  66.498  1.00  0.00    -0.234 NA 
HETATM   13  C   UNL     1      -9.089   7.868  67.415  1.00  0.00    -0.133 A  
HETATM   14  C   UNL     1      -8.594   6.569  67.163  1.00  0.00    -0.111 A  
HETATM   15  C   UNL     1      -7.935   5.867  68.182  1.00  0.00    -0.109 A  
HETATM   16  C   UNL     1      -7.775   6.447  69.431  1.00  0.00    -0.101 A  
HETATM   17  O   UNL     1      -7.128   5.795  70.444  1.00  0.00    -0.065 OA 
HETATM   18  C   UNL     1      -8.268   7.715  69.716  1.00  0.00    -0.131 A  
HETATM   19  C   UNL     1      -8.923   8.406  68.688  1.00  0.00    -0.140 A  
HETATM   20  H   UNL     1      -7.019   6.192  71.301  1.00  0.00     0.000 HD 
HETATM   21  S   UNL     1      -9.620   9.968  68.737  1.00  0.00    -0.176 SA 
ENDBRANCH   8  11
ENDBRANCH   2   4
TORSDOF 2
ENDMDL
MODEL       95
REMARK 921   NORMALIZED FREE ENERGY PREDICTED BY IDOCK:   -4.34 KCAL/MOL
REMARK 922        TOTAL FREE ENERGY PREDICTED BY IDOCK:   -5.05 KCAL/MOL
REMARK 923 INTER-LIGAND FREE ENERGY PREDICTED BY IDOCK:   -4.84 KCAL/MOL
REMARK 924 INTRA-LIGAND FREE ENERGY PREDICTED BY IDOCK:   -0.21 KCAL/MOL
REMARK 927      BINDING AFFINITY PREDICTED BY RF-SCORE:    0.00 PKD
ROOT
HETATM    1  C   UNL     1      -8.323  16.817  67.322  1.00  0.00    -0.177 C  
HETATM    2  N   UNL     1      -9.649  16.254  67.118  1.00  0.00    -0.230 NA 
HETATM    3  H   UNL     1     -10.456  16.861  66.977  1.00  0.00     0.000 HD 
ENDROOT
BRANCH   2   4
HETATM    4  C   UNL     1      -9.792  14.858  67.120  1.00  0.00    -0.231 A  
HETATM    5  C   UNL     1     -10.900  14.168  66.604  1.00  0.00    -0.299 A  
HETATM    6  F   UNL     1     -11.878  14.815  65.952  1.00  0.00    -0.359 F  
HETATM    7  C   UNL     1     -11.054  12.791  66.762  1.00  0.00    -0.314 A  
HETATM    8  C   UNL     1     -10.118  12.046  67.486  1.00  0.00    -0.205 A  
HETATM    9  C   UNL     1      -8.986  12.709  67.978  1.00  0.00    -0.200 A  
HETATM   10  C   UNL     1      -8.842  14.096  67.817  1.00  0.00    -0.185 A  
BRANCH   8  11
HETATM   11  C   UNL     1     -10.339  10.629  67.814  1.00  0.00    -0.204 A  
HETATM   12  N   UNL     1     -10.468   9.651  66.940  1.00  0.00    -0.233 NA 
HETATM   13  C   UNL     1     -10.520   8.428  67.599  1.00  0.00    -0.239 A  
HETATM   14  C   UNL     1     -10.643   7.157  66.994  1.00  0.00    -0.413 A  
HETATM   15  C   UNL     1     -10.638   6.004  67.792  1.00  0.00    -0.337 A  
HETATM   16  C   UNL     1     -10.516   6.115  69.169  1.00  0.00    -0.251 A  
HETATM   17  O   UNL     1     -10.496   5.011  69.976  1.00  0.00    -0.276 OA 
HETATM   18  C   UNL     1     -10.412   7.351  69.796  1.00  0.00    -0.235 A  
HETATM   19  C   UNL     1     -10.417   8.495  68.986  1.00  0.00    -0.200 A  
HETATM   20  H   UNL     1     -10.413   5.087  70.920  1.00  0.00     0.000 HD 
HETATM   21  S   UNL     1     -10.298  10.133  69.464  1.00  0.00    -0.254 SA 
ENDBRANCH   8  11
ENDBRANCH   2   4
TORSDOF 2
ENDMDL
MODEL       96
REMARK 921   NORMALIZED FREE ENERGY PREDICTED BY IDOCK:   -4.32 KCAL/MOL
REMARK 922        TOTAL FREE ENERGY PREDICTED BY IDOCK:   -5.03 KCAL/MOL
REMARK 923 INTER-LIGAND FREE ENERGY PREDICTED BY IDOCK:   -4.81 KCAL/MOL
REMARK 924 INTRA-LIGAND FREE ENERGY PREDICTED BY IDOCK:   -0.22 KCAL/MOL
REMARK 927      BINDING AFFINITY PREDICTED BY RF-SCORE:    0.00 PKD
ROOT
HETATM    1  C   UNL     1     -11.842  14.688  64.695  1.00  0.00    -0.452 C  
HETATM    2  N   UNL     1     -10.752  14.305  65.578  1.00  0.00    -0.314 NA 
HETATM    3  H   UNL     1      -9.959  14.929  65.727  1.00  0.00     0.000 HD 
ENDROOT
BRANCH   2   4
HETATM    4  C   UNL     1     -10.815  13.058  66.221  1.00  0.00    -0.278 A  
HETATM    5  C   UNL     1     -11.633  12.768  67.324  1.00  0.00    -0.360 A  
HETATM    6  F   UNL     1     -12.522  13.662  67.782  1.00  0.00    -0.326 F  
HETATM    7  C   UNL     1     -11.548  11.558  68.010  1.00  0.00    -0.370 A  
HETATM    8  C   UNL     1     -10.604  10.594  67.644  1.00  0.00    -0.288 A  
HETATM    9  C   UNL     1      -9.803  10.848  66.523  1.00  0.00    -0.245 A  
HETATM   10  C   UNL     1      -9.893  12.072  65.841  1.00  0.00    -0.259 A  
BRANCH   8  11
HETATM   11  C   UNL     1     -10.375   9.385  68.450  1.00  0.00    -0.205 A  
HETATM   12  N   UNL     1     -10.611   8.148  68.061  1.00  0.00    -0.171 NA 
HETATM   13  C   UNL     1     -10.147   7.251  69.017  1.00  0.00    -0.186 A  
HETATM   14  C   UNL     1     -10.214   5.842  68.944  1.00  0.00    -0.267 A  
HETATM   15  C   UNL     1      -9.660   5.065  69.971  1.00  0.00    -0.258 A  
HETATM   16  C   UNL     1      -9.054   5.681  71.056  1.00  0.00    -0.145 A  
HETATM   17  O   UNL     1      -8.495   4.955  72.070  1.00  0.00    -0.120 OA 
HETATM   18  C   UNL     1      -8.989   7.066  71.167  1.00  0.00    -0.146 A  
HETATM   19  C   UNL     1      -9.545   7.829  70.131  1.00  0.00    -0.168 A  
HETATM   20  H   UNL     1      -8.079   5.377  72.813  1.00  0.00     0.000 HD 
HETATM   21  S   UNL     1      -9.608   9.533  69.987  1.00  0.00    -0.251 SA 
ENDBRANCH   8  11
ENDBRANCH   2   4
TORSDOF 2
ENDMDL
MODEL       97
REMARK 921   NORMALIZED FREE ENERGY PREDICTED BY IDOCK:   -4.30 KCAL/MOL
REMARK 922        TOTAL FREE ENERGY PREDICTED BY IDOCK:   -5.01 KCAL/MOL
REMARK 923 INTER-LIGAND FREE ENERGY PREDICTED BY IDOCK:   -4.79 KCAL/MOL
REMARK 924 INTRA-LIGAND FREE ENERGY PREDICTED BY IDOCK:   -0.22 KCAL/MOL
REMARK 927      BINDING AFFINITY PREDICTED BY RF-SCORE:    0.00 PKD
ROOT
HETATM    1  C   UNL     1      -9.750   5.769  67.727  1.00  0.00    -0.119 C  
HETATM    2  N   UNL     1     -10.793   6.781  67.674  1.00  0.00    -0.383 NA 
HETATM    3  H   UNL     1     -11.774   6.514  67.584  1.00  0.00     0.000 HD 
ENDROOT
BRANCH   2   4
HETATM    4  C   UNL     1     -10.422   8.133  67.749  1.00  0.00    -0.214 A  
HETATM    5  C   UNL     1     -10.331   8.871  68.939  1.00  0.00    -0.212 A  
HETATM    6  F   UNL     1     -10.491   8.284  70.134  1.00  0.00    -0.205 F  
HETATM    7  C   UNL     1     -10.099  10.246  68.940  1.00  0.00    -0.216 A  
HETATM    8  C   UNL     1      -9.986  10.953  67.739  1.00  0.00    -0.198 A  
HETATM    9  C   UNL     1     -10.037  10.229  66.541  1.00  0.00    -0.290 A  
HETATM   10  C   UNL     1     -10.276   8.846  66.549  1.00  0.00    -0.319 A  
BRANCH   8  11
HETATM   11  C   UNL     1      -9.911  12.422  67.706  1.00  0.00    -0.205 A  
HETATM   12  N   UNL     1      -8.849  13.128  67.372  1.00  0.00    -0.194 NA 
HETATM   13  C   UNL     1      -9.175  14.478  67.312  1.00  0.00    -0.207 A  
HETATM   14  C   UNL     1      -8.300  15.536  66.977  1.00  0.00    -0.265 A  
HETATM   15  C   UNL     1      -8.788  16.849  66.915  1.00  0.00    -0.248 A  
HETATM   16  C   UNL     1     -10.123  17.106  67.189  1.00  0.00    -0.295 A  
HETATM   17  O   UNL     1     -10.634  18.372  67.128  1.00  0.00    -0.400 OA 
HETATM   18  C   UNL     1     -11.005  16.090  67.541  1.00  0.00    -0.261 A  
HETATM   19  C   UNL     1     -10.504  14.782  67.596  1.00  0.00    -0.254 A  
HETATM   20  H   UNL     1     -11.549  18.548  67.316  1.00  0.00     0.000 HD 
HETATM   21  S   UNL     1     -11.341  13.342  67.987  1.00  0.00    -0.306 SA 
ENDBRANCH   8  11
ENDBRANCH   2   4
TORSDOF 2
ENDMDL
MODEL       98
REMARK 921   NORMALIZED FREE ENERGY PREDICTED BY IDOCK:   -4.28 KCAL/MOL
REMARK 922        TOTAL FREE ENERGY PREDICTED BY IDOCK:   -4.99 KCAL/MOL
REMARK 923 INTER-LIGAND FREE ENERGY PREDICTED BY IDOCK:   -4.78 KCAL/MOL
REMARK 924 INTRA-LIGAND FREE ENERGY PREDICTED BY IDOCK:   -0.21 KCAL/MOL
REMARK 927      BINDING AFFINITY PREDICTED BY RF-SCORE:    0.00 PKD
ROOT
HETATM    1  C   UNL     1     -12.400  15.683  64.163  1.00  0.00     0.149 C  
HETATM    2  N   UNL     1     -10.972  15.470  64.336  1.00  0.00    -0.726 NA 
HETATM    3  H   UNL     1     -10.295  16.035  63.823  1.00  0.00     0.000 HD 
ENDROOT
BRANCH   2   4
HETATM    4  C   UNL     1     -10.546  14.472  65.226  1.00  0.00    -0.383 A  
HETATM    5  C   UNL     1     -10.738  13.095  65.033  1.00  0.00    -0.323 A  
HETATM    6  F   UNL     1     -11.260  12.620  63.893  1.00  0.00    -0.363 F  
HETATM    7  C   UNL     1     -10.422  12.159  66.018  1.00  0.00    -0.281 A  
HETATM    8  C   UNL     1      -9.935  12.569  67.263  1.00  0.00    -0.211 A  
HETATM    9  C   UNL     1      -9.701  13.935  67.462  1.00  0.00    -0.232 A  
HETATM   10  C   UNL     1     -10.026  14.870  66.467  1.00  0.00    -0.277 A  
BRANCH   8  11
HETATM   11  C   UNL     1      -9.755  11.623  68.376  1.00  0.00    -0.199 A  
HETATM   12  N   UNL     1     -10.719  11.133  69.129  1.00  0.00    -0.222 NA 
HETATM   13  C   UNL     1     -10.209  10.165  69.986  1.00  0.00    -0.220 A  
HETATM   14  C   UNL     1     -10.942   9.413  70.931  1.00  0.00    -0.391 A  
HETATM   15  C   UNL     1     -10.293   8.436  71.697  1.00  0.00    -0.312 A  
HETATM   16  C   UNL     1      -8.934   8.213  71.529  1.00  0.00    -0.158 A  
HETATM   17  O   UNL     1      -8.272   7.260  72.252  1.00  0.00    -0.100 OA 
HETATM   18  C   UNL     1      -8.180   8.949  70.622  1.00  0.00    -0.183 A  
HETATM   19  C   UNL     1      -8.843   9.921  69.861  1.00  0.00    -0.195 A  
HETATM   20  H   UNL     1      -7.340   7.108  72.137  1.00  0.00     0.000 HD 
HETATM   21  S   UNL     1      -8.190  10.965  68.674  1.00  0.00    -0.151 SA 
ENDBRANCH   8  11
ENDBRANCH   2   4
TORSDOF 2
ENDMDL
MODEL       99
REMARK 921   NORMALIZED FREE ENERGY PREDICTED BY IDOCK:   -4.27 KCAL/MOL
REMARK 922        TOTAL FREE ENERGY PREDICTED BY IDOCK:   -4.98 KCAL/MOL
REMARK 923 INTER-LIGAND FREE ENERGY PREDICTED BY IDOCK:   -4.76 KCAL/MOL
REMARK 924 INTRA-LIGAND FREE ENERGY PREDICTED BY IDOCK:   -0.21 KCAL/MOL
REMARK 927      BINDING AFFINITY PREDICTED BY RF-SCORE:    0.00 PKD
ROOT
HETATM    1  C   UNL     1     -11.360   2.056  73.410  1.00  0.00    -0.189 C  
HETATM    2  N   UNL     1     -10.324   3.065  73.258  1.00  0.00    -0.142 NA 
HETATM    3  H   UNL     1      -9.402   2.932  73.673  1.00  0.00     0.000 HD 
ENDROOT
BRANCH   2   4
HETATM    4  C   UNL     1     -10.620   4.227  72.528  1.00  0.00    -0.110 A  
HETATM    5  C   UNL     1      -9.799   4.775  71.530  1.00  0.00    -0.187 A  
HETATM    6  F   UNL     1      -8.692   4.140  71.116  1.00  0.00    -0.092 F  
HETATM    7  C   UNL     1     -10.074   6.008  70.940  1.00  0.00    -0.246 A  
HETATM    8  C   UNL     1     -11.169   6.770  71.356  1.00  0.00    -0.309 A  
HETATM    9  C   UNL     1     -12.022   6.226  72.324  1.00  0.00    -0.296 A  
HETATM   10  C   UNL     1     -11.735   4.985  72.915  1.00  0.00    -0.200 A  
BRANCH   8  11
HETATM   11  C   UNL     1     -11.387   8.144  70.875  1.00  0.00    -0.268 A  
HETATM   12  N   UNL     1     -12.048   9.085  71.519  1.00  0.00    -0.319 NA 
HETATM   13  C   UNL     1     -11.934  10.294  70.841  1.00  0.00    -0.375 A  
HETATM   14  C   UNL     1     -12.499  11.529  71.233  1.00  0.00    -0.399 A  
HETATM   15  C   UNL     1     -12.260  12.677  70.466  1.00  0.00    -0.383 A  
HETATM   16  C   UNL     1     -11.476  12.598  69.325  1.00  0.00    -0.294 A  
HETATM   17  O   UNL     1     -11.213  13.700  68.560  1.00  0.00    -0.251 OA 
HETATM   18  C   UNL     1     -10.923  11.394  68.902  1.00  0.00    -0.276 A  
HETATM   19  C   UNL     1     -11.168  10.255  69.679  1.00  0.00    -0.269 A  
HETATM   20  H   UNL     1     -10.676  13.645  67.777  1.00  0.00     0.000 HD 
HETATM   21  S   UNL     1     -10.621   8.655  69.418  1.00  0.00    -0.161 SA 
ENDBRANCH   8  11
ENDBRANCH   2   4
TORSDOF 2
ENDMDL
MODEL      100
REMARK 921   NORMALIZED FREE ENERGY PREDICTED BY IDOCK:   -4.26 KCAL/MOL
REMARK 922        TOTAL FREE ENERGY PREDICTED BY IDOCK:   -4.96 KCAL/MOL
REMARK 923 INTER-LIGAND FREE ENERGY PREDICTED BY IDOCK:   -4.72 KCAL/MOL
REMARK 924 INTRA-LIGAND FREE ENERGY PREDICTED BY IDOCK:   -0.23 KCAL/MOL
REMARK 927      BINDING AFFINITY PREDICTED BY RF-SCORE:    0.00 PKD
ROOT
HETATM    1  C   UNL     1      -8.453  20.383  66.897  1.00  0.00    -0.239 C  
HETATM    2  N   UNL     1      -8.752  19.956  68.254  1.00  0.00    -0.265 NA 
HETATM    3  H   UNL     1      -8.821  20.636  69.011  1.00  0.00     0.000 HD 
ENDROOT
BRANCH   2   4
HETATM    4  C   UNL     1      -8.947  18.587  68.500  1.00  0.00    -0.323 A  
HETATM    5  C   UNL     1      -7.920  17.632  68.561  1.00  0.00    -0.283 A  
HETATM    6  F   UNL     1      -6.630  17.996  68.499  1.00  0.00    -0.190 F  
HETATM    7  C   UNL     1      -8.184  16.267  68.664  1.00  0.00    -0.214 A  
HETATM    8  C   UNL     1      -9.499  15.792  68.668  1.00  0.00    -0.208 A  
HETATM    9  C   UNL     1     -10.539  16.730  68.644  1.00  0.00    -0.353 A  
HETATM   10  C   UNL     1     -10.263  18.103  68.536  1.00  0.00    -0.399 A  
BRANCH   8  11
HETATM   11  C   UNL     1      -9.806  14.355  68.604  1.00  0.00    -0.231 A  
HETATM   12  N   UNL     1     -10.746  13.740  69.294  1.00  0.00    -0.124 NA 
HETATM   13  C   UNL     1     -10.851  12.417  68.880  1.00  0.00    -0.197 A  
HETATM   14  C   UNL     1     -11.754  11.453  69.383  1.00  0.00    -0.406 A  
HETATM   15  C   UNL     1     -11.773  10.164  68.833  1.00  0.00     0.036 A  
HETATM   16  C   UNL     1     -10.903   9.838  67.803  1.00  0.00    -0.246 A  
HETATM   17  O   UNL     1     -10.901   8.593  67.236  1.00  0.00    -0.437 OA 
HETATM   18  C   UNL     1      -9.988  10.757  67.300  1.00  0.00    -0.219 A  
HETATM   19  C   UNL     1      -9.983  12.042  67.858  1.00  0.00    -0.197 A  
HETATM   20  H   UNL     1     -10.304   8.370  66.530  1.00  0.00     0.000 HD 
HETATM   21  S   UNL     1      -8.989  13.373  67.446  1.00  0.00    -0.226 SA 
ENDBRANCH   8  11
ENDBRANCH   2   4
TORSDOF 2
ENDMDL
MODEL      101
REMARK 921   NORMALIZED FREE ENERGY PREDICTED BY IDOCK:   -4.26 KCAL/MOL
REMARK 922        TOTAL FREE ENERGY PREDICTED BY IDOCK:   -4.96 KCAL/MOL
REMARK 923 INTER-LIGAND FREE ENERGY PREDICTED BY IDOCK:   -4.74 KCAL/MOL
REMARK 924 INTRA-LIGAND FREE ENERGY PREDICTED BY IDOCK:   -0.22 KCAL/MOL
REMARK 927      BINDING AFFINITY PREDICTED BY RF-SCORE:    0.00 PKD
ROOT
HETATM    1  C   UNL     1     -10.666  16.348  67.090  1.00  0.00    -0.233 C  
HETATM    2  N   UNL     1     -11.646  15.772  67.997  1.00  0.00    -0.277 NA 
HETATM    3  H   UNL     1     -12.322  16.364  68.479  1.00  0.00     0.000 HD 
ENDROOT
BRANCH   2   4
HETATM    4  C   UNL     1     -11.641  14.382  68.195  1.00  0.00    -0.329 A  
HETATM    5  C   UNL     1     -12.301  13.722  69.243  1.00  0.00    -0.143 A  
HETATM    6  F   UNL     1     -13.099  14.389  70.090  1.00  0.00    -0.345 F  
HETATM    7  C   UNL     1     -12.142  12.355  69.473  1.00  0.00    -0.250 A  
HETATM    8  C   UNL     1     -11.278  11.593  68.681  1.00  0.00    -0.308 A  
HETATM    9  C   UNL     1     -10.639  12.225  67.607  1.00  0.00    -0.238 A  
HETATM   10  C   UNL     1     -10.801  13.602  67.386  1.00  0.00    -0.282 A  
BRANCH   8  11
HETATM   11  C   UNL     1     -10.961  10.193  69.003  1.00  0.00    -0.226 A  
HETATM   12  N   UNL     1     -11.159   9.611  70.169  1.00  0.00    -0.256 NA 
HETATM   13  C   UNL     1     -10.881   8.252  70.076  1.00  0.00    -0.232 A  
HETATM   14  C   UNL     1     -10.988   7.303  71.118  1.00  0.00    -0.267 A  
HETATM   15  C   UNL     1     -10.713   5.953  70.859  1.00  0.00    -0.338 A  
HETATM   16  C   UNL     1     -10.332   5.555  69.586  1.00  0.00    -0.289 A  
HETATM   17  O   UNL     1     -10.066   4.245  69.297  1.00  0.00    -0.103 OA 
HETATM   18  C   UNL     1     -10.197   6.467  68.546  1.00  0.00    -0.190 A  
HETATM   19  C   UNL     1     -10.478   7.813  68.818  1.00  0.00    -0.181 A  
HETATM   20  H   UNL     1      -9.805   3.973  68.425  1.00  0.00     0.000 HD 
HETATM   21  S   UNL     1     -10.409   9.147  67.749  1.00  0.00    -0.250 SA 
ENDBRANCH   8  11
ENDBRANCH   2   4
TORSDOF 2
ENDMDL
MODEL      102
REMARK 921   NORMALIZED FREE ENERGY PREDICTED BY IDOCK:   -4.24 KCAL/MOL
REMARK 922        TOTAL FREE ENERGY PREDICTED BY IDOCK:   -4.94 KCAL/MOL
REMARK 923 INTER-LIGAND FREE ENERGY PREDICTED BY IDOCK:   -4.70 KCAL/MOL
REMARK 924 INTRA-LIGAND FREE ENERGY PREDICTED BY IDOCK:   -0.24 KCAL/MOL
REMARK 927      BINDING AFFINITY PREDICTED BY RF-SCORE:    0.00 PKD
ROOT
HETATM    1  C   UNL     1      -6.447  10.330  62.801  1.00  0.00    -0.137 C  
HETATM    2  N   UNL     1      -7.609   9.470  62.638  1.00  0.00    -0.109 NA 
HETATM    3  H   UNL     1      -7.877   9.126  61.716  1.00  0.00     0.000 HD 
ENDROOT
BRANCH   2   4
HETATM    4  C   UNL     1      -8.352   9.123  63.777  1.00  0.00    -0.182 A  
HETATM    5  C   UNL     1      -9.260   9.972  64.428  1.00  0.00    -0.266 A  
HETATM    6  F   UNL     1      -9.573  11.174  63.920  1.00  0.00    -0.214 F  
HETATM    7  C   UNL     1      -9.862   9.625  65.638  1.00  0.00    -0.369 A  
HETATM    8  C   UNL     1      -9.544   8.421  66.273  1.00  0.00    -0.286 A  
HETATM    9  C   UNL     1      -8.668   7.543  65.623  1.00  0.00    -0.105 A  
HETATM   10  C   UNL     1      -8.065   7.903  64.408  1.00  0.00    -0.103 A  
BRANCH   8  11
HETATM   11  C   UNL     1     -10.029   8.106  67.626  1.00  0.00    -0.185 A  
HETATM   12  N   UNL     1     -10.262   6.895  68.094  1.00  0.00    -0.167 NA 
HETATM   13  C   UNL     1     -10.571   6.960  69.448  1.00  0.00    -0.229 A  
HETATM   14  C   UNL     1     -10.868   5.866  70.292  1.00  0.00    -0.391 A  
HETATM   15  C   UNL     1     -11.119   6.086  71.653  1.00  0.00    -0.333 A  
HETATM   16  C   UNL     1     -11.079   7.374  72.166  1.00  0.00    -0.252 A  
HETATM   17  O   UNL     1     -11.307   7.623  73.491  1.00  0.00    -0.604 OA 
HETATM   18  C   UNL     1     -10.809   8.474  71.359  1.00  0.00    -0.327 A  
HETATM   19  C   UNL     1     -10.559   8.239  70.000  1.00  0.00    -0.235 A  
HETATM   20  H   UNL     1     -11.280   8.506  73.842  1.00  0.00     0.000 HD 
HETATM   21  S   UNL     1     -10.193   9.378  68.777  1.00  0.00    -0.209 SA 
ENDBRANCH   8  11
ENDBRANCH   2   4
TORSDOF 2
ENDMDL
MODEL      103
REMARK 921   NORMALIZED FREE ENERGY PREDICTED BY IDOCK:   -4.22 KCAL/MOL
REMARK 922        TOTAL FREE ENERGY PREDICTED BY IDOCK:   -4.92 KCAL/MOL
REMARK 923 INTER-LIGAND FREE ENERGY PREDICTED BY IDOCK:   -4.77 KCAL/MOL
REMARK 924 INTRA-LIGAND FREE ENERGY PREDICTED BY IDOCK:   -0.15 KCAL/MOL
REMARK 927      BINDING AFFINITY PREDICTED BY RF-SCORE:    0.00 PKD
ROOT
HETATM    1  C   UNL     1     -13.241  12.493  64.215  1.00  0.00     0.231 C  
HETATM    2  N   UNL     1     -12.163  13.137  64.948  1.00  0.00    -0.402 NA 
HETATM    3  H   UNL     1     -11.878  14.090  64.725  1.00  0.00     0.000 HD 
ENDROOT
BRANCH   2   4
HETATM    4  C   UNL     1     -11.524  12.418  65.971  1.00  0.00    -0.382 A  
HETATM    5  C   UNL     1     -10.897  11.174  65.801  1.00  0.00    -0.151 A  
HETATM    6  F   UNL     1     -10.766  10.623  64.585  1.00  0.00    -0.403 F  
HETATM    7  C   UNL     1     -10.405  10.440  66.880  1.00  0.00    -0.297 A  
HETATM    8  C   UNL     1     -10.558  10.906  68.190  1.00  0.00    -0.233 A  
HETATM    9  C   UNL     1     -11.148  12.162  68.378  1.00  0.00    -0.289 A  
HETATM   10  C   UNL     1     -11.644  12.892  67.286  1.00  0.00    -0.416 A  
BRANCH   8  11
HETATM   11  C   UNL     1     -10.204  10.079  69.355  1.00  0.00    -0.222 A  
HETATM   12  N   UNL     1      -8.996   9.952  69.866  1.00  0.00    -0.217 NA 
HETATM   13  C   UNL     1      -9.052   9.212  71.041  1.00  0.00    -0.237 A  
HETATM   14  C   UNL     1      -7.959   8.880  71.873  1.00  0.00     0.017 A  
HETATM   15  C   UNL     1      -8.179   8.161  73.056  1.00  0.00    -0.248 A  
HETATM   16  C   UNL     1      -9.465   7.775  73.403  1.00  0.00    -0.287 A  
HETATM   17  O   UNL     1      -9.717   7.082  74.554  1.00  0.00    -0.432 OA 
HETATM   18  C   UNL     1     -10.559   8.068  72.596  1.00  0.00    -0.419 A  
HETATM   19  C   UNL     1     -10.324   8.790  71.417  1.00  0.00    -0.278 A  
HETATM   20  H   UNL     1     -10.599   6.817  74.792  1.00  0.00     0.000 HD 
HETATM   21  S   UNL     1     -11.459   9.299  70.243  1.00  0.00    -0.100 SA 
ENDBRANCH   8  11
ENDBRANCH   2   4
TORSDOF 2
ENDMDL
MODEL      104
REMARK 921   NORMALIZED FREE ENERGY PREDICTED BY IDOCK:   -4.21 KCAL/MOL
REMARK 922        TOTAL FREE ENERGY PREDICTED BY IDOCK:   -4.90 KCAL/MOL
REMARK 923 INTER-LIGAND FREE ENERGY PREDICTED BY IDOCK:   -4.67 KCAL/MOL
REMARK 924 INTRA-LIGAND FREE ENERGY PREDICTED BY IDOCK:   -0.23 KCAL/MOL
REMARK 927      BINDING AFFINITY PREDICTED BY RF-SCORE:    0.00 PKD
ROOT
HETATM    1  C   UNL     1     -11.160   3.161  73.174  1.00  0.00    -0.059 C  
HETATM    2  N   UNL     1     -10.254   4.281  72.979  1.00  0.00    -0.158 NA 
HETATM    3  H   UNL     1      -9.466   4.430  73.610  1.00  0.00     0.000 HD 
ENDROOT
BRANCH   2   4
HETATM    4  C   UNL     1     -10.486   5.153  71.903  1.00  0.00    -0.207 A  
HETATM    5  C   UNL     1     -10.203   4.859  70.560  1.00  0.00    -0.218 A  
HETATM    6  F   UNL     1      -9.783   3.640  70.191  1.00  0.00    -0.242 F  
HETATM    7  C   UNL     1     -10.319   5.816  69.553  1.00  0.00    -0.333 A  
HETATM    8  C   UNL     1     -10.687   7.130  69.856  1.00  0.00    -0.258 A  
HETATM    9  C   UNL     1     -11.008   7.436  71.184  1.00  0.00    -0.265 A  
HETATM   10  C   UNL     1     -10.884   6.467  72.192  1.00  0.00    -0.264 A  
BRANCH   8  11
HETATM   11  C   UNL     1     -10.653   8.199  68.844  1.00  0.00    -0.140 A  
HETATM   12  N   UNL     1     -10.768   9.489  69.088  1.00  0.00    -0.223 NA 
HETATM   13  C   UNL     1     -10.548  10.215  67.923  1.00  0.00    -0.249 A  
HETATM   14  C   UNL     1     -10.577  11.622  67.796  1.00  0.00    -0.227 A  
HETATM   15  C   UNL     1     -10.289  12.215  66.559  1.00  0.00    -0.239 A  
HETATM   16  C   UNL     1      -9.982  11.420  65.465  1.00  0.00    -0.239 A  
HETATM   17  O   UNL     1      -9.686  11.965  64.246  1.00  0.00    -0.411 OA 
HETATM   18  C   UNL     1      -9.965  10.033  65.552  1.00  0.00    -0.367 A  
HETATM   19  C   UNL     1     -10.252   9.454  66.795  1.00  0.00    -0.250 A  
HETATM   20  H   UNL     1      -9.476  11.421  63.496  1.00  0.00     0.000 HD 
HETATM   21  S   UNL     1     -10.298   7.794  67.207  1.00  0.00    -0.322 SA 
ENDBRANCH   8  11
ENDBRANCH   2   4
TORSDOF 2
ENDMDL
MODEL      105
REMARK 921   NORMALIZED FREE ENERGY PREDICTED BY IDOCK:   -4.19 KCAL/MOL
REMARK 922        TOTAL FREE ENERGY PREDICTED BY IDOCK:   -4.88 KCAL/MOL
REMARK 923 INTER-LIGAND FREE ENERGY PREDICTED BY IDOCK:   -4.99 KCAL/MOL
REMARK 924 INTRA-LIGAND FREE ENERGY PREDICTED BY IDOCK:    0.11 KCAL/MOL
REMARK 927      BINDING AFFINITY PREDICTED BY RF-SCORE:    0.00 PKD
ROOT
HETATM    1  C   UNL     1     -10.761   4.466  72.843  1.00  0.00    -0.186 C  
HETATM    2  N   UNL     1     -11.588   5.648  73.028  1.00  0.00    -0.525 NA 
HETATM    3  H   UNL     1     -12.218   5.723  73.827  1.00  0.00     0.000 HD 
ENDROOT
BRANCH   2   4
HETATM    4  C   UNL     1     -11.499   6.683  72.084  1.00  0.00    -0.287 A  
HETATM    5  C   UNL     1     -11.204   6.502  70.724  1.00  0.00    -0.321 A  
HETATM    6  F   UNL     1     -11.093   5.274  70.196  1.00  0.00    -0.314 F  
HETATM    7  C   UNL     1     -10.987   7.578  69.864  1.00  0.00    -0.223 A  
HETATM    8  C   UNL     1     -11.016   8.891  70.343  1.00  0.00    -0.275 A  
HETATM    9  C   UNL     1     -11.346   9.096  71.688  1.00  0.00    -0.446 A  
HETATM   10  C   UNL     1     -11.558   8.006  72.547  1.00  0.00    -0.464 A  
BRANCH   8  11
HETATM   11  C   UNL     1     -10.625  10.033  69.501  1.00  0.00    -0.244 A  
HETATM   12  N   UNL     1      -9.430  10.588  69.468  1.00  0.00    -0.139 NA 
HETATM   13  C   UNL     1      -9.376  11.544  68.461  1.00  0.00    -0.170 A  
HETATM   14  C   UNL     1      -8.257  12.337  68.119  1.00  0.00    -0.168 A  
HETATM   15  C   UNL     1      -8.342  13.233  67.045  1.00  0.00    -0.092 A  
HETATM   16  C   UNL     1      -9.523  13.342  66.326  1.00  0.00    -0.183 A  
HETATM   17  O   UNL     1      -9.637  14.198  65.265  1.00  0.00    -0.552 OA 
HETATM   18  C   UNL     1     -10.648  12.592  66.649  1.00  0.00    -0.259 A  
HETATM   19  C   UNL     1     -10.547  11.698  67.725  1.00  0.00    -0.194 A  
HETATM   20  H   UNL     1     -10.447  14.273  64.773  1.00  0.00     0.000 HD 
HETATM   21  S   UNL     1     -11.746  10.648  68.345  1.00  0.00     0.048 SA 
ENDBRANCH   8  11
ENDBRANCH   2   4
TORSDOF 2
ENDMDL
MODEL      106
REMARK 921   NORMALIZED FREE ENERGY PREDICTED BY IDOCK:   -4.18 KCAL/MOL
REMARK 922        TOTAL FREE ENERGY PREDICTED BY IDOCK:   -4.87 KCAL/MOL
REMARK 923 INTER-LIGAND FREE ENERGY PREDICTED BY IDOCK:   -4.64 KCAL/MOL
REMARK 924 INTRA-LIGAND FREE ENERGY PREDICTED BY IDOCK:   -0.22 KCAL/MOL
REMARK 927      BINDING AFFINITY PREDICTED BY RF-SCORE:    0.00 PKD
ROOT
HETATM    1  C   UNL     1      -9.026  16.007  65.957  1.00  0.00    -0.310 C  
HETATM    2  N   UNL     1     -10.301  15.422  66.341  1.00  0.00    -0.285 NA 
HETATM    3  H   UNL     1     -11.120  16.011  66.489  1.00  0.00     0.000 HD 
ENDROOT
BRANCH   2   4
HETATM    4  C   UNL     1     -10.379  14.030  66.504  1.00  0.00    -0.285 A  
HETATM    5  C   UNL     1     -10.278  13.363  67.735  1.00  0.00    -0.235 A  
HETATM    6  F   UNL     1     -10.211  14.042  68.889  1.00  0.00    -0.227 F  
HETATM    7  C   UNL     1     -10.218  11.972  67.819  1.00  0.00    -0.211 A  
HETATM    8  C   UNL     1     -10.215  11.186  66.663  1.00  0.00    -0.274 A  
HETATM    9  C   UNL     1     -10.351  11.830  65.427  1.00  0.00    -0.311 A  
HETATM   10  C   UNL     1     -10.407  13.231  65.352  1.00  0.00    -0.316 A  
BRANCH   8  11
HETATM   11  C   UNL     1      -9.982   9.734  66.712  1.00  0.00    -0.218 A  
HETATM   12  N   UNL     1     -10.765   8.851  67.300  1.00  0.00    -0.228 NA 
HETATM   13  C   UNL     1     -10.318   7.563  67.028  1.00  0.00    -0.324 A  
HETATM   14  C   UNL     1     -10.909   6.361  67.478  1.00  0.00    -0.438 A  
HETATM   15  C   UNL     1     -10.367   5.130  67.083  1.00  0.00    -0.246 A  
HETATM   16  C   UNL     1      -9.252   5.096  66.258  1.00  0.00    -0.146 A  
HETATM   17  O   UNL     1      -8.704   3.913  65.845  1.00  0.00    -0.110 OA 
HETATM   18  C   UNL     1      -8.636   6.261  65.815  1.00  0.00    -0.153 A  
HETATM   19  C   UNL     1      -9.190   7.484  66.216  1.00  0.00    -0.146 A  
HETATM   20  H   UNL     1      -7.939   3.891  65.280  1.00  0.00     0.000 HD 
HETATM   21  S   UNL     1      -8.662   9.065  65.828  1.00  0.00    -0.180 SA 
ENDBRANCH   8  11
ENDBRANCH   2   4
TORSDOF 2
ENDMDL
MODEL      107
REMARK 921   NORMALIZED FREE ENERGY PREDICTED BY IDOCK:   -4.17 KCAL/MOL
REMARK 922        TOTAL FREE ENERGY PREDICTED BY IDOCK:   -4.87 KCAL/MOL
REMARK 923 INTER-LIGAND FREE ENERGY PREDICTED BY IDOCK:   -4.65 KCAL/MOL
REMARK 924 INTRA-LIGAND FREE ENERGY PREDICTED BY IDOCK:   -0.21 KCAL/MOL
REMARK 927      BINDING AFFINITY PREDICTED BY RF-SCORE:    0.00 PKD
ROOT
HETATM    1  C   UNL     1      -9.416   3.482  66.227  1.00  0.00    -0.144 C  
HETATM    2  N   UNL     1      -8.474   4.577  66.392  1.00  0.00    -0.112 NA 
HETATM    3  H   UNL     1      -7.499   4.394  66.632  1.00  0.00     0.000 HD 
ENDROOT
BRANCH   2   4
HETATM    4  C   UNL     1      -8.934   5.891  66.212  1.00  0.00    -0.148 A  
HETATM    5  C   UNL     1      -8.233   6.897  65.528  1.00  0.00    -0.135 A  
HETATM    6  F   UNL     1      -7.088   6.628  64.882  1.00  0.00    -0.050 F  
HETATM    7  C   UNL     1      -8.672   8.220  65.506  1.00  0.00    -0.173 A  
HETATM    8  C   UNL     1      -9.819   8.604  66.207  1.00  0.00    -0.320 A  
HETATM    9  C   UNL     1     -10.553   7.609  66.866  1.00  0.00    -0.359 A  
HETATM   10  C   UNL     1     -10.101   6.281  66.886  1.00  0.00    -0.236 A  
BRANCH   8  11
HETATM   11  C   UNL     1     -10.210  10.016  66.342  1.00  0.00    -0.221 A  
HETATM   12  N   UNL     1     -10.963  10.514  67.303  1.00  0.00    -0.285 NA 
HETATM   13  C   UNL     1     -11.011  11.900  67.200  1.00  0.00    -0.269 A  
HETATM   14  C   UNL     1     -11.709  12.779  68.059  1.00  0.00    -0.405 A  
HETATM   15  C   UNL     1     -11.627  14.163  67.853  1.00  0.00    -0.370 A  
HETATM   16  C   UNL     1     -10.866  14.664  66.807  1.00  0.00    -0.312 A  
HETATM   17  O   UNL     1     -10.755  16.008  66.584  1.00  0.00    -0.311 OA 
HETATM   18  C   UNL     1     -10.184  13.825  65.933  1.00  0.00    -0.322 A  
HETATM   19  C   UNL     1     -10.273  12.444  66.152  1.00  0.00    -0.242 A  
HETATM   20  H   UNL     1     -10.234  16.351  65.867  1.00  0.00     0.000 HD 
HETATM   21  S   UNL     1      -9.545  11.179  65.258  1.00  0.00    -0.238 SA 
ENDBRANCH   8  11
ENDBRANCH   2   4
TORSDOF 2
ENDMDL
MODEL      108
REMARK 921   NORMALIZED FREE ENERGY PREDICTED BY IDOCK:   -4.14 KCAL/MOL
REMARK 922        TOTAL FREE ENERGY PREDICTED BY IDOCK:   -4.83 KCAL/MOL
REMARK 923 INTER-LIGAND FREE ENERGY PREDICTED BY IDOCK:   -4.62 KCAL/MOL
REMARK 924 INTRA-LIGAND FREE ENERGY PREDICTED BY IDOCK:   -0.21 KCAL/MOL
REMARK 927      BINDING AFFINITY PREDICTED BY RF-SCORE:    0.00 PKD
ROOT
HETATM    1  C   UNL     1     -11.648  11.862  67.558  1.00  0.00    -0.304 C  
HETATM    2  N   UNL     1     -11.708  11.842  69.011  1.00  0.00    -0.309 NA 
HETATM    3  H   UNL     1     -11.790  12.710  69.541  1.00  0.00     0.000 HD 
ENDROOT
BRANCH   2   4
HETATM    4  C   UNL     1     -11.652  10.603  69.668  1.00  0.00    -0.296 A  
HETATM    5  C   UNL     1     -12.130  10.364  70.966  1.00  0.00    -0.385 A  
HETATM    6  F   UNL     1     -12.797  11.310  71.644  1.00  0.00    -0.473 F  
HETATM    7  C   UNL     1     -11.917   9.152  71.621  1.00  0.00    -0.437 A  
HETATM    8  C   UNL     1     -11.174   8.134  71.016  1.00  0.00    -0.284 A  
HETATM    9  C   UNL     1     -10.719   8.338  69.708  1.00  0.00    -0.221 A  
HETATM   10  C   UNL     1     -10.935   9.563  69.057  1.00  0.00    -0.127 A  
BRANCH   8  11
HETATM   11  C   UNL     1     -10.789   6.915  71.746  1.00  0.00    -0.225 A  
HETATM   12  N   UNL     1     -11.607   6.142  72.431  1.00  0.00    -0.303 NA 
HETATM   13  C   UNL     1     -10.935   5.006  72.868  1.00  0.00    -0.277 A  
HETATM   14  C   UNL     1     -11.485   3.945  73.622  1.00  0.00    -0.171 A  
HETATM   15  C   UNL     1     -10.689   2.840  73.952  1.00  0.00    -0.271 A  
HETATM   16  C   UNL     1      -9.365   2.793  73.543  1.00  0.00    -0.084 A  
HETATM   17  O   UNL     1      -8.563   1.726  73.838  1.00  0.00    -0.056 OA 
HETATM   18  C   UNL     1      -8.788   3.830  72.817  1.00  0.00    -0.104 A  
HETATM   19  C   UNL     1      -9.596   4.927  72.492  1.00  0.00    -0.144 A  
HETATM   20  H   UNL     1      -7.655   1.694  73.557  1.00  0.00     0.000 HD 
HETATM   21  S   UNL     1      -9.173   6.332  71.612  1.00  0.00    -0.143 SA 
ENDBRANCH   8  11
ENDBRANCH   2   4
TORSDOF 2
ENDMDL
MODEL      109
REMARK 921   NORMALIZED FREE ENERGY PREDICTED BY IDOCK:   -4.13 KCAL/MOL
REMARK 922        TOTAL FREE ENERGY PREDICTED BY IDOCK:   -4.82 KCAL/MOL
REMARK 923 INTER-LIGAND FREE ENERGY PREDICTED BY IDOCK:   -4.62 KCAL/MOL
REMARK 924 INTRA-LIGAND FREE ENERGY PREDICTED BY IDOCK:   -0.20 KCAL/MOL
REMARK 927      BINDING AFFINITY PREDICTED BY RF-SCORE:    0.00 PKD
ROOT
HETATM    1  C   UNL     1     -12.227  14.870  64.171  1.00  0.00    -0.255 C  
HETATM    2  N   UNL     1     -10.914  14.251  64.255  1.00  0.00    -0.589 NA 
HETATM    3  H   UNL     1     -10.083  14.746  63.929  1.00  0.00     0.000 HD 
ENDROOT
BRANCH   2   4
HETATM    4  C   UNL     1     -10.814  12.959  64.793  1.00  0.00    -0.327 A  
HETATM    5  C   UNL     1     -11.048  12.633  66.138  1.00  0.00    -0.292 A  
HETATM    6  F   UNL     1     -11.509  13.549  67.004  1.00  0.00    -0.302 F  
HETATM    7  C   UNL     1     -10.793  11.360  66.647  1.00  0.00    -0.339 A  
HETATM    8  C   UNL     1     -10.249  10.362  65.833  1.00  0.00    -0.302 A  
HETATM    9  C   UNL     1     -10.042  10.655  64.479  1.00  0.00    -0.421 A  
HETATM   10  C   UNL     1     -10.298  11.941  63.977  1.00  0.00    -0.403 A  
BRANCH   8  11
HETATM   11  C   UNL     1      -9.812   9.067  66.379  1.00  0.00    -0.286 A  
HETATM   12  N   UNL     1      -9.001   8.218  65.780  1.00  0.00    -0.164 NA 
HETATM   13  C   UNL     1      -8.691   7.170  66.640  1.00  0.00    -0.128 A  
HETATM   14  C   UNL     1      -7.843   6.077  66.354  1.00  0.00    -0.104 A  
HETATM   15  C   UNL     1      -7.591   5.115  67.343  1.00  0.00    -0.088 A  
HETATM   16  C   UNL     1      -8.177   5.237  68.594  1.00  0.00    -0.093 A  
HETATM   17  O   UNL     1      -7.945   4.324  69.584  1.00  0.00    -0.056 OA 
HETATM   18  C   UNL     1      -9.032   6.290  68.900  1.00  0.00    -0.126 A  
HETATM   19  C   UNL     1      -9.274   7.245  67.902  1.00  0.00    -0.131 A  
HETATM   20  H   UNL     1      -8.347   4.408  70.441  1.00  0.00     0.000 HD 
HETATM   21  S   UNL     1     -10.261   8.639  67.986  1.00  0.00    -0.213 SA 
ENDBRANCH   8  11
ENDBRANCH   2   4
TORSDOF 2
ENDMDL
MODEL      110
REMARK 921   NORMALIZED FREE ENERGY PREDICTED BY IDOCK:   -4.11 KCAL/MOL
REMARK 922        TOTAL FREE ENERGY PREDICTED BY IDOCK:   -4.79 KCAL/MOL
REMARK 923 INTER-LIGAND FREE ENERGY PREDICTED BY IDOCK:   -4.71 KCAL/MOL
REMARK 924 INTRA-LIGAND FREE ENERGY PREDICTED BY IDOCK:   -0.08 KCAL/MOL
REMARK 927      BINDING AFFINITY PREDICTED BY RF-SCORE:    0.00 PKD
ROOT
HETATM    1  C   UNL     1      -9.666   4.746  65.812  1.00  0.00    -0.188 C  
HETATM    2  N   UNL     1      -9.551   5.763  66.845  1.00  0.00    -0.134 NA 
HETATM    3  H   UNL     1      -9.373   5.502  67.815  1.00  0.00     0.000 HD 
ENDROOT
BRANCH   2   4
HETATM    4  C   UNL     1      -9.689   7.111  66.479  1.00  0.00    -0.133 A  
HETATM    5  C   UNL     1      -8.934   7.750  65.483  1.00  0.00     0.062 A  
HETATM    6  F   UNL     1      -8.080   7.061  64.711  1.00  0.00    -0.118 F  
HETATM    7  C   UNL     1      -9.013   9.124  65.262  1.00  0.00    -0.246 A  
HETATM    8  C   UNL     1      -9.828   9.931  66.062  1.00  0.00    -0.330 A  
HETATM    9  C   UNL     1     -10.617   9.308  67.038  1.00  0.00    -0.263 A  
HETATM   10  C   UNL     1     -10.527   7.924  67.256  1.00  0.00    -0.390 A  
BRANCH   8  11
HETATM   11  C   UNL     1      -9.803  11.399  65.965  1.00  0.00    -0.223 A  
HETATM   12  N   UNL     1     -10.569  12.128  65.179  1.00  0.00    -0.276 NA 
HETATM   13  C   UNL     1     -10.379  13.479  65.449  1.00  0.00    -0.319 A  
HETATM   14  C   UNL     1     -11.034  14.558  64.814  1.00  0.00    -0.404 A  
HETATM   15  C   UNL     1     -10.768  15.872  65.227  1.00  0.00    -0.442 A  
HETATM   16  C   UNL     1      -9.863  16.106  66.251  1.00  0.00    -0.307 A  
HETATM   17  O   UNL     1      -9.588  17.373  66.685  1.00  0.00    -0.254 OA 
HETATM   18  C   UNL     1      -9.187  15.067  66.881  1.00  0.00    -0.265 A  
HETATM   19  C   UNL     1      -9.464  13.760  66.460  1.00  0.00    -0.269 A  
HETATM   20  H   UNL     1      -8.967  17.534  67.387  1.00  0.00     0.000 HD 
HETATM   21  S   UNL     1      -8.803  12.295  67.046  1.00  0.00    -0.208 SA 
ENDBRANCH   8  11
ENDBRANCH   2   4
TORSDOF 2
ENDMDL
MODEL      111
REMARK 921   NORMALIZED FREE ENERGY PREDICTED BY IDOCK:   -4.08 KCAL/MOL
REMARK 922        TOTAL FREE ENERGY PREDICTED BY IDOCK:   -4.76 KCAL/MOL
REMARK 923 INTER-LIGAND FREE ENERGY PREDICTED BY IDOCK:   -4.54 KCAL/MOL
REMARK 924 INTRA-LIGAND FREE ENERGY PREDICTED BY IDOCK:   -0.22 KCAL/MOL
REMARK 927      BINDING AFFINITY PREDICTED BY RF-SCORE:    0.00 PKD
ROOT
HETATM    1  C   UNL     1      -9.686   2.195  64.471  1.00  0.00    -0.022 C  
HETATM    2  N   UNL     1      -9.247   2.345  65.849  1.00  0.00    -0.307 NA 
HETATM    3  H   UNL     1      -8.908   1.541  66.378  1.00  0.00     0.000 HD 
ENDROOT
BRANCH   2   4
HETATM    4  C   UNL     1      -9.299   3.619  66.436  1.00  0.00    -0.182 A  
HETATM    5  C   UNL     1      -9.636   3.870  67.775  1.00  0.00    -0.145 A  
HETATM    6  F   UNL     1      -9.826   2.864  68.642  1.00  0.00    -0.208 F  
HETATM    7  C   UNL     1      -9.812   5.163  68.265  1.00  0.00    -0.212 A  
HETATM    8  C   UNL     1      -9.699   6.269  67.417  1.00  0.00    -0.137 A  
HETATM    9  C   UNL     1      -9.328   6.044  66.085  1.00  0.00    -0.140 A  
HETATM   10  C   UNL     1      -9.157   4.738  65.601  1.00  0.00    -0.145 A  
BRANCH   8  11
HETATM   11  C   UNL     1     -10.045   7.628  67.862  1.00  0.00    -0.185 A  
HETATM   12  N   UNL     1     -10.327   8.645  67.073  1.00  0.00    -0.293 NA 
HETATM   13  C   UNL     1     -10.746   9.734  67.829  1.00  0.00    -0.272 A  
HETATM   14  C   UNL     1     -11.143  10.995  67.332  1.00  0.00    -0.370 A  
HETATM   15  C   UNL     1     -11.585  11.985  68.220  1.00  0.00    -0.394 A  
HETATM   16  C   UNL     1     -11.627  11.726  69.582  1.00  0.00    -0.323 A  
HETATM   17  O   UNL     1     -12.063  12.664  70.476  1.00  0.00    -0.435 OA 
HETATM   18  C   UNL     1     -11.225  10.501  70.105  1.00  0.00    -0.389 A  
HETATM   19  C   UNL     1     -10.787   9.521  69.205  1.00  0.00    -0.173 A  
HETATM   20  H   UNL     1     -12.091  12.486  71.409  1.00  0.00     0.000 HD 
HETATM   21  S   UNL     1     -10.245   7.934  69.547  1.00  0.00    -0.212 SA 
ENDBRANCH   8  11
ENDBRANCH   2   4
TORSDOF 2
ENDMDL
MODEL      112
REMARK 921   NORMALIZED FREE ENERGY PREDICTED BY IDOCK:   -3.97 KCAL/MOL
REMARK 922        TOTAL FREE ENERGY PREDICTED BY IDOCK:   -4.64 KCAL/MOL
REMARK 923 INTER-LIGAND FREE ENERGY PREDICTED BY IDOCK:   -4.42 KCAL/MOL
REMARK 924 INTRA-LIGAND FREE ENERGY PREDICTED BY IDOCK:   -0.22 KCAL/MOL
REMARK 927      BINDING AFFINITY PREDICTED BY RF-SCORE:    0.00 PKD
ROOT
HETATM    1  C   UNL     1      -9.657   3.941  67.941  1.00  0.00    -0.136 C  
HETATM    2  N   UNL     1     -10.185   4.515  69.168  1.00  0.00    -0.015 NA 
HETATM    3  H   UNL     1     -10.592   3.918  69.889  1.00  0.00     0.000 HD 
ENDROOT
BRANCH   2   4
HETATM    4  C   UNL     1     -10.123   5.907  69.340  1.00  0.00    -0.202 A  
HETATM    5  C   UNL     1     -10.707   6.607  70.406  1.00  0.00    -0.250 A  
HETATM    6  F   UNL     1     -11.288   5.959  71.427  1.00  0.00    -0.328 F  
HETATM    7  C   UNL     1     -10.737   8.001  70.448  1.00  0.00    -0.233 A  
HETATM    8  C   UNL     1     -10.215   8.758  69.395  1.00  0.00    -0.210 A  
HETATM    9  C   UNL     1      -9.595   8.079  68.339  1.00  0.00    -0.157 A  
HETATM   10  C   UNL     1      -9.573   6.676  68.303  1.00  0.00    -0.125 A  
BRANCH   8  11
HETATM   11  C   UNL     1     -10.383  10.219  69.331  1.00  0.00    -0.235 A  
HETATM   12  N   UNL     1      -9.589  11.054  68.691  1.00  0.00    -0.190 NA 
HETATM   13  C   UNL     1     -10.125  12.337  68.721  1.00  0.00    -0.068 A  
HETATM   14  C   UNL     1      -9.563  13.492  68.133  1.00  0.00    -0.215 A  
HETATM   15  C   UNL     1     -10.246  14.714  68.210  1.00  0.00    -0.227 A  
HETATM   16  C   UNL     1     -11.466  14.786  68.865  1.00  0.00    -0.297 A  
HETATM   17  O   UNL     1     -12.164  15.959  68.950  1.00  0.00    -0.532 OA 
HETATM   18  C   UNL     1     -12.036  13.672  69.471  1.00  0.00    -0.397 A  
HETATM   19  C   UNL     1     -11.343  12.457  69.385  1.00  0.00    -0.220 A  
HETATM   20  H   UNL     1     -13.000  16.008  69.400  1.00  0.00     0.000 HD 
HETATM   21  S   UNL     1     -11.794  10.932  70.017  1.00  0.00    -0.378 SA 
ENDBRANCH   8  11
ENDBRANCH   2   4
TORSDOF 2
ENDMDL
MODEL      113
REMARK 921   NORMALIZED FREE ENERGY PREDICTED BY IDOCK:   -3.97 KCAL/MOL
REMARK 922        TOTAL FREE ENERGY PREDICTED BY IDOCK:   -4.64 KCAL/MOL
REMARK 923 INTER-LIGAND FREE ENERGY PREDICTED BY IDOCK:   -4.54 KCAL/MOL
REMARK 924 INTRA-LIGAND FREE ENERGY PREDICTED BY IDOCK:   -0.09 KCAL/MOL
REMARK 927      BINDING AFFINITY PREDICTED BY RF-SCORE:    0.00 PKD
ROOT
HETATM    1  C   UNL     1     -12.255  15.897  63.836  1.00  0.00     0.594 C  
HETATM    2  N   UNL     1     -12.327  14.485  63.496  1.00  0.00    -1.090 NA 
HETATM    3  H   UNL     1     -12.680  14.185  62.588  1.00  0.00     0.000 HD 
ENDROOT
BRANCH   2   4
HETATM    4  C   UNL     1     -11.899  13.543  64.446  1.00  0.00    -0.414 A  
HETATM    5  C   UNL     1     -12.309  13.519  65.788  1.00  0.00    -0.468 A  
HETATM    6  F   UNL     1     -13.257  14.355  66.239  1.00  0.00    -0.186 F  
HETATM    7  C   UNL     1     -11.742  12.651  66.720  1.00  0.00    -0.460 A  
HETATM    8  C   UNL     1     -10.701  11.791  66.354  1.00  0.00    -0.306 A  
HETATM    9  C   UNL     1     -10.302  11.774  65.011  1.00  0.00    -0.325 A  
HETATM   10  C   UNL     1     -10.876  12.655  64.082  1.00  0.00    -0.431 A  
BRANCH   8  11
HETATM   11  C   UNL     1      -9.970  10.989  67.347  1.00  0.00    -0.182 A  
HETATM   12  N   UNL     1      -8.821  11.319  67.903  1.00  0.00    -0.138 NA 
HETATM   13  C   UNL     1      -8.493  10.405  68.897  1.00  0.00    -0.144 A  
HETATM   14  C   UNL     1      -7.343  10.436  69.717  1.00  0.00    -0.157 A  
HETATM   15  C   UNL     1      -7.170   9.464  70.711  1.00  0.00    -0.123 A  
HETATM   16  C   UNL     1      -8.125   8.472  70.884  1.00  0.00    -0.127 A  
HETATM   17  O   UNL     1      -7.994   7.514  71.851  1.00  0.00    -0.090 OA 
HETATM   18  C   UNL     1      -9.258   8.402  70.081  1.00  0.00    -0.159 A  
HETATM   19  C   UNL     1      -9.418   9.382  69.092  1.00  0.00    -0.163 A  
HETATM   20  H   UNL     1      -8.648   6.835  71.969  1.00  0.00     0.000 HD 
HETATM   21  S   UNL     1     -10.699   9.557  67.971  1.00  0.00    -0.173 SA 
ENDBRANCH   8  11
ENDBRANCH   2   4
TORSDOF 2
ENDMDL
MODEL      114
REMARK 921   NORMALIZED FREE ENERGY PREDICTED BY IDOCK:   -3.97 KCAL/MOL
REMARK 922        TOTAL FREE ENERGY PREDICTED BY IDOCK:   -4.64 KCAL/MOL
REMARK 923 INTER-LIGAND FREE ENERGY PREDICTED BY IDOCK:   -4.46 KCAL/MOL
REMARK 924 INTRA-LIGAND FREE ENERGY PREDICTED BY IDOCK:   -0.18 KCAL/MOL
REMARK 927      BINDING AFFINITY PREDICTED BY RF-SCORE:    0.00 PKD
ROOT
HETATM    1  C   UNL     1     -12.436  15.703  64.323  1.00  0.00     0.225 C  
HETATM    2  N   UNL     1     -10.995  15.515  64.367  1.00  0.00    -0.726 NA 
HETATM    3  H   UNL     1     -10.364  16.249  64.046  1.00  0.00     0.000 HD 
ENDROOT
BRANCH   2   4
HETATM    4  C   UNL     1     -10.491  14.302  64.862  1.00  0.00    -0.430 A  
HETATM    5  C   UNL     1     -10.797  13.036  64.338  1.00  0.00    -0.388 A  
HETATM    6  F   UNL     1     -11.529  12.906  63.221  1.00  0.00    -0.517 F  
HETATM    7  C   UNL     1     -10.383  11.858  64.959  1.00  0.00    -0.330 A  
HETATM    8  C   UNL     1      -9.674  11.897  66.163  1.00  0.00    -0.251 A  
HETATM    9  C   UNL     1      -9.326  13.150  66.684  1.00  0.00    -0.242 A  
HETATM   10  C   UNL     1      -9.751  14.330  66.054  1.00  0.00    -0.312 A  
BRANCH   8  11
HETATM   11  C   UNL     1      -9.372  10.676  66.926  1.00  0.00    -0.159 A  
HETATM   12  N   UNL     1      -9.046  10.631  68.203  1.00  0.00    -0.143 NA 
HETATM   13  C   UNL     1      -8.971   9.309  68.629  1.00  0.00    -0.132 A  
HETATM   14  C   UNL     1      -8.659   8.868  69.934  1.00  0.00    -0.137 A  
HETATM   15  C   UNL     1      -8.665   7.496  70.224  1.00  0.00    -0.145 A  
HETATM   16  C   UNL     1      -8.973   6.579  69.230  1.00  0.00    -0.131 A  
HETATM   17  O   UNL     1      -8.999   5.235  69.481  1.00  0.00    -0.102 OA 
HETATM   18  C   UNL     1      -9.265   6.980  67.931  1.00  0.00    -0.125 A  
HETATM   19  C   UNL     1      -9.257   8.354  67.656  1.00  0.00    -0.134 A  
HETATM   20  H   UNL     1      -9.209   4.607  68.799  1.00  0.00     0.000 HD 
HETATM   21  S   UNL     1      -9.581   9.140  66.172  1.00  0.00    -0.278 SA 
ENDBRANCH   8  11
ENDBRANCH   2   4
TORSDOF 2
ENDMDL
MODEL      115
REMARK 921   NORMALIZED FREE ENERGY PREDICTED BY IDOCK:   -3.96 KCAL/MOL
REMARK 922        TOTAL FREE ENERGY PREDICTED BY IDOCK:   -4.63 KCAL/MOL
REMARK 923 INTER-LIGAND FREE ENERGY PREDICTED BY IDOCK:   -4.42 KCAL/MOL
REMARK 924 INTRA-LIGAND FREE ENERGY PREDICTED BY IDOCK:   -0.20 KCAL/MOL
REMARK 927      BINDING AFFINITY PREDICTED BY RF-SCORE:    0.00 PKD
ROOT
HETATM    1  C   UNL     1      -7.764   3.802  72.563  1.00  0.00    -0.068 C  
HETATM    2  N   UNL     1      -7.937   4.332  71.220  1.00  0.00    -0.075 NA 
HETATM    3  H   UNL     1      -7.503   3.874  70.419  1.00  0.00     0.000 HD 
ENDROOT
BRANCH   2   4
HETATM    4  C   UNL     1      -8.715   5.488  71.050  1.00  0.00    -0.129 A  
HETATM    5  C   UNL     1      -9.907   5.548  70.311  1.00  0.00    -0.198 A  
HETATM    6  F   UNL     1     -10.459   4.440  69.794  1.00  0.00    -0.223 F  
HETATM    7  C   UNL     1     -10.560   6.753  70.056  1.00  0.00    -0.256 A  
HETATM    8  C   UNL     1     -10.021   7.965  70.498  1.00  0.00    -0.191 A  
HETATM    9  C   UNL     1      -8.852   7.925  71.269  1.00  0.00    -0.152 A  
HETATM   10  C   UNL     1      -8.200   6.707  71.517  1.00  0.00    -0.112 A  
BRANCH   8  11
HETATM   11  C   UNL     1     -10.594   9.261  70.101  1.00  0.00    -0.231 A  
HETATM   12  N   UNL     1     -11.342  10.034  70.862  1.00  0.00    -0.346 NA 
HETATM   13  C   UNL     1     -11.587  11.242  70.218  1.00  0.00    -0.275 A  
HETATM   14  C   UNL     1     -12.341  12.323  70.727  1.00  0.00    -0.383 A  
HETATM   15  C   UNL     1     -12.464  13.500  69.976  1.00  0.00    -0.231 A  
HETATM   16  C   UNL     1     -11.852  13.597  68.735  1.00  0.00    -0.360 A  
HETATM   17  O   UNL     1     -11.942  14.733  67.980  1.00  0.00    -0.492 OA 
HETATM   18  C   UNL     1     -11.120  12.544  68.198  1.00  0.00    -0.282 A  
HETATM   19  C   UNL     1     -11.003  11.375  68.961  1.00  0.00    -0.236 A  
HETATM   20  H   UNL     1     -11.522  14.800  67.130  1.00  0.00     0.000 HD 
HETATM   21  S   UNL     1     -10.169   9.933  68.571  1.00  0.00    -0.186 SA 
ENDBRANCH   8  11
ENDBRANCH   2   4
TORSDOF 2
ENDMDL
MODEL      116
REMARK 921   NORMALIZED FREE ENERGY PREDICTED BY IDOCK:   -3.87 KCAL/MOL
REMARK 922        TOTAL FREE ENERGY PREDICTED BY IDOCK:   -4.53 KCAL/MOL
REMARK 923 INTER-LIGAND FREE ENERGY PREDICTED BY IDOCK:   -4.32 KCAL/MOL
REMARK 924 INTRA-LIGAND FREE ENERGY PREDICTED BY IDOCK:   -0.21 KCAL/MOL
REMARK 927      BINDING AFFINITY PREDICTED BY RF-SCORE:    0.00 PKD
ROOT
HETATM    1  C   UNL     1     -10.504  18.987  68.245  1.00  0.00    -0.273 C  
HETATM    2  N   UNL     1      -9.538  18.073  67.658  1.00  0.00    -0.266 NA 
HETATM    3  H   UNL     1      -8.681  18.425  67.230  1.00  0.00     0.000 HD 
ENDROOT
BRANCH   2   4
HETATM    4  C   UNL     1      -9.809  16.696  67.692  1.00  0.00    -0.256 A  
HETATM    5  C   UNL     1      -9.220  15.788  68.585  1.00  0.00    -0.207 A  
HETATM    6  F   UNL     1      -8.415  16.208  69.573  1.00  0.00    -0.240 F  
HETATM    7  C   UNL     1      -9.418  14.411  68.479  1.00  0.00    -0.212 A  
HETATM    8  C   UNL     1     -10.188  13.879  67.441  1.00  0.00    -0.252 A  
HETATM    9  C   UNL     1     -10.814  14.770  66.560  1.00  0.00    -0.319 A  
HETATM   10  C   UNL     1     -10.606  16.154  66.673  1.00  0.00    -0.274 A  
BRANCH   8  11
HETATM   11  C   UNL     1     -10.275  12.429  67.203  1.00  0.00    -0.216 A  
HETATM   12  N   UNL     1      -9.481  11.733  66.414  1.00  0.00    -0.216 NA 
HETATM   13  C   UNL     1      -9.757  10.376  66.538  1.00  0.00    -0.194 A  
HETATM   14  C   UNL     1      -9.104   9.324  65.858  1.00  0.00    -0.246 A  
HETATM   15  C   UNL     1      -9.466   7.995  66.122  1.00  0.00    -0.193 A  
HETATM   16  C   UNL     1     -10.465   7.719  67.043  1.00  0.00    -0.349 A  
HETATM   17  O   UNL     1     -10.836   6.435  67.332  1.00  0.00    -0.291 OA 
HETATM   18  C   UNL     1     -11.141   8.733  67.714  1.00  0.00     0.275 A  
HETATM   19  C   UNL     1     -10.767  10.056  67.442  1.00  0.00    -0.274 A  
HETATM   20  H   UNL     1     -11.521   6.246  67.963  1.00  0.00     0.000 HD 
HETATM   21  S   UNL     1     -11.404  11.496  68.110  1.00  0.00    -0.319 SA 
ENDBRANCH   8  11
ENDBRANCH   2   4
TORSDOF 2
ENDMDL
MODEL      117
REMARK 921   NORMALIZED FREE ENERGY PREDICTED BY IDOCK:   -3.75 KCAL/MOL
REMARK 922        TOTAL FREE ENERGY PREDICTED BY IDOCK:   -4.39 KCAL/MOL
REMARK 923 INTER-LIGAND FREE ENERGY PREDICTED BY IDOCK:   -4.19 KCAL/MOL
REMARK 924 INTRA-LIGAND FREE ENERGY PREDICTED BY IDOCK:   -0.20 KCAL/MOL
REMARK 927      BINDING AFFINITY PREDICTED BY RF-SCORE:    0.00 PKD
ROOT
HETATM    1  C   UNL     1      -7.837   3.749  72.497  1.00  0.00    -0.072 C  
HETATM    2  N   UNL     1      -7.998   3.926  71.063  1.00  0.00    -0.062 NA 
HETATM    3  H   UNL     1      -7.663   3.218  70.410  1.00  0.00     0.000 HD 
ENDROOT
BRANCH   2   4
HETATM    4  C   UNL     1      -8.626   5.092  70.597  1.00  0.00    -0.119 A  
HETATM    5  C   UNL     1      -9.690   5.116  69.683  1.00  0.00    -0.185 A  
HETATM    6  F   UNL     1     -10.272   3.982  69.265  1.00  0.00    -0.163 F  
HETATM    7  C   UNL     1     -10.178   6.307  69.146  1.00  0.00    -0.229 A  
HETATM    8  C   UNL     1      -9.588   7.532  69.473  1.00  0.00    -0.156 A  
HETATM    9  C   UNL     1      -8.549   7.534  70.412  1.00  0.00    -0.143 A  
HETATM   10  C   UNL     1      -8.062   6.329  70.944  1.00  0.00    -0.124 A  
BRANCH   8  11
HETATM   11  C   UNL     1      -9.968   8.782  68.796  1.00  0.00    -0.185 A  
HETATM   12  N   UNL     1      -9.882   9.008  67.500  1.00  0.00    -0.168 NA 
HETATM   13  C   UNL     1     -10.457  10.235  67.191  1.00  0.00    -0.254 A  
HETATM   14  C   UNL     1     -10.562  10.810  65.905  1.00  0.00    -0.216 A  
HETATM   15  C   UNL     1     -11.212  12.042  65.745  1.00  0.00    -0.383 A  
HETATM   16  C   UNL     1     -11.744  12.693  66.848  1.00  0.00    -0.383 A  
HETATM   17  O   UNL     1     -12.394  13.890  66.727  1.00  0.00    -0.422 OA 
HETATM   18  C   UNL     1     -11.640  12.163  68.129  1.00  0.00    -0.397 A  
HETATM   19  C   UNL     1     -10.990  10.931  68.274  1.00  0.00    -0.239 A  
HETATM   20  H   UNL     1     -12.758  14.336  67.483  1.00  0.00     0.000 HD 
HETATM   21  S   UNL     1     -10.718  10.037  69.707  1.00  0.00    -0.289 SA 
ENDBRANCH   8  11
ENDBRANCH   2   4
TORSDOF 2
ENDMDL
MODEL      118
REMARK 921   NORMALIZED FREE ENERGY PREDICTED BY IDOCK:   -3.73 KCAL/MOL
REMARK 922        TOTAL FREE ENERGY PREDICTED BY IDOCK:   -4.37 KCAL/MOL
REMARK 923 INTER-LIGAND FREE ENERGY PREDICTED BY IDOCK:   -4.15 KCAL/MOL
REMARK 924 INTRA-LIGAND FREE ENERGY PREDICTED BY IDOCK:   -0.22 KCAL/MOL
REMARK 927      BINDING AFFINITY PREDICTED BY RF-SCORE:    0.00 PKD
ROOT
HETATM    1  C   UNL     1      -8.843   5.756  65.446  1.00  0.00    -0.085 C  
HETATM    2  N   UNL     1      -8.089   6.978  65.676  1.00  0.00    -0.123 NA 
HETATM    3  H   UNL     1      -7.074   6.991  65.577  1.00  0.00     0.000 HD 
ENDROOT
BRANCH   2   4
HETATM    4  C   UNL     1      -8.790   8.141  66.036  1.00  0.00    -0.172 A  
HETATM    5  C   UNL     1      -9.182   9.147  65.140  1.00  0.00    -0.153 A  
HETATM    6  F   UNL     1      -9.006   9.006  63.818  1.00  0.00    -0.201 F  
HETATM    7  C   UNL     1      -9.747  10.346  65.575  1.00  0.00    -0.307 A  
HETATM    8  C   UNL     1      -9.906  10.607  66.939  1.00  0.00    -0.228 A  
HETATM    9  C   UNL     1      -9.555   9.601  67.848  1.00  0.00    -0.159 A  
HETATM   10  C   UNL     1      -8.983   8.399  67.401  1.00  0.00    -0.143 A  
BRANCH   8  11
HETATM   11  C   UNL     1     -10.339  11.924  67.433  1.00  0.00    -0.207 A  
HETATM   12  N   UNL     1     -11.376  12.147  68.214  1.00  0.00    -0.265 NA 
HETATM   13  C   UNL     1     -11.405  13.482  68.599  1.00  0.00    -0.288 A  
HETATM   14  C   UNL     1     -12.362  14.090  69.442  1.00  0.00    -0.247 A  
HETATM   15  C   UNL     1     -12.233  15.445  69.777  1.00  0.00    -0.336 A  
HETATM   16  C   UNL     1     -11.172  16.185  69.276  1.00  0.00    -0.337 A  
HETATM   17  O   UNL     1     -11.010  17.506  69.590  1.00  0.00    -0.194 OA 
HETATM   18  C   UNL     1     -10.225  15.622  68.427  1.00  0.00    -0.222 A  
HETATM   19  C   UNL     1     -10.365  14.265  68.103  1.00  0.00    -0.233 A  
HETATM   20  H   UNL     1     -10.283  18.012  69.246  1.00  0.00     0.000 HD 
HETATM   21  S   UNL     1      -9.364  13.306  67.102  1.00  0.00    -0.248 SA 
ENDBRANCH   8  11
ENDBRANCH   2   4
TORSDOF 2
ENDMDL
MODEL      119
REMARK 921   NORMALIZED FREE ENERGY PREDICTED BY IDOCK:   -3.72 KCAL/MOL
REMARK 922        TOTAL FREE ENERGY PREDICTED BY IDOCK:   -4.36 KCAL/MOL
REMARK 923 INTER-LIGAND FREE ENERGY PREDICTED BY IDOCK:   -4.15 KCAL/MOL
REMARK 924 INTRA-LIGAND FREE ENERGY PREDICTED BY IDOCK:   -0.21 KCAL/MOL
REMARK 927      BINDING AFFINITY PREDICTED BY RF-SCORE:    0.00 PKD
ROOT
HETATM    1  C   UNL     1      -7.157   3.355  68.590  1.00  0.00    -0.050 C  
HETATM    2  N   UNL     1      -7.296   3.930  67.262  1.00  0.00    -0.067 NA 
HETATM    3  H   UNL     1      -6.996   3.413  66.436  1.00  0.00     0.000 HD 
ENDROOT
BRANCH   2   4
HETATM    4  C   UNL     1      -7.854   5.213  67.142  1.00  0.00    -0.096 A  
HETATM    5  C   UNL     1      -9.213   5.513  67.319  1.00  0.00    -0.110 A  
HETATM    6  F   UNL     1     -10.081   4.581  67.741  1.00  0.00    -0.202 F  
HETATM    7  C   UNL     1      -9.734   6.778  67.046  1.00  0.00    -0.200 A  
HETATM    8  C   UNL     1      -8.915   7.792  66.539  1.00  0.00    -0.191 A  
HETATM    9  C   UNL     1      -7.549   7.524  66.389  1.00  0.00    -0.088 A  
HETATM   10  C   UNL     1      -7.035   6.247  66.663  1.00  0.00    -0.067 A  
BRANCH   8  11
HETATM   11  C   UNL     1      -9.466   9.078  66.082  1.00  0.00    -0.253 A  
HETATM   12  N   UNL     1      -9.755   9.388  64.833  1.00  0.00    -0.016 NA 
HETATM   13  C   UNL     1     -10.387  10.625  64.784  1.00  0.00    -0.283 A  
HETATM   14  C   UNL     1     -10.854  11.280  63.622  1.00  0.00    -0.410 A  
HETATM   15  C   UNL     1     -11.515  12.511  63.736  1.00  0.00    -0.542 A  
HETATM   16  C   UNL     1     -11.703  13.083  64.985  1.00  0.00    -0.339 A  
HETATM   17  O   UNL     1     -12.352  14.277  65.134  1.00  0.00    -0.414 OA 
HETATM   18  C   UNL     1     -11.238  12.474  66.145  1.00  0.00    -0.362 A  
HETATM   19  C   UNL     1     -10.581  11.243  66.017  1.00  0.00    -0.258 A  
HETATM   20  H   UNL     1     -12.481  14.669  65.990  1.00  0.00     0.000 HD 
HETATM   21  S   UNL     1      -9.915  10.262  67.250  1.00  0.00    -0.199 SA 
ENDBRANCH   8  11
ENDBRANCH   2   4
TORSDOF 2
ENDMDL
MODEL      120
REMARK 921   NORMALIZED FREE ENERGY PREDICTED BY IDOCK:   -3.69 KCAL/MOL
REMARK 922        TOTAL FREE ENERGY PREDICTED BY IDOCK:   -4.33 KCAL/MOL
REMARK 923 INTER-LIGAND FREE ENERGY PREDICTED BY IDOCK:   -4.15 KCAL/MOL
REMARK 924 INTRA-LIGAND FREE ENERGY PREDICTED BY IDOCK:   -0.18 KCAL/MOL
REMARK 927      BINDING AFFINITY PREDICTED BY RF-SCORE:    0.00 PKD
ROOT
HETATM    1  C   UNL     1      -7.447  17.328  67.207  1.00  0.00    -0.176 C  
HETATM    2  N   UNL     1      -8.205  16.851  68.353  1.00  0.00    -0.223 NA 
HETATM    3  H   UNL     1      -8.563  17.504  69.049  1.00  0.00     0.000 HD 
ENDROOT
BRANCH   2   4
HETATM    4  C   UNL     1      -8.432  15.471  68.480  1.00  0.00    -0.163 A  
HETATM    5  C   UNL     1      -7.424  14.502  68.599  1.00  0.00    -0.128 A  
HETATM    6  F   UNL     1      -6.135  14.854  68.717  1.00  0.00    -0.081 F  
HETATM    7  C   UNL     1      -7.703  13.136  68.577  1.00  0.00    -0.117 A  
HETATM    8  C   UNL     1      -9.011  12.678  68.391  1.00  0.00    -0.125 A  
HETATM    9  C   UNL     1     -10.037  13.628  68.306  1.00  0.00    -0.240 A  
HETATM   10  C   UNL     1      -9.745  15.001  68.326  1.00  0.00    -0.215 A  
BRANCH   8  11
HETATM   11  C   UNL     1      -9.313  11.252  68.193  1.00  0.00    -0.181 A  
HETATM   12  N   UNL     1      -9.700  10.412  69.133  1.00  0.00    -0.212 NA 
HETATM   13  C   UNL     1     -10.034   9.187  68.568  1.00  0.00    -0.174 A  
HETATM   14  C   UNL     1     -10.500   8.046  69.260  1.00  0.00    -0.221 A  
HETATM   15  C   UNL     1     -10.840   6.890  68.545  1.00  0.00    -0.234 A  
HETATM   16  C   UNL     1     -10.712   6.866  67.164  1.00  0.00    -0.366 A  
HETATM   17  O   UNL     1     -11.045   5.759  66.434  1.00  0.00    -0.717 OA 
HETATM   18  C   UNL     1     -10.238   7.965  66.456  1.00  0.00    -0.212 A  
HETATM   19  C   UNL     1      -9.904   9.115  67.184  1.00  0.00    -0.195 A  
HETATM   20  H   UNL     1     -10.957   5.743  65.488  1.00  0.00     0.000 HD 
HETATM   21  S   UNL     1      -9.309  10.607  66.595  1.00  0.00    -0.168 SA 
ENDBRANCH   8  11
ENDBRANCH   2   4
TORSDOF 2
ENDMDL
MODEL      121
REMARK 921   NORMALIZED FREE ENERGY PREDICTED BY IDOCK:   -3.67 KCAL/MOL
REMARK 922        TOTAL FREE ENERGY PREDICTED BY IDOCK:   -4.30 KCAL/MOL
REMARK 923 INTER-LIGAND FREE ENERGY PREDICTED BY IDOCK:   -4.08 KCAL/MOL
REMARK 924 INTRA-LIGAND FREE ENERGY PREDICTED BY IDOCK:   -0.23 KCAL/MOL
REMARK 927      BINDING AFFINITY PREDICTED BY RF-SCORE:    0.00 PKD
ROOT
HETATM    1  C   UNL     1      -8.492   3.880  66.924  1.00  0.00    -0.104 C  
HETATM    2  N   UNL     1      -7.388   4.791  67.183  1.00  0.00    -0.077 NA 
HETATM    3  H   UNL     1      -6.464   4.433  67.425  1.00  0.00     0.000 HD 
ENDROOT
BRANCH   2   4
HETATM    4  C   UNL     1      -7.621   6.172  67.092  1.00  0.00    -0.092 A  
HETATM    5  C   UNL     1      -7.987   6.993  68.169  1.00  0.00    -0.119 A  
HETATM    6  F   UNL     1      -8.030   6.516  69.422  1.00  0.00    -0.104 F  
HETATM    7  C   UNL     1      -8.347   8.329  67.993  1.00  0.00    -0.129 A  
HETATM    8  C   UNL     1      -8.395   8.893  66.714  1.00  0.00    -0.111 A  
HETATM    9  C   UNL     1      -7.998   8.101  65.629  1.00  0.00    -0.108 A  
HETATM   10  C   UNL     1      -7.642   6.756  65.816  1.00  0.00    -0.088 A  
BRANCH   8  11
HETATM   11  C   UNL     1      -8.932  10.243  66.480  1.00  0.00    -0.144 A  
HETATM   12  N   UNL     1      -8.579  11.332  67.134  1.00  0.00    -0.142 NA 
HETATM   13  C   UNL     1      -9.177  12.447  66.559  1.00  0.00    -0.215 A  
HETATM   14  C   UNL     1      -9.027  13.787  66.979  1.00  0.00    -0.247 A  
HETATM   15  C   UNL     1      -9.662  14.815  66.268  1.00  0.00    -0.326 A  
HETATM   16  C   UNL     1     -10.439  14.512  65.160  1.00  0.00    -0.416 A  
HETATM   17  O   UNL     1     -11.065  15.490  64.437  1.00  0.00    -0.700 OA 
HETATM   18  C   UNL     1     -10.624  13.202  64.733  1.00  0.00    -0.390 A  
HETATM   19  C   UNL     1      -9.981  12.186  65.452  1.00  0.00    -0.246 A  
HETATM   20  H   UNL     1     -11.598  15.283  63.678  1.00  0.00     0.000 HD 
HETATM   21  S   UNL     1     -10.013  10.499  65.163  1.00  0.00    -0.316 SA 
ENDBRANCH   8  11
ENDBRANCH   2   4
TORSDOF 2
ENDMDL
MODEL      122
REMARK 921   NORMALIZED FREE ENERGY PREDICTED BY IDOCK:   -3.67 KCAL/MOL
REMARK 922        TOTAL FREE ENERGY PREDICTED BY IDOCK:   -4.30 KCAL/MOL
REMARK 923 INTER-LIGAND FREE ENERGY PREDICTED BY IDOCK:   -4.08 KCAL/MOL
REMARK 924 INTRA-LIGAND FREE ENERGY PREDICTED BY IDOCK:   -0.22 KCAL/MOL
REMARK 927      BINDING AFFINITY PREDICTED BY RF-SCORE:    0.00 PKD
ROOT
HETATM    1  C   UNL     1      -8.148   3.130  64.546  1.00  0.00    -0.082 C  
HETATM    2  N   UNL     1      -7.588   3.820  65.697  1.00  0.00    -0.081 NA 
HETATM    3  H   UNL     1      -6.894   3.365  66.290  1.00  0.00     0.000 HD 
ENDROOT
BRANCH   2   4
HETATM    4  C   UNL     1      -8.022   5.126  65.973  1.00  0.00    -0.107 A  
HETATM    5  C   UNL     1      -8.631   5.530  67.172  1.00  0.00    -0.109 A  
HETATM    6  F   UNL     1      -8.740   4.689  68.212  1.00  0.00    -0.099 F  
HETATM    7  C   UNL     1      -9.172   6.804  67.335  1.00  0.00    -0.130 A  
HETATM    8  C   UNL     1      -9.162   7.724  66.282  1.00  0.00    -0.217 A  
HETATM    9  C   UNL     1      -8.527   7.355  65.089  1.00  0.00    -0.033 A  
HETATM   10  C   UNL     1      -7.989   6.068  64.933  1.00  0.00    -0.126 A  
BRANCH   8  11
HETATM   11  C   UNL     1      -9.873   9.010  66.367  1.00  0.00    -0.286 A  
HETATM   12  N   UNL     1     -10.419   9.513  67.456  1.00  0.00    -0.259 NA 
HETATM   13  C   UNL     1     -10.878  10.801  67.207  1.00  0.00    -0.288 A  
HETATM   14  C   UNL     1     -11.510  11.659  68.135  1.00  0.00    -0.382 A  
HETATM   15  C   UNL     1     -11.879  12.954  67.746  1.00  0.00    -0.391 A  
HETATM   16  C   UNL     1     -11.628  13.387  66.453  1.00  0.00    -0.346 A  
HETATM   17  O   UNL     1     -11.965  14.647  66.043  1.00  0.00    -0.337 OA 
HETATM   18  C   UNL     1     -11.026  12.561  65.510  1.00  0.00    -0.322 A  
HETATM   19  C   UNL     1     -10.661  11.270  65.913  1.00  0.00    -0.253 A  
HETATM   20  H   UNL     1     -11.793  14.944  65.157  1.00  0.00     0.000 HD 
HETATM   21  S   UNL     1      -9.904  10.045  64.989  1.00  0.00    -0.231 SA 
ENDBRANCH   8  11
ENDBRANCH   2   4
TORSDOF 2
ENDMDL
MODEL      123
REMARK 921   NORMALIZED FREE ENERGY PREDICTED BY IDOCK:   -3.64 KCAL/MOL
REMARK 922        TOTAL FREE ENERGY PREDICTED BY IDOCK:   -4.27 KCAL/MOL
REMARK 923 INTER-LIGAND FREE ENERGY PREDICTED BY IDOCK:   -4.07 KCAL/MOL
REMARK 924 INTRA-LIGAND FREE ENERGY PREDICTED BY IDOCK:   -0.21 KCAL/MOL
REMARK 927      BINDING AFFINITY PREDICTED BY RF-SCORE:    0.00 PKD
ROOT
HETATM    1  C   UNL     1     -12.195  15.800  70.356  1.00  0.00    -0.356 C  
HETATM    2  N   UNL     1     -11.713  14.480  70.732  1.00  0.00    -0.416 NA 
HETATM    3  H   UNL     1     -11.636  14.214  71.714  1.00  0.00     0.000 HD 
ENDROOT
BRANCH   2   4
HETATM    4  C   UNL     1     -11.357  13.580  69.715  1.00  0.00    -0.091 A  
HETATM    5  C   UNL     1     -11.684  12.216  69.705  1.00  0.00    -0.310 A  
HETATM    6  F   UNL     1     -12.482  11.687  70.645  1.00  0.00    -0.388 F  
HETATM    7  C   UNL     1     -11.181  11.341  68.742  1.00  0.00    -0.311 A  
HETATM    8  C   UNL     1     -10.289  11.792  67.765  1.00  0.00    -0.211 A  
HETATM    9  C   UNL     1      -9.979  13.157  67.734  1.00  0.00    -0.227 A  
HETATM   10  C   UNL     1     -10.487  14.029  68.710  1.00  0.00    -0.238 A  
BRANCH   8  11
HETATM   11  C   UNL     1      -9.612  10.865  66.844  1.00  0.00    -0.178 A  
HETATM   12  N   UNL     1      -9.071   9.711  67.180  1.00  0.00    -0.134 NA 
HETATM   13  C   UNL     1      -8.648   9.034  66.041  1.00  0.00    -0.142 A  
HETATM   14  C   UNL     1      -8.031   7.763  66.004  1.00  0.00    -0.108 A  
HETATM   15  C   UNL     1      -7.700   7.187  64.770  1.00  0.00    -0.115 A  
HETATM   16  C   UNL     1      -7.973   7.868  63.592  1.00  0.00    -0.118 A  
HETATM   17  O   UNL     1      -7.672   7.331  62.371  1.00  0.00    -0.102 OA 
HETATM   18  C   UNL     1      -8.560   9.128  63.596  1.00  0.00    -0.180 A  
HETATM   19  C   UNL     1      -8.888   9.690  64.837  1.00  0.00    -0.199 A  
HETATM   20  H   UNL     1      -7.859   7.797  61.564  1.00  0.00     0.000 HD 
HETATM   21  S   UNL     1      -9.619  11.204  65.155  1.00  0.00    -0.242 SA 
ENDBRANCH   8  11
ENDBRANCH   2   4
TORSDOF 2
ENDMDL
MODEL      124
REMARK 921   NORMALIZED FREE ENERGY PREDICTED BY IDOCK:   -3.64 KCAL/MOL
REMARK 922        TOTAL FREE ENERGY PREDICTED BY IDOCK:   -4.27 KCAL/MOL
REMARK 923 INTER-LIGAND FREE ENERGY PREDICTED BY IDOCK:   -4.14 KCAL/MOL
REMARK 924 INTRA-LIGAND FREE ENERGY PREDICTED BY IDOCK:   -0.12 KCAL/MOL
REMARK 927      BINDING AFFINITY PREDICTED BY RF-SCORE:    0.00 PKD
ROOT
HETATM    1  C   UNL     1      -5.809   9.295  69.386  1.00  0.00    -0.034 C  
HETATM    2  N   UNL     1      -7.069   9.968  69.658  1.00  0.00    -0.088 NA 
HETATM    3  H   UNL     1      -7.798   9.507  70.203  1.00  0.00     0.000 HD 
ENDROOT
BRANCH   2   4
HETATM    4  C   UNL     1      -7.259  11.266  69.157  1.00  0.00    -0.115 A  
HETATM    5  C   UNL     1      -6.432  12.362  69.444  1.00  0.00    -0.103 A  
HETATM    6  F   UNL     1      -5.301  12.212  70.149  1.00  0.00    -0.073 F  
HETATM    7  C   UNL     1      -6.751  13.657  69.035  1.00  0.00    -0.111 A  
HETATM    8  C   UNL     1      -7.943  13.917  68.353  1.00  0.00    -0.144 A  
HETATM    9  C   UNL     1      -8.766  12.831  68.025  1.00  0.00    -0.194 A  
HETATM   10  C   UNL     1      -8.438  11.532  68.444  1.00  0.00    -0.159 A  
BRANCH   8  11
HETATM   11  C   UNL     1      -8.388  15.289  68.060  1.00  0.00    -0.146 A  
HETATM   12  N   UNL     1      -7.991  16.374  68.694  1.00  0.00    -0.207 NA 
HETATM   13  C   UNL     1      -8.499  17.505  68.065  1.00  0.00    -0.242 A  
HETATM   14  C   UNL     1      -8.281  18.847  68.450  1.00  0.00    -0.377 A  
HETATM   15  C   UNL     1      -8.827  19.888  67.687  1.00  0.00    -0.406 A  
HETATM   16  C   UNL     1      -9.583  19.598  66.561  1.00  0.00    -0.389 A  
HETATM   17  O   UNL     1     -10.122  20.589  65.788  1.00  0.00    -0.549 OA 
HETATM   18  C   UNL     1      -9.833  18.289  66.166  1.00  0.00    -0.264 A  
HETATM   19  C   UNL     1      -9.279  17.258  66.938  1.00  0.00    -0.254 A  
HETATM   20  H   UNL     1     -10.640  20.390  65.016  1.00  0.00     0.000 HD 
HETATM   21  S   UNL     1      -9.406  15.569  66.698  1.00  0.00    -0.289 SA 
ENDBRANCH   8  11
ENDBRANCH   2   4
TORSDOF 2
ENDMDL
MODEL      125
REMARK 921   NORMALIZED FREE ENERGY PREDICTED BY IDOCK:   -3.59 KCAL/MOL
REMARK 922        TOTAL FREE ENERGY PREDICTED BY IDOCK:   -4.22 KCAL/MOL
REMARK 923 INTER-LIGAND FREE ENERGY PREDICTED BY IDOCK:   -4.00 KCAL/MOL
REMARK 924 INTRA-LIGAND FREE ENERGY PREDICTED BY IDOCK:   -0.22 KCAL/MOL
REMARK 927      BINDING AFFINITY PREDICTED BY RF-SCORE:    0.00 PKD
ROOT
HETATM    1  C   UNL     1      -7.570   4.323  69.843  1.00  0.00    -0.053 C  
HETATM    2  N   UNL     1      -8.326   4.585  68.629  1.00  0.00    -0.084 NA 
HETATM    3  H   UNL     1      -8.419   3.870  67.908  1.00  0.00     0.000 HD 
ENDROOT
BRANCH   2   4
HETATM    4  C   UNL     1      -8.926   5.845  68.471  1.00  0.00    -0.113 A  
HETATM    5  C   UNL     1      -9.593   6.273  67.312  1.00  0.00    -0.123 A  
HETATM    6  F   UNL     1      -9.806   5.436  66.286  1.00  0.00    -0.155 F  
HETATM    7  C   UNL     1     -10.042   7.584  67.159  1.00  0.00    -0.317 A  
HETATM    8  C   UNL     1      -9.804   8.541  68.150  1.00  0.00    -0.192 A  
HETATM    9  C   UNL     1      -9.173   8.126  69.329  1.00  0.00    -0.151 A  
HETATM   10  C   UNL     1      -8.720   6.805  69.473  1.00  0.00    -0.133 A  
BRANCH   8  11
HETATM   11  C   UNL     1     -10.114   9.965  67.945  1.00  0.00    -0.173 A  
HETATM   12  N   UNL     1     -10.386  10.531  66.786  1.00  0.00    -0.237 NA 
HETATM   13  C   UNL     1     -10.769  11.853  66.980  1.00  0.00    -0.240 A  
HETATM   14  C   UNL     1     -11.145  12.771  65.974  1.00  0.00    -0.315 A  
HETATM   15  C   UNL     1     -11.551  14.065  66.330  1.00  0.00    -0.381 A  
HETATM   16  C   UNL     1     -11.578  14.440  67.665  1.00  0.00    -0.370 A  
HETATM   17  O   UNL     1     -11.979  15.690  68.049  1.00  0.00    -0.360 OA 
HETATM   18  C   UNL     1     -11.195  13.566  68.677  1.00  0.00    -0.311 A  
HETATM   19  C   UNL     1     -10.793  12.276  68.307  1.00  0.00    -0.225 A  
HETATM   20  H   UNL     1     -11.996  15.947  68.964  1.00  0.00     0.000 HD 
HETATM   21  S   UNL     1     -10.281  10.994  69.317  1.00  0.00    -0.061 SA 
ENDBRANCH   8  11
ENDBRANCH   2   4
TORSDOF 2
ENDMDL
MODEL      126
REMARK 921   NORMALIZED FREE ENERGY PREDICTED BY IDOCK:   -3.59 KCAL/MOL
REMARK 922        TOTAL FREE ENERGY PREDICTED BY IDOCK:   -4.21 KCAL/MOL
REMARK 923 INTER-LIGAND FREE ENERGY PREDICTED BY IDOCK:   -4.00 KCAL/MOL
REMARK 924 INTRA-LIGAND FREE ENERGY PREDICTED BY IDOCK:   -0.20 KCAL/MOL
REMARK 927      BINDING AFFINITY PREDICTED BY RF-SCORE:    0.00 PKD
ROOT
HETATM    1  C   UNL     1      -8.511   7.645  66.181  1.00  0.00    -0.143 C  
HETATM    2  N   UNL     1      -9.623   8.579  66.258  1.00  0.00    -0.290 NA 
HETATM    3  H   UNL     1     -10.548   8.317  65.917  1.00  0.00     0.000 HD 
ENDROOT
BRANCH   2   4
HETATM    4  C   UNL     1      -9.395   9.848  66.813  1.00  0.00    -0.151 A  
HETATM    5  C   UNL     1     -10.343  10.583  67.542  1.00  0.00    -0.223 A  
HETATM    6  F   UNL     1     -11.533  10.054  67.864  1.00  0.00    -0.324 F  
HETATM    7  C   UNL     1     -10.110  11.897  67.945  1.00  0.00    -0.199 A  
HETATM    8  C   UNL     1      -8.925  12.552  67.596  1.00  0.00    -0.185 A  
HETATM    9  C   UNL     1      -7.951  11.825  66.900  1.00  0.00    -0.149 A  
HETATM   10  C   UNL     1      -8.196  10.503  66.496  1.00  0.00    -0.133 A  
BRANCH   8  11
HETATM   11  C   UNL     1      -8.723  13.986  67.858  1.00  0.00    -0.184 A  
HETATM   12  N   UNL     1      -7.737  14.505  68.562  1.00  0.00    -0.122 NA 
HETATM   13  C   UNL     1      -7.776  15.892  68.484  1.00  0.00    -0.147 A  
HETATM   14  C   UNL     1      -6.874  16.790  69.099  1.00  0.00    -0.227 A  
HETATM   15  C   UNL     1      -7.017  18.169  68.892  1.00  0.00    -0.274 A  
HETATM   16  C   UNL     1      -8.043  18.647  68.091  1.00  0.00    -0.294 A  
HETATM   17  O   UNL     1      -8.205  19.985  67.859  1.00  0.00    -0.296 OA 
HETATM   18  C   UNL     1      -8.958  17.791  67.488  1.00  0.00    -0.244 A  
HETATM   19  C   UNL     1      -8.802  16.415  67.702  1.00  0.00    -0.188 A  
HETATM   20  H   UNL     1      -8.908  20.312  67.310  1.00  0.00     0.000 HD 
HETATM   21  S   UNL     1      -9.756  15.133  67.092  1.00  0.00    -0.231 SA 
ENDBRANCH   8  11
ENDBRANCH   2   4
TORSDOF 2
ENDMDL
MODEL      127
REMARK 921   NORMALIZED FREE ENERGY PREDICTED BY IDOCK:   -3.57 KCAL/MOL
REMARK 922        TOTAL FREE ENERGY PREDICTED BY IDOCK:   -4.19 KCAL/MOL
REMARK 923 INTER-LIGAND FREE ENERGY PREDICTED BY IDOCK:   -4.52 KCAL/MOL
REMARK 924 INTRA-LIGAND FREE ENERGY PREDICTED BY IDOCK:    0.33 KCAL/MOL
REMARK 927      BINDING AFFINITY PREDICTED BY RF-SCORE:    0.00 PKD
ROOT
HETATM    1  C   UNL     1      -7.870   1.971  65.059  1.00  0.00    -0.073 C  
HETATM    2  N   UNL     1      -7.330   3.259  65.461  1.00  0.00    -0.074 NA 
HETATM    3  H   UNL     1      -6.541   3.672  64.963  1.00  0.00     0.000 HD 
ENDROOT
BRANCH   2   4
HETATM    4  C   UNL     1      -7.917   3.923  66.550  1.00  0.00    -0.097 A  
HETATM    5  C   UNL     1      -9.027   3.452  67.269  1.00  0.00    -0.150 A  
HETATM    6  F   UNL     1      -9.547   2.240  67.026  1.00  0.00    -0.109 F  
HETATM    7  C   UNL     1      -9.656   4.222  68.246  1.00  0.00    -0.197 A  
HETATM    8  C   UNL     1      -9.223   5.523  68.519  1.00  0.00    -0.133 A  
HETATM    9  C   UNL     1      -8.095   5.999  67.838  1.00  0.00    -0.106 A  
HETATM   10  C   UNL     1      -7.471   5.218  66.853  1.00  0.00    -0.088 A  
BRANCH   8  11
HETATM   11  C   UNL     1      -9.969   6.418  69.419  1.00  0.00    -0.158 A  
HETATM   12  N   UNL     1     -10.166   7.707  69.227  1.00  0.00    -0.205 NA 
HETATM   13  C   UNL     1     -11.029   8.205  70.196  1.00  0.00    -0.223 A  
HETATM   14  C   UNL     1     -11.480   9.540  70.308  1.00  0.00    -0.256 A  
HETATM   15  C   UNL     1     -12.390   9.884  71.318  1.00  0.00    -0.478 A  
HETATM   16  C   UNL     1     -12.839   8.917  72.205  1.00  0.00    -0.409 A  
HETATM   17  O   UNL     1     -13.734   9.216  73.195  1.00  0.00    -0.980 OA 
HETATM   18  C   UNL     1     -12.399   7.600  72.134  1.00  0.00    -0.276 A  
HETATM   19  C   UNL     1     -11.491   7.270  71.118  1.00  0.00    -0.283 A  
HETATM   20  H   UNL     1     -14.041   8.553  73.803  1.00  0.00     0.000 HD 
HETATM   21  S   UNL     1     -10.788   5.748  70.779  1.00  0.00    -0.228 SA 
ENDBRANCH   8  11
ENDBRANCH   2   4
TORSDOF 2
ENDMDL
MODEL      128
REMARK 921   NORMALIZED FREE ENERGY PREDICTED BY IDOCK:   -3.56 KCAL/MOL
REMARK 922        TOTAL FREE ENERGY PREDICTED BY IDOCK:   -4.18 KCAL/MOL
REMARK 923 INTER-LIGAND FREE ENERGY PREDICTED BY IDOCK:   -3.97 KCAL/MOL
REMARK 924 INTRA-LIGAND FREE ENERGY PREDICTED BY IDOCK:   -0.21 KCAL/MOL
REMARK 927      BINDING AFFINITY PREDICTED BY RF-SCORE:    0.00 PKD
ROOT
HETATM    1  C   UNL     1      -6.421   4.013  62.628  1.00  0.00    -0.022 C  
HETATM    2  N   UNL     1      -7.850   4.173  62.847  1.00  0.00    -0.065 NA 
HETATM    3  H   UNL     1      -8.490   4.268  62.059  1.00  0.00     0.000 HD 
ENDROOT
BRANCH   2   4
HETATM    4  C   UNL     1      -8.328   4.193  64.167  1.00  0.00    -0.099 A  
HETATM    5  C   UNL     1      -9.680   4.086  64.529  1.00  0.00    -0.182 A  
HETATM    6  F   UNL     1     -10.626   3.835  63.612  1.00  0.00    -0.203 F  
HETATM    7  C   UNL     1     -10.109   4.257  65.844  1.00  0.00    -0.223 A  
HETATM    8  C   UNL     1      -9.201   4.588  66.855  1.00  0.00    -0.142 A  
HETATM    9  C   UNL     1      -7.843   4.664  66.522  1.00  0.00    -0.099 A  
HETATM   10  C   UNL     1      -7.420   4.494  65.194  1.00  0.00    -0.076 A  
BRANCH   8  11
HETATM   11  C   UNL     1      -9.645   4.941  68.213  1.00  0.00    -0.145 A  
HETATM   12  N   UNL     1     -10.516   5.883  68.513  1.00  0.00    -0.215 NA 
HETATM   13  C   UNL     1     -10.807   5.847  69.873  1.00  0.00    -0.369 A  
HETATM   14  C   UNL     1     -11.704   6.695  70.559  1.00  0.00    -0.453 A  
HETATM   15  C   UNL     1     -11.926   6.508  71.930  1.00  0.00    -0.389 A  
HETATM   16  C   UNL     1     -11.263   5.496  72.608  1.00  0.00    -0.295 A  
HETATM   17  O   UNL     1     -11.465   5.278  73.943  1.00  0.00    -0.379 OA 
HETATM   18  C   UNL     1     -10.359   4.657  71.966  1.00  0.00    -0.234 A  
HETATM   19  C   UNL     1     -10.148   4.855  70.594  1.00  0.00    -0.236 A  
HETATM   20  H   UNL     1     -11.010   4.585  74.407  1.00  0.00     0.000 HD 
HETATM   21  S   UNL     1      -9.115   3.985  69.545  1.00  0.00    -0.142 SA 
ENDBRANCH   8  11
ENDBRANCH   2   4
TORSDOF 2
ENDMDL
MODEL      129
REMARK 921   NORMALIZED FREE ENERGY PREDICTED BY IDOCK:   -3.56 KCAL/MOL
REMARK 922        TOTAL FREE ENERGY PREDICTED BY IDOCK:   -4.17 KCAL/MOL
REMARK 923 INTER-LIGAND FREE ENERGY PREDICTED BY IDOCK:   -3.97 KCAL/MOL
REMARK 924 INTRA-LIGAND FREE ENERGY PREDICTED BY IDOCK:   -0.20 KCAL/MOL
REMARK 927      BINDING AFFINITY PREDICTED BY RF-SCORE:    0.00 PKD
ROOT
HETATM    1  C   UNL     1      -7.412   4.377  68.024  1.00  0.00    -0.069 C  
HETATM    2  N   UNL     1      -6.925   5.647  67.510  1.00  0.00    -0.064 NA 
HETATM    3  H   UNL     1      -6.035   5.702  67.015  1.00  0.00     0.000 HD 
ENDROOT
BRANCH   2   4
HETATM    4  C   UNL     1      -7.708   6.795  67.707  1.00  0.00    -0.111 A  
HETATM    5  C   UNL     1      -7.230   8.009  68.225  1.00  0.00    -0.093 A  
HETATM    6  F   UNL     1      -5.923   8.193  68.467  1.00  0.00    -0.036 F  
HETATM    7  C   UNL     1      -8.082   9.068  68.535  1.00  0.00    -0.107 A  
HETATM    8  C   UNL     1      -9.465   8.942  68.377  1.00  0.00    -0.147 A  
HETATM    9  C   UNL     1      -9.960   7.752  67.828  1.00  0.00    -0.220 A  
HETATM   10  C   UNL     1      -9.095   6.690  67.523  1.00  0.00    -0.116 A  
BRANCH   8  11
HETATM   11  C   UNL     1     -10.399   9.975  68.853  1.00  0.00    -0.202 A  
HETATM   12  N   UNL     1     -11.138   9.896  69.941  1.00  0.00    -0.261 NA 
HETATM   13  C   UNL     1     -11.791  11.104  70.162  1.00  0.00    -0.365 A  
HETATM   14  C   UNL     1     -12.660  11.402  71.235  1.00  0.00    -0.480 A  
HETATM   15  C   UNL     1     -13.211  12.686  71.348  1.00  0.00    -0.217 A  
HETATM   16  C   UNL     1     -12.906  13.656  70.405  1.00  0.00    -0.042 A  
HETATM   17  O   UNL     1     -13.417  14.921  70.490  1.00  0.00    -0.628 OA 
HETATM   18  C   UNL     1     -12.070  13.389  69.326  1.00  0.00    -0.312 A  
HETATM   19  C   UNL     1     -11.525  12.102  69.227  1.00  0.00    -0.302 A  
HETATM   20  H   UNL     1     -13.208  15.586  69.843  1.00  0.00     0.000 HD 
HETATM   21  S   UNL     1     -10.469  11.487  68.030  1.00  0.00    -0.198 SA 
ENDBRANCH   8  11
ENDBRANCH   2   4
TORSDOF 2
ENDMDL
MODEL      130
REMARK 921   NORMALIZED FREE ENERGY PREDICTED BY IDOCK:   -3.49 KCAL/MOL
REMARK 922        TOTAL FREE ENERGY PREDICTED BY IDOCK:   -4.10 KCAL/MOL
REMARK 923 INTER-LIGAND FREE ENERGY PREDICTED BY IDOCK:   -4.09 KCAL/MOL
REMARK 924 INTRA-LIGAND FREE ENERGY PREDICTED BY IDOCK:   -0.01 KCAL/MOL
REMARK 927      BINDING AFFINITY PREDICTED BY RF-SCORE:    0.00 PKD
ROOT
HETATM    1  C   UNL     1      -6.838   6.261  74.557  1.00  0.00    -0.086 C  
HETATM    2  N   UNL     1      -8.237   6.647  74.470  1.00  0.00    -0.127 NA 
HETATM    3  H   UNL     1      -8.833   6.635  75.298  1.00  0.00     0.000 HD 
ENDROOT
BRANCH   2   4
HETATM    4  C   UNL     1      -8.751   7.035  73.223  1.00  0.00    -0.127 A  
HETATM    5  C   UNL     1      -8.436   6.418  72.002  1.00  0.00    -0.115 A  
HETATM    6  F   UNL     1      -7.686   5.307  71.959  1.00  0.00    -0.090 F  
HETATM    7  C   UNL     1      -8.861   6.937  70.779  1.00  0.00    -0.150 A  
HETATM    8  C   UNL     1      -9.591   8.128  70.724  1.00  0.00    -0.185 A  
HETATM    9  C   UNL     1      -9.947   8.740  71.933  1.00  0.00    -0.401 A  
HETATM   10  C   UNL     1      -9.511   8.213  73.158  1.00  0.00    -0.316 A  
BRANCH   8  11
HETATM   11  C   UNL     1      -9.906   8.787  69.447  1.00  0.00    -0.186 A  
HETATM   12  N   UNL     1     -10.258  10.049  69.302  1.00  0.00    -0.200 NA 
HETATM   13  C   UNL     1     -10.340  10.369  67.952  1.00  0.00    -0.190 A  
HETATM   14  C   UNL     1     -10.678  11.629  67.409  1.00  0.00    -0.277 A  
HETATM   15  C   UNL     1     -10.676  11.811  66.019  1.00  0.00    -0.324 A  
HETATM   16  C   UNL     1     -10.347  10.754  65.183  1.00  0.00    -0.271 A  
HETATM   17  O   UNL     1     -10.324  10.900  63.823  1.00  0.00    -0.387 OA 
HETATM   18  C   UNL     1     -10.029   9.497  65.685  1.00  0.00    -0.269 A  
HETATM   19  C   UNL     1     -10.033   9.330  67.076  1.00  0.00    -0.224 A  
HETATM   20  H   UNL     1     -10.099  10.175  63.250  1.00  0.00     0.000 HD 
HETATM   21  S   UNL     1      -9.680   7.919  67.976  1.00  0.00    -0.164 SA 
ENDBRANCH   8  11
ENDBRANCH   2   4
TORSDOF 2
ENDMDL
MODEL      131
REMARK 921   NORMALIZED FREE ENERGY PREDICTED BY IDOCK:   -3.48 KCAL/MOL
REMARK 922        TOTAL FREE ENERGY PREDICTED BY IDOCK:   -4.09 KCAL/MOL
REMARK 923 INTER-LIGAND FREE ENERGY PREDICTED BY IDOCK:   -3.88 KCAL/MOL
REMARK 924 INTRA-LIGAND FREE ENERGY PREDICTED BY IDOCK:   -0.22 KCAL/MOL
REMARK 927      BINDING AFFINITY PREDICTED BY RF-SCORE:    0.00 PKD
ROOT
HETATM    1  C   UNL     1      -8.366   2.718  69.307  1.00  0.00    -0.059 C  
HETATM    2  N   UNL     1      -9.640   3.403  69.452  1.00  0.00    -0.141 NA 
HETATM    3  H   UNL     1     -10.495   2.880  69.639  1.00  0.00     0.000 HD 
ENDROOT
BRANCH   2   4
HETATM    4  C   UNL     1      -9.668   4.802  69.328  1.00  0.00    -0.196 A  
HETATM    5  C   UNL     1     -10.365   5.666  70.187  1.00  0.00    -0.271 A  
HETATM    6  F   UNL     1     -10.980   5.205  71.286  1.00  0.00    -0.258 F  
HETATM    7  C   UNL     1     -10.475   7.032  69.931  1.00  0.00    -0.234 A  
HETATM    8  C   UNL     1      -9.923   7.589  68.774  1.00  0.00    -0.175 A  
HETATM    9  C   UNL     1      -9.192   6.751  67.923  1.00  0.00    -0.112 A  
HETATM   10  C   UNL     1      -9.090   5.376  68.186  1.00  0.00    -0.115 A  
BRANCH   8  11
HETATM   11  C   UNL     1     -10.167   8.990  68.393  1.00  0.00    -0.201 A  
HETATM   12  N   UNL     1     -10.864   9.864  69.092  1.00  0.00    -0.223 NA 
HETATM   13  C   UNL     1     -10.770  11.122  68.509  1.00  0.00    -0.201 A  
HETATM   14  C   UNL     1     -11.373  12.310  68.980  1.00  0.00    -0.333 A  
HETATM   15  C   UNL     1     -11.150  13.518  68.306  1.00  0.00    -0.287 A  
HETATM   16  C   UNL     1     -10.343  13.544  67.179  1.00  0.00    -0.250 A  
HETATM   17  O   UNL     1     -10.095  14.707  66.504  1.00  0.00    -0.263 OA 
HETATM   18  C   UNL     1      -9.751  12.390  66.678  1.00  0.00    -0.229 A  
HETATM   19  C   UNL     1      -9.981  11.189  67.363  1.00  0.00    -0.179 A  
HETATM   20  H   UNL     1      -9.542  14.724  65.731  1.00  0.00     0.000 HD 
HETATM   21  S   UNL     1      -9.387   9.628  66.995  1.00  0.00    -0.151 SA 
ENDBRANCH   8  11
ENDBRANCH   2   4
TORSDOF 2
ENDMDL
MODEL      132
REMARK 921   NORMALIZED FREE ENERGY PREDICTED BY IDOCK:   -3.48 KCAL/MOL
REMARK 922        TOTAL FREE ENERGY PREDICTED BY IDOCK:   -4.09 KCAL/MOL
REMARK 923 INTER-LIGAND FREE ENERGY PREDICTED BY IDOCK:   -4.02 KCAL/MOL
REMARK 924 INTRA-LIGAND FREE ENERGY PREDICTED BY IDOCK:   -0.08 KCAL/MOL
REMARK 927      BINDING AFFINITY PREDICTED BY RF-SCORE:    0.00 PKD
ROOT
HETATM    1  C   UNL     1      -6.985   3.243  73.836  1.00  0.00    -0.041 C  
HETATM    2  N   UNL     1      -7.247   4.641  74.137  1.00  0.00    -0.076 NA 
HETATM    3  H   UNL     1      -6.873   5.071  74.983  1.00  0.00     0.000 HD 
ENDROOT
BRANCH   2   4
HETATM    4  C   UNL     1      -8.027   5.386  73.238  1.00  0.00    -0.111 A  
HETATM    5  C   UNL     1      -7.781   5.486  71.860  1.00  0.00    -0.104 A  
HETATM    6  F   UNL     1      -6.819   4.759  71.272  1.00  0.00    -0.036 F  
HETATM    7  C   UNL     1      -8.502   6.355  71.041  1.00  0.00    -0.127 A  
HETATM    8  C   UNL     1      -9.478   7.198  71.579  1.00  0.00    -0.161 A  
HETATM    9  C   UNL     1      -9.764   7.089  72.946  1.00  0.00    -0.188 A  
HETATM   10  C   UNL     1      -9.031   6.214  73.763  1.00  0.00    -0.129 A  
BRANCH   8  11
HETATM   11  C   UNL     1     -10.132   8.242  70.774  1.00  0.00    -0.190 A  
HETATM   12  N   UNL     1     -10.815   9.263  71.252  1.00  0.00    -0.320 NA 
HETATM   13  C   UNL     1     -11.168  10.124  70.219  1.00  0.00    -0.318 A  
HETATM   14  C   UNL     1     -11.894  11.330  70.347  1.00  0.00    -0.443 A  
HETATM   15  C   UNL     1     -12.138  12.118  69.213  1.00  0.00    -0.234 A  
HETATM   16  C   UNL     1     -11.671  11.711  67.973  1.00  0.00    -0.281 A  
HETATM   17  O   UNL     1     -11.881  12.460  66.849  1.00  0.00    -0.490 OA 
HETATM   18  C   UNL     1     -10.971  10.520  67.811  1.00  0.00    -0.372 A  
HETATM   19  C   UNL     1     -10.733   9.744  68.953  1.00  0.00    -0.217 A  
HETATM   20  H   UNL     1     -11.562  12.181  65.998  1.00  0.00     0.000 HD 
HETATM   21  S   UNL     1      -9.903   8.252  69.066  1.00  0.00    -0.181 SA 
ENDBRANCH   8  11
ENDBRANCH   2   4
TORSDOF 2
ENDMDL
MODEL      133
REMARK 921   NORMALIZED FREE ENERGY PREDICTED BY IDOCK:   -3.47 KCAL/MOL
REMARK 922        TOTAL FREE ENERGY PREDICTED BY IDOCK:   -4.07 KCAL/MOL
REMARK 923 INTER-LIGAND FREE ENERGY PREDICTED BY IDOCK:   -4.38 KCAL/MOL
REMARK 924 INTRA-LIGAND FREE ENERGY PREDICTED BY IDOCK:    0.30 KCAL/MOL
REMARK 927      BINDING AFFINITY PREDICTED BY RF-SCORE:    0.00 PKD
ROOT
HETATM    1  C   UNL     1     -10.338   9.013  67.203  1.00  0.00    -0.272 C  
HETATM    2  N   UNL     1     -11.127  10.219  67.396  1.00  0.00    -0.285 NA 
HETATM    3  H   UNL     1     -12.133  10.163  67.554  1.00  0.00     0.000 HD 
ENDROOT
BRANCH   2   4
HETATM    4  C   UNL     1     -10.474  11.461  67.362  1.00  0.00    -0.205 A  
HETATM    5  C   UNL     1      -9.084  11.636  67.448  1.00  0.00    -0.169 A  
HETATM    6  F   UNL     1      -8.252  10.584  67.455  1.00  0.00    -0.112 F  
HETATM    7  C   UNL     1      -8.502  12.899  67.554  1.00  0.00    -0.186 A  
HETATM    8  C   UNL     1      -9.296  14.047  67.620  1.00  0.00    -0.203 A  
HETATM    9  C   UNL     1     -10.684  13.898  67.500  1.00  0.00    -0.271 A  
HETATM   10  C   UNL     1     -11.261  12.622  67.397  1.00  0.00    -0.337 A  
BRANCH   8  11
HETATM   11  C   UNL     1      -8.723  15.373  67.903  1.00  0.00    -0.160 A  
HETATM   12  N   UNL     1      -7.741  15.619  68.747  1.00  0.00    -0.153 NA 
HETATM   13  C   UNL     1      -7.359  16.953  68.657  1.00  0.00    -0.222 A  
HETATM   14  C   UNL     1      -6.334  17.581  69.399  1.00  0.00    -0.246 A  
HETATM   15  C   UNL     1      -6.033  18.930  69.165  1.00  0.00    -0.246 A  
HETATM   16  C   UNL     1      -6.744  19.643  68.212  1.00  0.00    -0.278 A  
HETATM   17  O   UNL     1      -6.470  20.957  67.950  1.00  0.00    -0.314 OA 
HETATM   18  C   UNL     1      -7.772  19.060  67.479  1.00  0.00    -0.262 A  
HETATM   19  C   UNL     1      -8.060  17.710  67.722  1.00  0.00    -0.224 A  
HETATM   20  H   UNL     1      -6.958  21.446  67.297  1.00  0.00     0.000 HD 
HETATM   21  S   UNL     1      -9.249  16.730  66.979  1.00  0.00    -0.232 SA 
ENDBRANCH   8  11
ENDBRANCH   2   4
TORSDOF 2
ENDMDL
MODEL      134
REMARK 921   NORMALIZED FREE ENERGY PREDICTED BY IDOCK:   -3.46 KCAL/MOL
REMARK 922        TOTAL FREE ENERGY PREDICTED BY IDOCK:   -4.07 KCAL/MOL
REMARK 923 INTER-LIGAND FREE ENERGY PREDICTED BY IDOCK:   -3.84 KCAL/MOL
REMARK 924 INTRA-LIGAND FREE ENERGY PREDICTED BY IDOCK:   -0.23 KCAL/MOL
REMARK 927      BINDING AFFINITY PREDICTED BY RF-SCORE:    0.00 PKD
ROOT
HETATM    1  C   UNL     1      -8.107   3.583  72.979  1.00  0.00    -0.074 C  
HETATM    2  N   UNL     1      -8.539   4.817  73.614  1.00  0.00    -0.105 NA 
HETATM    3  H   UNL     1      -8.570   4.897  74.631  1.00  0.00     0.000 HD 
ENDROOT
BRANCH   2   4
HETATM    4  C   UNL     1      -8.912   5.897  72.798  1.00  0.00    -0.123 A  
HETATM    5  C   UNL     1     -10.229   6.190  72.412  1.00  0.00    -0.188 A  
HETATM    6  F   UNL     1     -11.267   5.499  72.907  1.00  0.00    -0.274 F  
HETATM    7  C   UNL     1     -10.524   7.188  71.484  1.00  0.00    -0.221 A  
HETATM    8  C   UNL     1      -9.500   7.914  70.867  1.00  0.00    -0.167 A  
HETATM    9  C   UNL     1      -8.181   7.663  71.265  1.00  0.00    -0.099 A  
HETATM   10  C   UNL     1      -7.894   6.653  72.197  1.00  0.00    -0.097 A  
BRANCH   8  11
HETATM   11  C   UNL     1      -9.769   8.851  69.764  1.00  0.00    -0.175 A  
HETATM   12  N   UNL     1     -10.867   9.564  69.615  1.00  0.00    -0.236 NA 
HETATM   13  C   UNL     1     -10.722  10.443  68.547  1.00  0.00    -0.221 A  
HETATM   14  C   UNL     1     -11.684  11.372  68.093  1.00  0.00    -0.355 A  
HETATM   15  C   UNL     1     -11.375  12.227  67.026  1.00  0.00    -0.395 A  
HETATM   16  C   UNL     1     -10.131  12.155  66.418  1.00  0.00    -0.220 A  
HETATM   17  O   UNL     1      -9.792  12.981  65.382  1.00  0.00    -0.438 OA 
HETATM   18  C   UNL     1      -9.170  11.238  66.829  1.00  0.00    -0.186 A  
HETATM   19  C   UNL     1      -9.492  10.391  67.898  1.00  0.00    -0.138 A  
HETATM   20  H   UNL     1      -8.939  12.931  64.966  1.00  0.00     0.000 HD 
HETATM   21  S   UNL     1      -8.522   9.182  68.622  1.00  0.00    -0.128 SA 
ENDBRANCH   8  11
ENDBRANCH   2   4
TORSDOF 2
ENDMDL
MODEL      135
REMARK 921   NORMALIZED FREE ENERGY PREDICTED BY IDOCK:   -3.43 KCAL/MOL
REMARK 922        TOTAL FREE ENERGY PREDICTED BY IDOCK:   -4.03 KCAL/MOL
REMARK 923 INTER-LIGAND FREE ENERGY PREDICTED BY IDOCK:   -3.83 KCAL/MOL
REMARK 924 INTRA-LIGAND FREE ENERGY PREDICTED BY IDOCK:   -0.20 KCAL/MOL
REMARK 927      BINDING AFFINITY PREDICTED BY RF-SCORE:    0.00 PKD
ROOT
HETATM    1  C   UNL     1      -8.102   3.021  63.996  1.00  0.00    -0.082 C  
HETATM    2  N   UNL     1      -7.677   3.468  65.313  1.00  0.00    -0.081 NA 
HETATM    3  H   UNL     1      -6.989   2.936  65.847  1.00  0.00     0.000 HD 
ENDROOT
BRANCH   2   4
HETATM    4  C   UNL     1      -8.232   4.648  65.833  1.00  0.00    -0.111 A  
HETATM    5  C   UNL     1      -7.501   5.661  66.474  1.00  0.00    -0.087 A  
HETATM    6  F   UNL     1      -6.162   5.618  66.533  1.00  0.00    -0.029 F  
HETATM    7  C   UNL     1      -8.124   6.741  67.098  1.00  0.00    -0.117 A  
HETATM    8  C   UNL     1      -9.519   6.833  67.143  1.00  0.00    -0.167 A  
HETATM    9  C   UNL     1     -10.266   5.852  66.478  1.00  0.00    -0.217 A  
HETATM   10  C   UNL     1      -9.630   4.766  65.856  1.00  0.00    -0.188 A  
BRANCH   8  11
HETATM   11  C   UNL     1     -10.204   7.865  67.936  1.00  0.00    -0.209 A  
HETATM   12  N   UNL     1     -10.571   7.745  69.197  1.00  0.00    -0.212 NA 
HETATM   13  C   UNL     1     -11.059   8.958  69.668  1.00  0.00    -0.046 A  
HETATM   14  C   UNL     1     -11.535   9.219  70.973  1.00  0.00    -0.387 A  
HETATM   15  C   UNL     1     -11.958  10.511  71.314  1.00  0.00    -0.386 A  
HETATM   16  C   UNL     1     -11.912  11.527  70.371  1.00  0.00    -0.368 A  
HETATM   17  O   UNL     1     -12.306  12.801  70.672  1.00  0.00    -0.360 OA 
HETATM   18  C   UNL     1     -11.468  11.298  69.073  1.00  0.00    -0.369 A  
HETATM   19  C   UNL     1     -11.047  10.002  68.746  1.00  0.00    -0.173 A  
HETATM   20  H   UNL     1     -12.275  13.496  70.026  1.00  0.00     0.000 HD 
HETATM   21  S   UNL     1     -10.449   9.427  67.250  1.00  0.00    -0.246 SA 
ENDBRANCH   8  11
ENDBRANCH   2   4
TORSDOF 2
ENDMDL
MODEL      136
REMARK 921   NORMALIZED FREE ENERGY PREDICTED BY IDOCK:   -3.43 KCAL/MOL
REMARK 922        TOTAL FREE ENERGY PREDICTED BY IDOCK:   -4.03 KCAL/MOL
REMARK 923 INTER-LIGAND FREE ENERGY PREDICTED BY IDOCK:   -3.81 KCAL/MOL
REMARK 924 INTRA-LIGAND FREE ENERGY PREDICTED BY IDOCK:   -0.22 KCAL/MOL
REMARK 927      BINDING AFFINITY PREDICTED BY RF-SCORE:    0.00 PKD
ROOT
HETATM    1  C   UNL     1      -7.968   3.423  67.328  1.00  0.00    -0.078 C  
HETATM    2  N   UNL     1      -7.531   4.733  67.784  1.00  0.00    -0.077 NA 
HETATM    3  H   UNL     1      -6.882   4.822  68.566  1.00  0.00     0.000 HD 
ENDROOT
BRANCH   2   4
HETATM    4  C   UNL     1      -8.022   5.871  67.126  1.00  0.00    -0.102 A  
HETATM    5  C   UNL     1      -7.372   6.525  66.068  1.00  0.00    -0.080 A  
HETATM    6  F   UNL     1      -6.255   6.021  65.523  1.00  0.00    -0.032 F  
HETATM    7  C   UNL     1      -7.835   7.734  65.549  1.00  0.00    -0.111 A  
HETATM    8  C   UNL     1      -8.954   8.366  66.100  1.00  0.00    -0.218 A  
HETATM    9  C   UNL     1      -9.639   7.712  67.132  1.00  0.00    -0.211 A  
HETATM   10  C   UNL     1      -9.163   6.498  67.650  1.00  0.00    -0.113 A  
BRANCH   8  11
HETATM   11  C   UNL     1      -9.363   9.718  65.689  1.00  0.00    -0.227 A  
HETATM   12  N   UNL     1     -10.363  10.003  64.879  1.00  0.00    -0.007 NA 
HETATM   13  C   UNL     1     -10.554  11.379  64.824  1.00  0.00    -0.316 A  
HETATM   14  C   UNL     1     -11.538  12.058  64.071  1.00  0.00    -0.495 A  
HETATM   15  C   UNL     1     -11.636  13.454  64.152  1.00  0.00    -0.440 A  
HETATM   16  C   UNL     1     -10.765  14.163  64.966  1.00  0.00    -0.416 A  
HETATM   17  O   UNL     1     -10.838  15.524  65.077  1.00  0.00    -0.407 OA 
HETATM   18  C   UNL     1      -9.773  13.527  65.704  1.00  0.00    -0.109 A  
HETATM   19  C   UNL     1      -9.688  12.131  65.615  1.00  0.00    -0.207 A  
HETATM   20  H   UNL     1     -10.241  16.010  65.635  1.00  0.00     0.000 HD 
HETATM   21  S   UNL     1      -8.590  11.083  66.403  1.00  0.00    -0.168 SA 
ENDBRANCH   8  11
ENDBRANCH   2   4
TORSDOF 2
ENDMDL
MODEL      137
REMARK 921   NORMALIZED FREE ENERGY PREDICTED BY IDOCK:   -3.36 KCAL/MOL
REMARK 922        TOTAL FREE ENERGY PREDICTED BY IDOCK:   -3.96 KCAL/MOL
REMARK 923 INTER-LIGAND FREE ENERGY PREDICTED BY IDOCK:   -3.74 KCAL/MOL
REMARK 924 INTRA-LIGAND FREE ENERGY PREDICTED BY IDOCK:   -0.22 KCAL/MOL
REMARK 927      BINDING AFFINITY PREDICTED BY RF-SCORE:    0.00 PKD
ROOT
HETATM    1  C   UNL     1      -8.509   4.741  72.128  1.00  0.00    -0.119 C  
HETATM    2  N   UNL     1      -7.616   4.697  70.981  1.00  0.00    -0.070 NA 
HETATM    3  H   UNL     1      -6.795   4.092  70.983  1.00  0.00     0.000 HD 
ENDROOT
BRANCH   2   4
HETATM    4  C   UNL     1      -7.908   5.506  69.871  1.00  0.00    -0.082 A  
HETATM    5  C   UNL     1      -6.967   5.925  68.918  1.00  0.00    -0.068 A  
HETATM    6  F   UNL     1      -5.705   5.472  68.943  1.00  0.00    -0.012 F  
HETATM    7  C   UNL     1      -7.285   6.844  67.919  1.00  0.00    -0.095 A  
HETATM    8  C   UNL     1      -8.558   7.419  67.856  1.00  0.00    -0.125 A  
HETATM    9  C   UNL     1      -9.522   6.988  68.776  1.00  0.00    -0.136 A  
HETATM   10  C   UNL     1      -9.192   6.065  69.780  1.00  0.00    -0.153 A  
BRANCH   8  11
HETATM   11  C   UNL     1      -8.871   8.514  66.924  1.00  0.00    -0.137 A  
HETATM   12  N   UNL     1      -8.557   8.543  65.644  1.00  0.00    -0.168 NA 
HETATM   13  C   UNL     1      -9.130   9.656  65.039  1.00  0.00    -0.233 A  
HETATM   14  C   UNL     1      -9.024  10.015  63.676  1.00  0.00    -0.280 A  
HETATM   15  C   UNL     1      -9.698  11.149  63.201  1.00  0.00    -0.401 A  
HETATM   16  C   UNL     1     -10.461  11.915  64.069  1.00  0.00    -0.373 A  
HETATM   17  O   UNL     1     -11.141  13.021  63.638  1.00  0.00    -0.549 OA 
HETATM   18  C   UNL     1     -10.570  11.600  65.419  1.00  0.00    -0.331 A  
HETATM   19  C   UNL     1      -9.892  10.463  65.879  1.00  0.00    -0.235 A  
HETATM   20  H   UNL     1     -11.664  13.546  64.233  1.00  0.00     0.000 HD 
HETATM   21  S   UNL     1      -9.846   9.827  67.467  1.00  0.00    -0.176 SA 
ENDBRANCH   8  11
ENDBRANCH   2   4
TORSDOF 2
ENDMDL
MODEL      138
REMARK 921   NORMALIZED FREE ENERGY PREDICTED BY IDOCK:   -3.36 KCAL/MOL
REMARK 922        TOTAL FREE ENERGY PREDICTED BY IDOCK:   -3.95 KCAL/MOL
REMARK 923 INTER-LIGAND FREE ENERGY PREDICTED BY IDOCK:   -3.75 KCAL/MOL
REMARK 924 INTRA-LIGAND FREE ENERGY PREDICTED BY IDOCK:   -0.21 KCAL/MOL
REMARK 927      BINDING AFFINITY PREDICTED BY RF-SCORE:    0.00 PKD
ROOT
HETATM    1  C   UNL     1      -9.064   1.755  73.224  1.00  0.00    -0.066 C  
HETATM    2  N   UNL     1      -8.004   2.665  72.821  1.00  0.00    -0.054 NA 
HETATM    3  H   UNL     1      -7.036   2.491  73.092  1.00  0.00     0.000 HD 
ENDROOT
BRANCH   2   4
HETATM    4  C   UNL     1      -8.341   3.789  72.050  1.00  0.00    -0.087 A  
HETATM    5  C   UNL     1      -7.422   4.735  71.571  1.00  0.00    -0.078 A  
HETATM    6  F   UNL     1      -6.101   4.560  71.728  1.00  0.00    -0.014 F  
HETATM    7  C   UNL     1      -7.830   5.907  70.934  1.00  0.00    -0.102 A  
HETATM    8  C   UNL     1      -9.188   6.203  70.786  1.00  0.00    -0.163 A  
HETATM    9  C   UNL     1     -10.122   5.256  71.224  1.00  0.00    -0.278 A  
HETATM   10  C   UNL     1      -9.702   4.081  71.868  1.00  0.00    -0.236 A  
BRANCH   8  11
HETATM   11  C   UNL     1      -9.647   7.505  70.275  1.00  0.00    -0.165 A  
HETATM   12  N   UNL     1      -9.777   7.826  69.003  1.00  0.00    -0.156 NA 
HETATM   13  C   UNL     1     -10.368   9.079  68.886  1.00  0.00    -0.215 A  
HETATM   14  C   UNL     1     -10.675   9.750  67.681  1.00  0.00    -0.334 A  
HETATM   15  C   UNL     1     -11.314  10.997  67.723  1.00  0.00    -0.365 A  
HETATM   16  C   UNL     1     -11.638  11.569  68.945  1.00  0.00    -0.320 A  
HETATM   17  O   UNL     1     -12.271  12.778  69.022  1.00  0.00    -0.196 OA 
HETATM   18  C   UNL     1     -11.331  10.943  70.148  1.00  0.00    -0.367 A  
HETATM   19  C   UNL     1     -10.694   9.696  70.091  1.00  0.00    -0.275 A  
HETATM   20  H   UNL     1     -12.492  13.170  69.859  1.00  0.00     0.000 HD 
HETATM   21  S   UNL     1     -10.205   8.695  71.389  1.00  0.00    -0.282 SA 
ENDBRANCH   8  11
ENDBRANCH   2   4
TORSDOF 2
ENDMDL
MODEL      139
REMARK 921   NORMALIZED FREE ENERGY PREDICTED BY IDOCK:   -3.33 KCAL/MOL
REMARK 922        TOTAL FREE ENERGY PREDICTED BY IDOCK:   -3.92 KCAL/MOL
REMARK 923 INTER-LIGAND FREE ENERGY PREDICTED BY IDOCK:   -3.70 KCAL/MOL
REMARK 924 INTRA-LIGAND FREE ENERGY PREDICTED BY IDOCK:   -0.23 KCAL/MOL
REMARK 927      BINDING AFFINITY PREDICTED BY RF-SCORE:    0.00 PKD
ROOT
HETATM    1  C   UNL     1     -10.070  14.243  67.306  1.00  0.00    -0.252 C  
HETATM    2  N   UNL     1     -10.110  13.333  68.439  1.00  0.00    -0.242 NA 
HETATM    3  H   UNL     1     -10.267  13.685  69.384  1.00  0.00     0.000 HD 
ENDROOT
BRANCH   2   4
HETATM    4  C   UNL     1      -9.929  11.961  68.205  1.00  0.00    -0.202 A  
HETATM    5  C   UNL     1      -8.696  11.295  68.269  1.00  0.00    -0.158 A  
HETATM    6  F   UNL     1      -7.587  11.927  68.682  1.00  0.00    -0.108 F  
HETATM    7  C   UNL     1      -8.554   9.962  67.886  1.00  0.00    -0.125 A  
HETATM    8  C   UNL     1      -9.642   9.245  67.380  1.00  0.00    -0.190 A  
HETATM    9  C   UNL     1     -10.890   9.879  67.342  1.00  0.00    -0.293 A  
HETATM   10  C   UNL     1     -11.022  11.223  67.726  1.00  0.00    -0.305 A  
BRANCH   8  11
HETATM   11  C   UNL     1      -9.486   7.896  66.810  1.00  0.00    -0.201 A  
HETATM   12  N   UNL     1      -8.418   7.449  66.181  1.00  0.00    -0.138 NA 
HETATM   13  C   UNL     1      -8.561   6.094  65.905  1.00  0.00    -0.147 A  
HETATM   14  C   UNL     1      -7.618   5.269  65.252  1.00  0.00    -0.082 A  
HETATM   15  C   UNL     1      -7.886   3.903  65.084  1.00  0.00    -0.086 A  
HETATM   16  C   UNL     1      -9.076   3.369  65.555  1.00  0.00    -0.149 A  
HETATM   17  O   UNL     1      -9.366   2.039  65.418  1.00  0.00    -0.280 OA 
HETATM   18  C   UNL     1     -10.033   4.157  66.184  1.00  0.00    -0.188 A  
HETATM   19  C   UNL     1      -9.750   5.520  66.347  1.00  0.00    -0.163 A  
HETATM   20  H   UNL     1     -10.182   1.673  65.741  1.00  0.00     0.000 HD 
HETATM   21  S   UNL     1     -10.719   6.723  67.081  1.00  0.00    -0.387 SA 
ENDBRANCH   8  11
ENDBRANCH   2   4
TORSDOF 2
ENDMDL
MODEL      140
REMARK 921   NORMALIZED FREE ENERGY PREDICTED BY IDOCK:   -3.27 KCAL/MOL
REMARK 922        TOTAL FREE ENERGY PREDICTED BY IDOCK:   -3.85 KCAL/MOL
REMARK 923 INTER-LIGAND FREE ENERGY PREDICTED BY IDOCK:   -3.64 KCAL/MOL
REMARK 924 INTRA-LIGAND FREE ENERGY PREDICTED BY IDOCK:   -0.21 KCAL/MOL
REMARK 927      BINDING AFFINITY PREDICTED BY RF-SCORE:    0.00 PKD
ROOT
HETATM    1  C   UNL     1     -12.208  14.881  64.239  1.00  0.00    -0.344 C  
HETATM    2  N   UNL     1     -10.784  14.734  64.494  1.00  0.00    -0.605 NA 
HETATM    3  H   UNL     1     -10.107  15.341  64.032  1.00  0.00     0.000 HD 
ENDROOT
BRANCH   2   4
HETATM    4  C   UNL     1     -10.362  13.739  65.389  1.00  0.00    -0.333 A  
HETATM    5  C   UNL     1      -9.540  13.964  66.505  1.00  0.00    -0.287 A  
HETATM    6  F   UNL     1      -9.184  15.206  66.864  1.00  0.00    -0.201 F  
HETATM    7  C   UNL     1      -9.035  12.917  67.275  1.00  0.00    -0.208 A  
HETATM    8  C   UNL     1      -9.300  11.587  66.934  1.00  0.00    -0.189 A  
HETATM    9  C   UNL     1     -10.148  11.342  65.847  1.00  0.00    -0.291 A  
HETATM   10  C   UNL     1     -10.649  12.402  65.075  1.00  0.00    -0.330 A  
BRANCH   8  11
HETATM   11  C   UNL     1      -8.646  10.464  67.623  1.00  0.00    -0.118 A  
HETATM   12  N   UNL     1      -7.554  10.546  68.358  1.00  0.00    -0.094 NA 
HETATM   13  C   UNL     1      -7.300   9.325  68.970  1.00  0.00    -0.072 A  
HETATM   14  C   UNL     1      -6.225   9.033  69.840  1.00  0.00    -0.034 A  
HETATM   15  C   UNL     1      -6.124   7.760  70.418  1.00  0.00    -0.030 A  
HETATM   16  C   UNL     1      -7.074   6.792  70.132  1.00  0.00    -0.071 A  
HETATM   17  O   UNL     1      -7.013   5.543  70.686  1.00  0.00    -0.053 OA 
HETATM   18  C   UNL     1      -8.133   7.041  69.265  1.00  0.00    -0.120 A  
HETATM   19  C   UNL     1      -8.222   8.318  68.696  1.00  0.00    -0.120 A  
HETATM   20  H   UNL     1      -7.664   4.880  70.490  1.00  0.00     0.000 HD 
HETATM   21  S   UNL     1      -9.403   8.916  67.612  1.00  0.00    -0.138 SA 
ENDBRANCH   8  11
ENDBRANCH   2   4
TORSDOF 2
ENDMDL
MODEL      141
REMARK 921   NORMALIZED FREE ENERGY PREDICTED BY IDOCK:   -3.25 KCAL/MOL
REMARK 922        TOTAL FREE ENERGY PREDICTED BY IDOCK:   -3.84 KCAL/MOL
REMARK 923 INTER-LIGAND FREE ENERGY PREDICTED BY IDOCK:   -3.66 KCAL/MOL
REMARK 924 INTRA-LIGAND FREE ENERGY PREDICTED BY IDOCK:   -0.18 KCAL/MOL
REMARK 927      BINDING AFFINITY PREDICTED BY RF-SCORE:    0.00 PKD
ROOT
HETATM    1  C   UNL     1     -11.833   7.320  71.040  1.00  0.00    -0.318 C  
HETATM    2  N   UNL     1     -11.200   7.649  69.773  1.00  0.00    -0.448 NA 
HETATM    3  H   UNL     1     -10.994   6.921  69.089  1.00  0.00     0.000 HD 
ENDROOT
BRANCH   2   4
HETATM    4  C   UNL     1     -10.880   8.991  69.512  1.00  0.00    -0.166 A  
HETATM    5  C   UNL     1     -11.819  10.026  69.381  1.00  0.00     0.133 A  
HETATM    6  F   UNL     1     -13.122   9.814  69.617  1.00  0.00     0.439 F  
HETATM    7  C   UNL     1     -11.453  11.310  68.978  1.00  0.00    -0.369 A  
HETATM    8  C   UNL     1     -10.127  11.604  68.648  1.00  0.00    -0.206 A  
HETATM    9  C   UNL     1      -9.168  10.596  68.806  1.00  0.00    -0.182 A  
HETATM   10  C   UNL     1      -9.546   9.305  69.208  1.00  0.00    -0.161 A  
BRANCH   8  11
HETATM   11  C   UNL     1      -9.742  12.897  68.059  1.00  0.00    -0.224 A  
HETATM   12  N   UNL     1     -10.540  13.934  67.898  1.00  0.00    -0.242 NA 
HETATM   13  C   UNL     1      -9.811  15.029  67.447  1.00  0.00    -0.224 A  
HETATM   14  C   UNL     1     -10.322  16.317  67.172  1.00  0.00    -0.285 A  
HETATM   15  C   UNL     1      -9.452  17.338  66.764  1.00  0.00    -0.274 A  
HETATM   16  C   UNL     1      -8.097  17.079  66.626  1.00  0.00    -0.262 A  
HETATM   17  O   UNL     1      -7.219  18.053  66.240  1.00  0.00    -0.231 OA 
HETATM   18  C   UNL     1      -7.566  15.817  66.870  1.00  0.00    -0.235 A  
HETATM   19  C   UNL     1      -8.447  14.807  67.279  1.00  0.00    -0.214 A  
HETATM   20  H   UNL     1      -6.290  17.875  66.145  1.00  0.00     0.000 HD 
HETATM   21  S   UNL     1      -8.090  13.177  67.656  1.00  0.00    -0.191 SA 
ENDBRANCH   8  11
ENDBRANCH   2   4
TORSDOF 2
ENDMDL
MODEL      142
REMARK 921   NORMALIZED FREE ENERGY PREDICTED BY IDOCK:   -3.22 KCAL/MOL
REMARK 922        TOTAL FREE ENERGY PREDICTED BY IDOCK:   -3.80 KCAL/MOL
REMARK 923 INTER-LIGAND FREE ENERGY PREDICTED BY IDOCK:   -3.67 KCAL/MOL
REMARK 924 INTRA-LIGAND FREE ENERGY PREDICTED BY IDOCK:   -0.13 KCAL/MOL
REMARK 927      BINDING AFFINITY PREDICTED BY RF-SCORE:    0.00 PKD
ROOT
HETATM    1  C   UNL     1      -6.150   7.964  64.459  1.00  0.00    -0.048 C  
HETATM    2  N   UNL     1      -7.370   8.168  65.223  1.00  0.00    -0.071 NA 
HETATM    3  H   UNL     1      -7.960   7.377  65.483  1.00  0.00     0.000 HD 
ENDROOT
BRANCH   2   4
HETATM    4  C   UNL     1      -7.718   9.476  65.597  1.00  0.00    -0.101 A  
HETATM    5  C   UNL     1      -6.934  10.311  66.408  1.00  0.00    -0.111 A  
HETATM    6  F   UNL     1      -5.705   9.942  66.801  1.00  0.00    -0.047 F  
HETATM    7  C   UNL     1      -7.395  11.545  66.864  1.00  0.00    -0.140 A  
HETATM    8  C   UNL     1      -8.688  11.981  66.559  1.00  0.00    -0.138 A  
HETATM    9  C   UNL     1      -9.474  11.179  65.721  1.00  0.00    -0.248 A  
HETATM   10  C   UNL     1      -9.002   9.937  65.270  1.00  0.00    -0.228 A  
BRANCH   8  11
HETATM   11  C   UNL     1      -9.262  13.193  67.164  1.00  0.00    -0.227 A  
HETATM   12  N   UNL     1      -9.949  13.238  68.288  1.00  0.00    -0.234 NA 
HETATM   13  C   UNL     1     -10.212  14.559  68.633  1.00  0.00    -0.243 A  
HETATM   14  C   UNL     1     -10.915  15.000  69.776  1.00  0.00    -0.291 A  
HETATM   15  C   UNL     1     -11.064  16.374  70.013  1.00  0.00    -0.300 A  
HETATM   16  C   UNL     1     -10.527  17.293  69.124  1.00  0.00    -0.263 A  
HETATM   17  O   UNL     1     -10.644  18.639  69.330  1.00  0.00    -0.318 OA 
HETATM   18  C   UNL     1      -9.847  16.890  67.980  1.00  0.00    -0.264 A  
HETATM   19  C   UNL     1      -9.704  15.514  67.757  1.00  0.00    -0.211 A  
HETATM   20  H   UNL     1     -10.276  19.269  68.720  1.00  0.00     0.000 HD 
HETATM   21  S   UNL     1      -8.920  14.727  66.456  1.00  0.00    -0.181 SA 
ENDBRANCH   8  11
ENDBRANCH   2   4
TORSDOF 2
ENDMDL
MODEL      143
REMARK 921   NORMALIZED FREE ENERGY PREDICTED BY IDOCK:   -3.20 KCAL/MOL
REMARK 922        TOTAL FREE ENERGY PREDICTED BY IDOCK:   -3.78 KCAL/MOL
REMARK 923 INTER-LIGAND FREE ENERGY PREDICTED BY IDOCK:   -3.57 KCAL/MOL
REMARK 924 INTRA-LIGAND FREE ENERGY PREDICTED BY IDOCK:   -0.20 KCAL/MOL
REMARK 927      BINDING AFFINITY PREDICTED BY RF-SCORE:    0.00 PKD
ROOT
HETATM    1  C   UNL     1      -6.928   2.473  62.970  1.00  0.00    -0.032 C  
HETATM    2  N   UNL     1      -8.051   1.811  63.614  1.00  0.00    -0.061 NA 
HETATM    3  H   UNL     1      -8.340   0.876  63.324  1.00  0.00     0.000 HD 
ENDROOT
BRANCH   2   4
HETATM    4  C   UNL     1      -8.728   2.485  64.642  1.00  0.00    -0.107 A  
HETATM    5  C   UNL     1      -9.407   3.703  64.487  1.00  0.00    -0.149 A  
HETATM    6  F   UNL     1      -9.554   4.267  63.279  1.00  0.00    -0.143 F  
HETATM    7  C   UNL     1      -9.938   4.398  65.574  1.00  0.00    -0.242 A  
HETATM    8  C   UNL     1      -9.774   3.919  66.877  1.00  0.00    -0.189 A  
HETATM    9  C   UNL     1      -9.131   2.687  67.050  1.00  0.00    -0.171 A  
HETATM   10  C   UNL     1      -8.596   1.997  65.951  1.00  0.00    -0.112 A  
BRANCH   8  11
HETATM   11  C   UNL     1     -10.171   4.711  68.051  1.00  0.00     0.062 A  
HETATM   12  N   UNL     1      -9.971   4.371  69.309  1.00  0.00    -0.147 NA 
HETATM   13  C   UNL     1     -10.342   5.414  70.149  1.00  0.00    -0.290 A  
HETATM   14  C   UNL     1     -10.261   5.421  71.560  1.00  0.00    -0.280 A  
HETATM   15  C   UNL     1     -10.633   6.570  72.272  1.00  0.00    -0.238 A  
HETATM   16  C   UNL     1     -11.084   7.691  71.592  1.00  0.00    -0.239 A  
HETATM   17  O   UNL     1     -11.445   8.832  72.254  1.00  0.00    -0.362 OA 
HETATM   18  C   UNL     1     -11.194   7.709  70.206  1.00  0.00    -0.230 A  
HETATM   19  C   UNL     1     -10.816   6.555  69.507  1.00  0.00    -0.304 A  
HETATM   20  H   UNL     1     -11.754   9.600  71.787  1.00  0.00     0.000 HD 
HETATM   21  S   UNL     1     -10.834   6.285  67.818  1.00  0.00    -0.338 SA 
ENDBRANCH   8  11
ENDBRANCH   2   4
TORSDOF 2
ENDMDL
MODEL      144
REMARK 921   NORMALIZED FREE ENERGY PREDICTED BY IDOCK:   -3.19 KCAL/MOL
REMARK 922        TOTAL FREE ENERGY PREDICTED BY IDOCK:   -3.77 KCAL/MOL
REMARK 923 INTER-LIGAND FREE ENERGY PREDICTED BY IDOCK:   -3.55 KCAL/MOL
REMARK 924 INTRA-LIGAND FREE ENERGY PREDICTED BY IDOCK:   -0.22 KCAL/MOL
REMARK 927      BINDING AFFINITY PREDICTED BY RF-SCORE:    0.00 PKD
ROOT
HETATM    1  C   UNL     1     -10.892   2.808  62.979  1.00  0.00    -0.210 C  
HETATM    2  N   UNL     1     -10.176   2.349  64.159  1.00  0.00    -0.344 NA 
HETATM    3  H   UNL     1      -9.887   1.375  64.248  1.00  0.00     0.000 HD 
ENDROOT
BRANCH   2   4
HETATM    4  C   UNL     1      -9.890   3.277  65.173  1.00  0.00     0.005 A  
HETATM    5  C   UNL     1      -8.938   3.086  66.186  1.00  0.00    -0.148 A  
HETATM    6  F   UNL     1      -8.131   2.014  66.187  1.00  0.00    -0.073 F  
HETATM    7  C   UNL     1      -8.799   3.977  67.249  1.00  0.00    -0.130 A  
HETATM    8  C   UNL     1      -9.642   5.086  67.366  1.00  0.00    -0.164 A  
HETATM    9  C   UNL     1     -10.575   5.316  66.346  1.00  0.00    -0.338 A  
HETATM   10  C   UNL     1     -10.710   4.411  65.282  1.00  0.00    -0.150 A  
BRANCH   8  11
HETATM   11  C   UNL     1      -9.633   5.947  68.560  1.00  0.00    -0.123 A  
HETATM   12  N   UNL     1     -10.620   6.732  68.946  1.00  0.00    -0.213 NA 
HETATM   13  C   UNL     1     -10.328   7.287  70.187  1.00  0.00    -0.212 A  
HETATM   14  C   UNL     1     -11.150   8.168  70.923  1.00  0.00    -0.280 A  
HETATM   15  C   UNL     1     -10.737   8.613  72.187  1.00  0.00    -0.417 A  
HETATM   16  C   UNL     1      -9.523   8.190  72.707  1.00  0.00    -0.279 A  
HETATM   17  O   UNL     1      -9.095   8.595  73.941  1.00  0.00    -0.070 OA 
HETATM   18  C   UNL     1      -8.682   7.339  71.999  1.00  0.00    -0.129 A  
HETATM   19  C   UNL     1      -9.108   6.901  70.738  1.00  0.00    -0.154 A  
HETATM   20  H   UNL     1      -8.262   8.306  74.297  1.00  0.00     0.000 HD 
HETATM   21  S   UNL     1      -8.302   5.856  69.650  1.00  0.00    -0.118 SA 
ENDBRANCH   8  11
ENDBRANCH   2   4
TORSDOF 2
ENDMDL
MODEL      145
REMARK 921   NORMALIZED FREE ENERGY PREDICTED BY IDOCK:   -3.16 KCAL/MOL
REMARK 922        TOTAL FREE ENERGY PREDICTED BY IDOCK:   -3.73 KCAL/MOL
REMARK 923 INTER-LIGAND FREE ENERGY PREDICTED BY IDOCK:   -3.51 KCAL/MOL
REMARK 924 INTRA-LIGAND FREE ENERGY PREDICTED BY IDOCK:   -0.22 KCAL/MOL
REMARK 927      BINDING AFFINITY PREDICTED BY RF-SCORE:    0.00 PKD
ROOT
HETATM    1  C   UNL     1      -7.430   8.364  74.461  1.00  0.00    -0.214 C  
HETATM    2  N   UNL     1      -8.771   8.576  73.939  1.00  0.00    -0.293 NA 
HETATM    3  H   UNL     1      -9.454   9.121  74.464  1.00  0.00     0.000 HD 
ENDROOT
BRANCH   2   4
HETATM    4  C   UNL     1      -9.104   8.014  72.696  1.00  0.00    -0.227 A  
HETATM    5  C   UNL     1      -9.639   6.729  72.517  1.00  0.00    -0.153 A  
HETATM    6  F   UNL     1      -9.985   5.970  73.567  1.00  0.00    -0.157 F  
HETATM    7  C   UNL     1      -9.815   6.170  71.252  1.00  0.00    -0.204 A  
HETATM    8  C   UNL     1      -9.420   6.864  70.104  1.00  0.00    -0.162 A  
HETATM    9  C   UNL     1      -8.917   8.162  70.257  1.00  0.00    -0.146 A  
HETATM   10  C   UNL     1      -8.740   8.715  71.535  1.00  0.00    -0.266 A  
BRANCH   8  11
HETATM   11  C   UNL     1      -9.435   6.235  68.773  1.00  0.00    -0.122 A  
HETATM   12  N   UNL     1      -8.433   5.576  68.226  1.00  0.00    -0.098 NA 
HETATM   13  C   UNL     1      -8.841   4.997  67.030  1.00  0.00    -0.106 A  
HETATM   14  C   UNL     1      -8.047   4.206  66.169  1.00  0.00    -0.098 A  
HETATM   15  C   UNL     1      -8.614   3.652  65.013  1.00  0.00    -0.109 A  
HETATM   16  C   UNL     1      -9.949   3.885  64.716  1.00  0.00    -0.200 A  
HETATM   17  O   UNL     1     -10.537   3.351  63.603  1.00  0.00    -0.232 OA 
HETATM   18  C   UNL     1     -10.752   4.674  65.532  1.00  0.00    -0.176 A  
HETATM   19  C   UNL     1     -10.172   5.220  66.685  1.00  0.00    -0.253 A  
HETATM   20  H   UNL     1     -11.452   3.510  63.400  1.00  0.00     0.000 HD 
HETATM   21  S   UNL     1     -10.903   6.213  67.871  1.00  0.00    -0.296 SA 
ENDBRANCH   8  11
ENDBRANCH   2   4
TORSDOF 2
ENDMDL
MODEL      146
REMARK 921   NORMALIZED FREE ENERGY PREDICTED BY IDOCK:   -3.09 KCAL/MOL
REMARK 922        TOTAL FREE ENERGY PREDICTED BY IDOCK:   -3.66 KCAL/MOL
REMARK 923 INTER-LIGAND FREE ENERGY PREDICTED BY IDOCK:   -3.44 KCAL/MOL
REMARK 924 INTRA-LIGAND FREE ENERGY PREDICTED BY IDOCK:   -0.22 KCAL/MOL
REMARK 927      BINDING AFFINITY PREDICTED BY RF-SCORE:    0.00 PKD
ROOT
HETATM    1  C   UNL     1     -14.058  14.170  71.033  1.00  0.00     0.207 C  
HETATM    2  N   UNL     1     -12.713  14.376  70.521  1.00  0.00    -0.361 NA 
HETATM    3  H   UNL     1     -12.328  15.316  70.431  1.00  0.00     0.000 HD 
ENDROOT
BRANCH   2   4
HETATM    4  C   UNL     1     -11.956  13.252  70.153  1.00  0.00    -0.318 A  
HETATM    5  C   UNL     1     -11.237  13.130  68.953  1.00  0.00    -0.277 A  
HETATM    6  F   UNL     1     -11.132  14.160  68.100  1.00  0.00    -0.240 F  
HETATM    7  C   UNL     1     -10.623  11.937  68.577  1.00  0.00    -0.245 A  
HETATM    8  C   UNL     1     -10.737  10.793  69.373  1.00  0.00    -0.272 A  
HETATM    9  C   UNL     1     -11.418  10.902  70.591  1.00  0.00    -0.227 A  
HETATM   10  C   UNL     1     -12.038  12.107  70.960  1.00  0.00    -0.058 A  
BRANCH   8  11
HETATM   11  C   UNL     1     -10.246   9.481  68.922  1.00  0.00    -0.199 A  
HETATM   12  N   UNL     1     -10.298   8.362  69.618  1.00  0.00    -0.214 NA 
HETATM   13  C   UNL     1      -9.879   7.294  68.833  1.00  0.00    -0.158 A  
HETATM   14  C   UNL     1      -9.810   5.940  69.232  1.00  0.00    -0.205 A  
HETATM   15  C   UNL     1      -9.406   4.964  68.311  1.00  0.00    -0.168 A  
HETATM   16  C   UNL     1      -9.073   5.329  67.015  1.00  0.00    -0.112 A  
HETATM   17  O   UNL     1      -8.686   4.402  66.088  1.00  0.00    -0.113 OA 
HETATM   18  C   UNL     1      -9.112   6.655  66.597  1.00  0.00    -0.159 A  
HETATM   19  C   UNL     1      -9.518   7.620  67.528  1.00  0.00    -0.140 A  
HETATM   20  H   UNL     1      -8.457   4.653  65.200  1.00  0.00     0.000 HD 
HETATM   21  S   UNL     1      -9.671   9.309  67.306  1.00  0.00    -0.179 SA 
ENDBRANCH   8  11
ENDBRANCH   2   4
TORSDOF 2
ENDMDL
MODEL      147
REMARK 921   NORMALIZED FREE ENERGY PREDICTED BY IDOCK:   -3.07 KCAL/MOL
REMARK 922        TOTAL FREE ENERGY PREDICTED BY IDOCK:   -3.64 KCAL/MOL
REMARK 923 INTER-LIGAND FREE ENERGY PREDICTED BY IDOCK:   -3.43 KCAL/MOL
REMARK 924 INTRA-LIGAND FREE ENERGY PREDICTED BY IDOCK:   -0.21 KCAL/MOL
REMARK 927      BINDING AFFINITY PREDICTED BY RF-SCORE:    0.00 PKD
ROOT
HETATM    1  C   UNL     1     -11.069  12.210  63.434  1.00  0.00    -0.420 C  
HETATM    2  N   UNL     1     -10.414  12.760  64.609  1.00  0.00    -0.333 NA 
HETATM    3  H   UNL     1     -10.099  13.730  64.624  1.00  0.00     0.000 HD 
ENDROOT
BRANCH   2   4
HETATM    4  C   UNL     1     -10.224  11.928  65.724  1.00  0.00    -0.242 A  
HETATM    5  C   UNL     1      -9.625  12.329  66.928  1.00  0.00    -0.213 A  
HETATM    6  F   UNL     1      -9.284  13.609  67.141  1.00  0.00    -0.205 F  
HETATM    7  C   UNL     1      -9.332  11.422  67.947  1.00  0.00    -0.164 A  
HETATM    8  C   UNL     1      -9.592  10.058  67.785  1.00  0.00    -0.168 A  
HETATM    9  C   UNL     1     -10.223   9.642  66.606  1.00  0.00    -0.302 A  
HETATM   10  C   UNL     1     -10.510  10.561  65.584  1.00  0.00    -0.213 A  
BRANCH   8  11
HETATM   11  C   UNL     1      -9.141   9.060  68.767  1.00  0.00    -0.137 A  
HETATM   12  N   UNL     1      -7.885   8.791  69.065  1.00  0.00    -0.094 NA 
HETATM   13  C   UNL     1      -7.829   7.902  70.133  1.00  0.00    -0.097 A  
HETATM   14  C   UNL     1      -6.657   7.393  70.737  1.00  0.00    -0.043 A  
HETATM   15  C   UNL     1      -6.761   6.534  71.840  1.00  0.00    -0.063 A  
HETATM   16  C   UNL     1      -8.010   6.182  72.329  1.00  0.00    -0.105 A  
HETATM   17  O   UNL     1      -8.147   5.355  73.409  1.00  0.00    -0.110 OA 
HETATM   18  C   UNL     1      -9.182   6.650  71.745  1.00  0.00    -0.148 A  
HETATM   19  C   UNL     1      -9.063   7.510  70.645  1.00  0.00    -0.155 A  
HETATM   20  H   UNL     1      -9.003   5.114  73.744  1.00  0.00     0.000 HD 
HETATM   21  S   UNL     1     -10.311   8.243  69.733  1.00  0.00    -0.219 SA 
ENDBRANCH   8  11
ENDBRANCH   2   4
TORSDOF 2
ENDMDL
MODEL      148
REMARK 921   NORMALIZED FREE ENERGY PREDICTED BY IDOCK:   -3.07 KCAL/MOL
REMARK 922        TOTAL FREE ENERGY PREDICTED BY IDOCK:   -3.63 KCAL/MOL
REMARK 923 INTER-LIGAND FREE ENERGY PREDICTED BY IDOCK:   -3.42 KCAL/MOL
REMARK 924 INTRA-LIGAND FREE ENERGY PREDICTED BY IDOCK:   -0.21 KCAL/MOL
REMARK 927      BINDING AFFINITY PREDICTED BY RF-SCORE:    0.00 PKD
ROOT
HETATM    1  C   UNL     1      -8.521   1.899  62.435  1.00  0.00    -0.072 C  
HETATM    2  N   UNL     1      -7.837   1.603  63.684  1.00  0.00    -0.059 NA 
HETATM    3  H   UNL     1      -7.178   0.827  63.745  1.00  0.00     0.000 HD 
ENDROOT
BRANCH   2   4
HETATM    4  C   UNL     1      -8.105   2.408  64.802  1.00  0.00    -0.082 A  
HETATM    5  C   UNL     1      -7.259   2.536  65.915  1.00  0.00    -0.065 A  
HETATM    6  F   UNL     1      -6.045   1.965  65.933  1.00  0.00    -0.020 F  
HETATM    7  C   UNL     1      -7.642   3.235  67.059  1.00  0.00    -0.075 A  
HETATM    8  C   UNL     1      -8.915   3.806  67.154  1.00  0.00    -0.159 A  
HETATM    9  C   UNL     1      -9.761   3.721  66.041  1.00  0.00    -0.136 A  
HETATM   10  C   UNL     1      -9.368   3.012  64.896  1.00  0.00    -0.147 A  
BRANCH   8  11
HETATM   11  C   UNL     1      -9.408   4.400  68.407  1.00  0.00    -0.147 A  
HETATM   12  N   UNL     1     -10.226   5.430  68.497  1.00  0.00    -0.178 NA 
HETATM   13  C   UNL     1     -10.594   5.630  69.823  1.00  0.00    -0.329 A  
HETATM   14  C   UNL     1     -11.465   6.632  70.307  1.00  0.00    -0.449 A  
HETATM   15  C   UNL     1     -11.778   6.682  71.672  1.00  0.00    -0.362 A  
HETATM   16  C   UNL     1     -11.227   5.753  72.543  1.00  0.00    -0.297 A  
HETATM   17  O   UNL     1     -11.518   5.766  73.879  1.00  0.00    -0.246 OA 
HETATM   18  C   UNL     1     -10.350   4.768  72.102  1.00  0.00    -0.256 A  
HETATM   19  C   UNL     1     -10.049   4.729  70.734  1.00  0.00    -0.216 A  
HETATM   20  H   UNL     1     -11.140   5.130  74.476  1.00  0.00     0.000 HD 
HETATM   21  S   UNL     1      -9.022   3.640  69.905  1.00  0.00    -0.120 SA 
ENDBRANCH   8  11
ENDBRANCH   2   4
TORSDOF 2
ENDMDL
MODEL      149
REMARK 921   NORMALIZED FREE ENERGY PREDICTED BY IDOCK:   -2.97 KCAL/MOL
REMARK 922        TOTAL FREE ENERGY PREDICTED BY IDOCK:   -3.52 KCAL/MOL
REMARK 923 INTER-LIGAND FREE ENERGY PREDICTED BY IDOCK:   -3.30 KCAL/MOL
REMARK 924 INTRA-LIGAND FREE ENERGY PREDICTED BY IDOCK:   -0.22 KCAL/MOL
REMARK 927      BINDING AFFINITY PREDICTED BY RF-SCORE:    0.00 PKD
ROOT
HETATM    1  C   UNL     1      -9.301   2.114  63.684  1.00  0.00    -0.102 C  
HETATM    2  N   UNL     1      -8.580   2.480  64.893  1.00  0.00    -0.096 NA 
HETATM    3  H   UNL     1      -8.009   1.794  65.386  1.00  0.00     0.000 HD 
ENDROOT
BRANCH   2   4
HETATM    4  C   UNL     1      -8.687   3.797  65.366  1.00  0.00    -0.117 A  
HETATM    5  C   UNL     1      -9.166   4.154  66.636  1.00  0.00    -0.155 A  
HETATM    6  F   UNL     1      -9.458   3.221  67.555  1.00  0.00    -0.203 F  
HETATM    7  C   UNL     1      -9.386   5.483  66.997  1.00  0.00    -0.118 A  
HETATM    8  C   UNL     1      -9.173   6.517  66.080  1.00  0.00    -0.126 A  
HETATM    9  C   UNL     1      -8.660   6.185  64.820  1.00  0.00     0.068 A  
HETATM   10  C   UNL     1      -8.446   4.844  64.464  1.00  0.00    -0.144 A  
BRANCH   8  11
HETATM   11  C   UNL     1      -9.556   7.907  66.374  1.00  0.00    -0.181 A  
HETATM   12  N   UNL     1     -10.532   8.279  67.179  1.00  0.00    -0.318 NA 
HETATM   13  C   UNL     1     -10.520   9.661  67.334  1.00  0.00    -0.257 A  
HETATM   14  C   UNL     1     -11.407  10.421  68.129  1.00  0.00    -0.284 A  
HETATM   15  C   UNL     1     -11.242  11.810  68.220  1.00  0.00    -0.313 A  
HETATM   16  C   UNL     1     -10.215  12.433  67.527  1.00  0.00    -0.209 A  
HETATM   17  O   UNL     1     -10.019  13.784  67.602  1.00  0.00    -0.230 OA 
HETATM   18  C   UNL     1      -9.338  11.716  66.721  1.00  0.00    -0.193 A  
HETATM   19  C   UNL     1      -9.513  10.328  66.641  1.00  0.00    -0.166 A  
HETATM   20  H   UNL     1      -9.315  14.211  67.127  1.00  0.00     0.000 HD 
HETATM   21  S   UNL     1      -8.596   9.193  65.747  1.00  0.00    -0.163 SA 
ENDBRANCH   8  11
ENDBRANCH   2   4
TORSDOF 2
ENDMDL
MODEL      150
REMARK 921   NORMALIZED FREE ENERGY PREDICTED BY IDOCK:   -2.95 KCAL/MOL
REMARK 922        TOTAL FREE ENERGY PREDICTED BY IDOCK:   -3.50 KCAL/MOL
REMARK 923 INTER-LIGAND FREE ENERGY PREDICTED BY IDOCK:   -3.28 KCAL/MOL
REMARK 924 INTRA-LIGAND FREE ENERGY PREDICTED BY IDOCK:   -0.22 KCAL/MOL
REMARK 927      BINDING AFFINITY PREDICTED BY RF-SCORE:    0.00 PKD
ROOT
HETATM    1  C   UNL     1      -9.593   5.725  74.499  1.00  0.00    -0.194 C  
HETATM    2  N   UNL     1     -10.192   6.866  73.825  1.00  0.00    -0.332 NA 
HETATM    3  H   UNL     1     -10.690   7.581  74.355  1.00  0.00     0.000 HD 
ENDROOT
BRANCH   2   4
HETATM    4  C   UNL     1     -10.071   6.961  72.430  1.00  0.00    -0.170 A  
HETATM    5  C   UNL     1     -11.074   6.608  71.514  1.00  0.00    -0.256 A  
HETATM    6  F   UNL     1     -12.298   6.251  71.930  1.00  0.00    -0.376 F  
HETATM    7  C   UNL     1     -10.846   6.587  70.139  1.00  0.00    -0.336 A  
HETATM    8  C   UNL     1      -9.582   6.881  69.620  1.00  0.00    -0.146 A  
HETATM    9  C   UNL     1      -8.576   7.271  70.513  1.00  0.00    -0.143 A  
HETATM   10  C   UNL     1      -8.814   7.285  71.897  1.00  0.00    -0.133 A  
BRANCH   8  11
HETATM   11  C   UNL     1      -9.267   6.702  68.193  1.00  0.00    -0.117 A  
HETATM   12  N   UNL     1      -8.538   7.521  67.461  1.00  0.00    -0.122 NA 
HETATM   13  C   UNL     1      -8.327   6.972  66.201  1.00  0.00    -0.130 A  
HETATM   14  C   UNL     1      -7.584   7.553  65.149  1.00  0.00    -0.096 A  
HETATM   15  C   UNL     1      -7.422   6.856  63.944  1.00  0.00    -0.095 A  
HETATM   16  C   UNL     1      -7.994   5.602  63.787  1.00  0.00    -0.120 A  
HETATM   17  O   UNL     1      -7.847   4.889  62.630  1.00  0.00    -0.060 OA 
HETATM   18  C   UNL     1      -8.747   5.011  64.796  1.00  0.00    -0.149 A  
HETATM   19  C   UNL     1      -8.899   5.719  65.995  1.00  0.00    -0.148 A  
HETATM   20  H   UNL     1      -8.239   4.030  62.522  1.00  0.00     0.000 HD 
HETATM   21  S   UNL     1      -9.753   5.250  67.402  1.00  0.00    -0.157 SA 
ENDBRANCH   8  11
ENDBRANCH   2   4
TORSDOF 2
ENDMDL
MODEL      151
REMARK 921   NORMALIZED FREE ENERGY PREDICTED BY IDOCK:   -2.86 KCAL/MOL
REMARK 922        TOTAL FREE ENERGY PREDICTED BY IDOCK:   -3.40 KCAL/MOL
REMARK 923 INTER-LIGAND FREE ENERGY PREDICTED BY IDOCK:   -3.18 KCAL/MOL
REMARK 924 INTRA-LIGAND FREE ENERGY PREDICTED BY IDOCK:   -0.22 KCAL/MOL
REMARK 927      BINDING AFFINITY PREDICTED BY RF-SCORE:    0.00 PKD
ROOT
HETATM    1  C   UNL     1      -6.814  15.292  68.041  1.00  0.00    -0.140 C  
HETATM    2  N   UNL     1      -7.475  14.293  68.863  1.00  0.00    -0.126 NA 
HETATM    3  H   UNL     1      -7.670  14.474  69.848  1.00  0.00     0.000 HD 
ENDROOT
BRANCH   2   4
HETATM    4  C   UNL     1      -7.841  13.073  68.273  1.00  0.00    -0.143 A  
HETATM    5  C   UNL     1      -9.160  12.609  68.147  1.00  0.00    -0.204 A  
HETATM    6  F   UNL     1     -10.202  13.380  68.493  1.00  0.00    -0.225 F  
HETATM    7  C   UNL     1      -9.453  11.327  67.683  1.00  0.00    -0.173 A  
HETATM    8  C   UNL     1      -8.427  10.432  67.362  1.00  0.00    -0.121 A  
HETATM    9  C   UNL     1      -7.105  10.887  67.447  1.00  0.00    -0.093 A  
HETATM   10  C   UNL     1      -6.820  12.178  67.918  1.00  0.00    -0.095 A  
BRANCH   8  11
HETATM   11  C   UNL     1      -8.700   9.024  67.035  1.00  0.00    -0.116 A  
HETATM   12  N   UNL     1      -9.821   8.380  67.294  1.00  0.00    -0.184 NA 
HETATM   13  C   UNL     1      -9.785   7.113  66.721  1.00  0.00    -0.192 A  
HETATM   14  C   UNL     1     -10.809   6.141  66.777  1.00  0.00    -0.360 A  
HETATM   15  C   UNL     1     -10.644   4.919  66.110  1.00  0.00    -0.322 A  
HETATM   16  C   UNL     1      -9.477   4.667  65.404  1.00  0.00    -0.171 A  
HETATM   17  O   UNL     1      -9.288   3.491  64.733  1.00  0.00    -0.137 OA 
HETATM   18  C   UNL     1      -8.443   5.595  65.346  1.00  0.00    -0.147 A  
HETATM   19  C   UNL     1      -8.622   6.813  66.016  1.00  0.00    -0.145 A  
HETATM   20  H   UNL     1      -8.488   3.318  64.249  1.00  0.00     0.000 HD 
HETATM   21  S   UNL     1      -7.543   8.136  66.117  1.00  0.00    -0.091 SA 
ENDBRANCH   8  11
ENDBRANCH   2   4
TORSDOF 2
ENDMDL
MODEL      152
REMARK 921   NORMALIZED FREE ENERGY PREDICTED BY IDOCK:   -2.81 KCAL/MOL
REMARK 922        TOTAL FREE ENERGY PREDICTED BY IDOCK:   -3.35 KCAL/MOL
REMARK 923 INTER-LIGAND FREE ENERGY PREDICTED BY IDOCK:   -3.12 KCAL/MOL
REMARK 924 INTRA-LIGAND FREE ENERGY PREDICTED BY IDOCK:   -0.22 KCAL/MOL
REMARK 927      BINDING AFFINITY PREDICTED BY RF-SCORE:    0.00 PKD
ROOT
HETATM    1  C   UNL     1     -10.800   2.636  63.355  1.00  0.00    -0.216 C  
HETATM    2  N   UNL     1     -10.214   2.862  64.666  1.00  0.00    -0.377 NA 
HETATM    3  H   UNL     1     -10.001   2.079  65.284  1.00  0.00     0.000 HD 
ENDROOT
BRANCH   2   4
HETATM    4  C   UNL     1      -9.949   4.182  65.064  1.00  0.00    -0.208 A  
HETATM    5  C   UNL     1      -8.767   4.882  64.774  1.00  0.00    -0.154 A  
HETATM    6  F   UNL     1      -7.828   4.356  63.975  1.00  0.00    -0.077 F  
HETATM    7  C   UNL     1      -8.499   6.138  65.317  1.00  0.00    -0.121 A  
HETATM    8  C   UNL     1      -9.392   6.734  66.213  1.00  0.00    -0.141 A  
HETATM    9  C   UNL     1     -10.594   6.069  66.487  1.00  0.00    -0.238 A  
HETATM   10  C   UNL     1     -10.853   4.803  65.939  1.00  0.00    -0.107 A  
BRANCH   8  11
HETATM   11  C   UNL     1      -9.060   7.975  66.931  1.00  0.00    -0.152 A  
HETATM   12  N   UNL     1      -8.007   8.155  67.704  1.00  0.00    -0.121 NA 
HETATM   13  C   UNL     1      -7.931   9.484  68.103  1.00  0.00    -0.094 A  
HETATM   14  C   UNL     1      -6.935  10.055  68.926  1.00  0.00    -0.062 A  
HETATM   15  C   UNL     1      -6.967  11.428  69.207  1.00  0.00    -0.115 A  
HETATM   16  C   UNL     1      -7.978  12.219  68.682  1.00  0.00    -0.050 A  
HETATM   17  O   UNL     1      -8.034  13.563  68.927  1.00  0.00    -0.317 OA 
HETATM   18  C   UNL     1      -8.984  11.684  67.885  1.00  0.00    -0.170 A  
HETATM   19  C   UNL     1      -8.938  10.311  67.611  1.00  0.00    -0.134 A  
HETATM   20  H   UNL     1      -8.727  14.105  68.567  1.00  0.00     0.000 HD 
HETATM   21  S   UNL     1     -10.019   9.382  66.665  1.00  0.00    -0.269 SA 
ENDBRANCH   8  11
ENDBRANCH   2   4
TORSDOF 2
ENDMDL
MODEL      153
REMARK 921   NORMALIZED FREE ENERGY PREDICTED BY IDOCK:   -2.63 KCAL/MOL
REMARK 922        TOTAL FREE ENERGY PREDICTED BY IDOCK:   -3.15 KCAL/MOL
REMARK 923 INTER-LIGAND FREE ENERGY PREDICTED BY IDOCK:   -2.92 KCAL/MOL
REMARK 924 INTRA-LIGAND FREE ENERGY PREDICTED BY IDOCK:   -0.22 KCAL/MOL
REMARK 927      BINDING AFFINITY PREDICTED BY RF-SCORE:    0.00 PKD
ROOT
HETATM    1  C   UNL     1      -7.133   8.502  74.242  1.00  0.00    -0.126 C  
HETATM    2  N   UNL     1      -8.370   8.344  73.496  1.00  0.00    -0.369 NA 
HETATM    3  H   UNL     1      -9.255   8.678  73.878  1.00  0.00     0.000 HD 
ENDROOT
BRANCH   2   4
HETATM    4  C   UNL     1      -8.321   7.722  72.238  1.00  0.00    -0.119 A  
HETATM    5  C   UNL     1      -7.941   8.358  71.046  1.00  0.00    -0.106 A  
HETATM    6  F   UNL     1      -7.475   9.617  71.050  1.00  0.00    -0.130 F  
HETATM    7  C   UNL     1      -8.049   7.731  69.806  1.00  0.00    -0.117 A  
HETATM    8  C   UNL     1      -8.586   6.445  69.700  1.00  0.00    -0.134 A  
HETATM    9  C   UNL     1      -8.937   5.778  70.881  1.00  0.00    -0.153 A  
HETATM   10  C   UNL     1      -8.829   6.419  72.125  1.00  0.00    -0.136 A  
BRANCH   8  11
HETATM   11  C   UNL     1      -8.870   5.826  68.395  1.00  0.00    -0.109 A  
HETATM   12  N   UNL     1      -8.046   5.050  67.720  1.00  0.00    -0.098 NA 
HETATM   13  C   UNL     1      -8.692   4.529  66.604  1.00  0.00    -0.111 A  
HETATM   14  C   UNL     1      -8.133   3.649  65.650  1.00  0.00    -0.093 A  
HETATM   15  C   UNL     1      -8.926   3.171  64.597  1.00  0.00    -0.124 A  
HETATM   16  C   UNL     1     -10.250   3.568  64.492  1.00  0.00    -0.135 A  
HETATM   17  O   UNL     1     -11.055   3.113  63.484  1.00  0.00    -0.305 OA 
HETATM   18  C   UNL     1     -10.824   4.448  65.402  1.00  0.00    -0.058 A  
HETATM   19  C   UNL     1     -10.021   4.915  66.451  1.00  0.00    -0.234 A  
HETATM   20  H   UNL     1     -11.963   3.385  63.412  1.00  0.00     0.000 HD 
HETATM   21  S   UNL     1     -10.445   5.988  67.715  1.00  0.00    -0.266 SA 
ENDBRANCH   8  11
ENDBRANCH   2   4
TORSDOF 2
ENDMDL
MODEL      154
REMARK 921   NORMALIZED FREE ENERGY PREDICTED BY IDOCK:   -2.61 KCAL/MOL
REMARK 922        TOTAL FREE ENERGY PREDICTED BY IDOCK:   -3.12 KCAL/MOL
REMARK 923 INTER-LIGAND FREE ENERGY PREDICTED BY IDOCK:   -2.89 KCAL/MOL
REMARK 924 INTRA-LIGAND FREE ENERGY PREDICTED BY IDOCK:   -0.23 KCAL/MOL
REMARK 927      BINDING AFFINITY PREDICTED BY RF-SCORE:    0.00 PKD
ROOT
HETATM    1  C   UNL     1      -5.849  13.917  72.647  1.00  0.00     0.292 C  
HETATM    2  N   UNL     1      -5.194  13.124  71.619  1.00  0.00    -0.275 NA 
HETATM    3  H   UNL     1      -4.287  12.693  71.793  1.00  0.00     0.000 HD 
ENDROOT
BRANCH   2   4
HETATM    4  C   UNL     1      -5.839  12.966  70.382  1.00  0.00    -0.152 A  
HETATM    5  C   UNL     1      -5.904  13.949  69.383  1.00  0.00    -0.093 A  
HETATM    6  F   UNL     1      -5.236  15.106  69.504  1.00  0.00    -0.090 F  
HETATM    7  C   UNL     1      -6.680  13.788  68.236  1.00  0.00    -0.109 A  
HETATM    8  C   UNL     1      -7.462  12.643  68.057  1.00  0.00    -0.120 A  
HETATM    9  C   UNL     1      -7.383  11.633  69.025  1.00  0.00    -0.074 A  
HETATM   10  C   UNL     1      -6.602  11.806  70.179  1.00  0.00     0.189 A  
BRANCH   8  11
HETATM   11  C   UNL     1      -8.417  12.520  66.945  1.00  0.00    -0.130 A  
HETATM   12  N   UNL     1      -8.273  11.738  65.893  1.00  0.00     0.238 NA 
HETATM   13  C   UNL     1      -9.427  11.766  65.118  1.00  0.00    -0.092 A  
HETATM   14  C   UNL     1      -9.648  11.048  63.922  1.00  0.00    -0.309 A  
HETATM   15  C   UNL     1     -10.886  11.144  63.271  1.00  0.00    -0.115 A  
HETATM   16  C   UNL     1     -11.885  11.947  63.800  1.00  0.00    -0.458 A  
HETATM   17  O   UNL     1     -13.108  12.056  63.198  1.00  0.00    -0.667 OA 
HETATM   18  C   UNL     1     -11.692  12.682  64.964  1.00  0.00    -0.401 A  
HETATM   19  C   UNL     1     -10.451  12.574  65.605  1.00  0.00    -0.273 A  
HETATM   20  H   UNL     1     -13.793  12.606  63.560  1.00  0.00     0.000 HD 
HETATM   21  S   UNL     1      -9.929  13.343  67.042  1.00  0.00    -0.252 SA 
ENDBRANCH   8  11
ENDBRANCH   2   4
TORSDOF 2
ENDMDL
MODEL      155
REMARK 921   NORMALIZED FREE ENERGY PREDICTED BY IDOCK:   -2.51 KCAL/MOL
REMARK 922        TOTAL FREE ENERGY PREDICTED BY IDOCK:   -3.01 KCAL/MOL
REMARK 923 INTER-LIGAND FREE ENERGY PREDICTED BY IDOCK:   -2.79 KCAL/MOL
REMARK 924 INTRA-LIGAND FREE ENERGY PREDICTED BY IDOCK:   -0.22 KCAL/MOL
REMARK 927      BINDING AFFINITY PREDICTED BY RF-SCORE:    0.00 PKD
ROOT
HETATM    1  C   UNL     1     -10.982   2.322  63.544  1.00  0.00    -0.114 C  
HETATM    2  N   UNL     1     -10.069   2.073  64.647  1.00  0.00    -0.327 NA 
HETATM    3  H   UNL     1      -9.901   1.123  64.980  1.00  0.00     0.000 HD 
ENDROOT
BRANCH   2   4
HETATM    4  C   UNL     1      -9.422   3.167  65.243  1.00  0.00    -0.107 A  
HETATM    5  C   UNL     1      -9.173   3.295  66.618  1.00  0.00    -0.160 A  
HETATM    6  F   UNL     1      -9.444   2.295  67.469  1.00  0.00    -0.202 F  
HETATM    7  C   UNL     1      -8.658   4.468  67.171  1.00  0.00    -0.104 A  
HETATM    8  C   UNL     1      -8.407   5.585  66.368  1.00  0.00    -0.111 A  
HETATM    9  C   UNL     1      -8.615   5.466  64.988  1.00  0.00    -0.142 A  
HETATM   10  C   UNL     1      -9.137   4.283  64.442  1.00  0.00    -0.150 A  
BRANCH   8  11
HETATM   11  C   UNL     1      -8.027   6.885  66.944  1.00  0.00    -0.109 A  
HETATM   12  N   UNL     1      -8.218   8.059  66.377  1.00  0.00    -0.109 NA 
HETATM   13  C   UNL     1      -7.870   9.076  67.259  1.00  0.00    -0.099 A  
HETATM   14  C   UNL     1      -7.951  10.464  67.009  1.00  0.00    -0.116 A  
HETATM   15  C   UNL     1      -7.604  11.374  68.018  1.00  0.00    -0.110 A  
HETATM   16  C   UNL     1      -7.179  10.909  69.254  1.00  0.00    -0.128 A  
HETATM   17  O   UNL     1      -6.843  11.767  70.263  1.00  0.00    -0.447 OA 
HETATM   18  C   UNL     1      -7.070   9.549  69.524  1.00  0.00    -0.068 A  
HETATM   19  C   UNL     1      -7.422   8.652  68.507  1.00  0.00    -0.093 A  
HETATM   20  H   UNL     1      -6.551  11.449  71.110  1.00  0.00     0.000 HD 
HETATM   21  S   UNL     1      -7.399   6.942  68.548  1.00  0.00    -0.092 SA 
ENDBRANCH   8  11
ENDBRANCH   2   4
TORSDOF 2
ENDMDL
MODEL      156
REMARK 921   NORMALIZED FREE ENERGY PREDICTED BY IDOCK:   -2.24 KCAL/MOL
REMARK 922        TOTAL FREE ENERGY PREDICTED BY IDOCK:   -2.71 KCAL/MOL
REMARK 923 INTER-LIGAND FREE ENERGY PREDICTED BY IDOCK:   -2.48 KCAL/MOL
REMARK 924 INTRA-LIGAND FREE ENERGY PREDICTED BY IDOCK:   -0.23 KCAL/MOL
REMARK 927      BINDING AFFINITY PREDICTED BY RF-SCORE:    0.00 PKD
ROOT
HETATM    1  C   UNL     1      -6.131   8.556  72.403  1.00  0.00    -0.071 C  
HETATM    2  N   UNL     1      -7.133   9.167  71.544  1.00  0.00    -0.297 NA 
HETATM    3  H   UNL     1      -7.426  10.133  71.691  1.00  0.00     0.000 HD 
ENDROOT
BRANCH   2   4
HETATM    4  C   UNL     1      -7.687   8.399  70.508  1.00  0.00    -0.080 A  
HETATM    5  C   UNL     1      -8.620   7.367  70.689  1.00  0.00    -0.141 A  
HETATM    6  F   UNL     1      -9.147   7.112  71.896  1.00  0.00    -0.134 F  
HETATM    7  C   UNL     1      -9.026   6.543  69.640  1.00  0.00    -0.141 A  
HETATM    8  C   UNL     1      -8.480   6.694  68.362  1.00  0.00    -0.125 A  
HETATM    9  C   UNL     1      -7.574   7.741  68.150  1.00  0.00    -0.116 A  
HETATM   10  C   UNL     1      -7.168   8.562  69.214  1.00  0.00    -0.063 A  
BRANCH   8  11
HETATM   11  C   UNL     1      -8.759   5.736  67.280  1.00  0.00    -0.108 A  
HETATM   12  N   UNL     1      -9.929   5.554  66.701  1.00  0.00    -0.168 NA 
HETATM   13  C   UNL     1      -9.799   4.679  65.628  1.00  0.00    -0.204 A  
HETATM   14  C   UNL     1     -10.833   4.255  64.764  1.00  0.00    -0.108 A  
HETATM   15  C   UNL     1     -10.537   3.400  63.693  1.00  0.00    -0.270 A  
HETATM   16  C   UNL     1      -9.235   2.970  63.489  1.00  0.00    -0.095 A  
HETATM   17  O   UNL     1      -8.909   2.145  62.448  1.00  0.00    -0.073 OA 
HETATM   18  C   UNL     1      -8.198   3.354  64.333  1.00  0.00    -0.086 A  
HETATM   19  C   UNL     1      -8.508   4.210  65.398  1.00  0.00    -0.110 A  
HETATM   20  H   UNL     1      -8.016   1.850  62.309  1.00  0.00     0.000 HD 
HETATM   21  S   UNL     1      -7.454   4.852  66.583  1.00  0.00    -0.088 SA 
ENDBRANCH   8  11
ENDBRANCH   2   4
TORSDOF 2
ENDMDL
MODEL      157
REMARK 921   NORMALIZED FREE ENERGY PREDICTED BY IDOCK:   -1.96 KCAL/MOL
REMARK 922        TOTAL FREE ENERGY PREDICTED BY IDOCK:   -2.40 KCAL/MOL
REMARK 923 INTER-LIGAND FREE ENERGY PREDICTED BY IDOCK:   -2.17 KCAL/MOL
REMARK 924 INTRA-LIGAND FREE ENERGY PREDICTED BY IDOCK:   -0.23 KCAL/MOL
REMARK 927      BINDING AFFINITY PREDICTED BY RF-SCORE:    0.00 PKD
ROOT
HETATM    1  C   UNL     1      -9.314  18.892  69.034  1.00  0.00    -0.217 C  
HETATM    2  N   UNL     1      -8.016  18.504  68.506  1.00  0.00    -0.317 NA 
HETATM    3  H   UNL     1      -7.259  19.184  68.433  1.00  0.00     0.000 HD 
ENDROOT
BRANCH   2   4
HETATM    4  C   UNL     1      -7.826  17.174  68.101  1.00  0.00    -0.206 A  
HETATM    5  C   UNL     1      -8.423  16.589  66.973  1.00  0.00    -0.197 A  
HETATM    6  F   UNL     1      -9.150  17.321  66.115  1.00  0.00    -0.273 F  
HETATM    7  C   UNL     1      -8.314  15.226  66.700  1.00  0.00    -0.216 A  
HETATM    8  C   UNL     1      -7.631  14.376  67.575  1.00  0.00    -0.212 A  
HETATM    9  C   UNL     1      -6.998  14.944  68.687  1.00  0.00    -0.108 A  
HETATM   10  C   UNL     1      -7.117  16.317  68.956  1.00  0.00    -0.196 A  
BRANCH   8  11
HETATM   11  C   UNL     1      -7.644  12.914  67.405  1.00  0.00    -0.148 A  
HETATM   12  N   UNL     1      -7.526  12.275  66.259  1.00  0.00     0.619 NA 
HETATM   13  C   UNL     1      -7.435  10.906  66.484  1.00  0.00    -0.142 A  
HETATM   14  C   UNL     1      -7.289   9.904  65.499  1.00  0.00    -0.122 A  
HETATM   15  C   UNL     1      -7.167   8.562  65.885  1.00  0.00    -0.076 A  
HETATM   16  C   UNL     1      -7.196   8.222  67.229  1.00  0.00    -0.084 A  
HETATM   17  O   UNL     1      -7.069   6.924  67.641  1.00  0.00    -0.080 OA 
HETATM   18  C   UNL     1      -7.358   9.182  68.222  1.00  0.00    -0.079 A  
HETATM   19  C   UNL     1      -7.477  10.520  67.821  1.00  0.00    -0.087 A  
HETATM   20  H   UNL     1      -7.089   6.692  68.563  1.00  0.00     0.000 HD 
HETATM   21  S   UNL     1      -7.677  11.906  68.803  1.00  0.00    -0.023 SA 
ENDBRANCH   8  11
ENDBRANCH   2   4
TORSDOF 2
ENDMDL
MODEL      158
REMARK 921   NORMALIZED FREE ENERGY PREDICTED BY IDOCK:   -1.68 KCAL/MOL
REMARK 922        TOTAL FREE ENERGY PREDICTED BY IDOCK:   -2.08 KCAL/MOL
REMARK 923 INTER-LIGAND FREE ENERGY PREDICTED BY IDOCK:   -2.32 KCAL/MOL
REMARK 924 INTRA-LIGAND FREE ENERGY PREDICTED BY IDOCK:    0.24 KCAL/MOL
REMARK 927      BINDING AFFINITY PREDICTED BY RF-SCORE:    0.00 PKD
ROOT
HETATM    1  C   UNL     1      -5.869  14.694  72.714  1.00  0.00     0.353 C  
HETATM    2  N   UNL     1      -5.185  13.493  72.262  1.00  0.00    -0.322 NA 
HETATM    3  H   UNL     1      -4.478  13.045  72.845  1.00  0.00     0.000 HD 
ENDROOT
BRANCH   2   4
HETATM    4  C   UNL     1      -5.521  12.962  71.006  1.00  0.00    -0.176 A  
HETATM    5  C   UNL     1      -6.214  13.658  70.004  1.00  0.00    -0.109 A  
HETATM    6  F   UNL     1      -6.513  14.958  70.142  1.00  0.00    -0.146 F  
HETATM    7  C   UNL     1      -6.647  13.034  68.834  1.00  0.00    -0.094 A  
HETATM    8  C   UNL     1      -6.438  11.666  68.635  1.00  0.00    -0.059 A  
HETATM    9  C   UNL     1      -5.716  10.961  69.606  1.00  0.00    -0.046 A  
HETATM   10  C   UNL     1      -5.289  11.596  70.783  1.00  0.00    -0.141 A  
BRANCH   8  11
HETATM   11  C   UNL     1      -7.029  10.948  67.494  1.00  0.00    -0.084 A  
HETATM   12  N   UNL     1      -8.023  11.383  66.747  1.00  0.00    -0.158 NA 
HETATM   13  C   UNL     1      -8.228  10.519  65.677  1.00  0.00    -0.161 A  
HETATM   14  C   UNL     1      -9.198  10.663  64.660  1.00  0.00    -0.262 A  
HETATM   15  C   UNL     1      -9.255   9.728  63.617  1.00  0.00    -0.229 A  
HETATM   16  C   UNL     1      -8.365   8.665  63.590  1.00  0.00    -0.112 A  
HETATM   17  O   UNL     1      -8.386   7.741  62.582  1.00  0.00    -0.324 OA 
HETATM   18  C   UNL     1      -7.413   8.484  64.586  1.00  0.00    -0.096 A  
HETATM   19  C   UNL     1      -7.366   9.427  65.622  1.00  0.00    -0.092 A  
HETATM   20  H   UNL     1      -7.776   7.012  62.564  1.00  0.00     0.000 HD 
HETATM   21  S   UNL     1      -6.309   9.473  66.967  1.00  0.00    -0.066 SA 
ENDBRANCH   8  11
ENDBRANCH   2   4
TORSDOF 2
ENDMDL
MODEL      159
REMARK 921   NORMALIZED FREE ENERGY PREDICTED BY IDOCK:   -1.62 KCAL/MOL
REMARK 922        TOTAL FREE ENERGY PREDICTED BY IDOCK:   -2.02 KCAL/MOL
REMARK 923 INTER-LIGAND FREE ENERGY PREDICTED BY IDOCK:   -1.80 KCAL/MOL
REMARK 924 INTRA-LIGAND FREE ENERGY PREDICTED BY IDOCK:   -0.22 KCAL/MOL
REMARK 927      BINDING AFFINITY PREDICTED BY RF-SCORE:    0.00 PKD
ROOT
HETATM    1  C   UNL     1      -5.130  18.850  64.013  1.00  0.00    -0.202 C  
HETATM    2  N   UNL     1      -6.282  19.536  64.577  1.00  0.00    -0.382 NA 
HETATM    3  H   UNL     1      -6.346  20.553  64.552  1.00  0.00     0.000 HD 
ENDROOT
BRANCH   2   4
HETATM    4  C   UNL     1      -7.303  18.766  65.157  1.00  0.00     0.723 A  
HETATM    5  C   UNL     1      -8.565  19.259  65.523  1.00  0.00     0.746 A  
HETATM    6  F   UNL     1      -8.931  20.516  65.229  1.00  0.00     0.042 F  
HETATM    7  C   UNL     1      -9.486  18.484  66.227  1.00  0.00    -0.256 A  
HETATM    8  C   UNL     1      -9.164  17.185  66.633  1.00  0.00    -0.280 A  
HETATM    9  C   UNL     1      -7.924  16.662  66.247  1.00  0.00    -0.340 A  
HETATM   10  C   UNL     1      -7.002  17.451  65.542  1.00  0.00     0.566 A  
BRANCH   8  11
HETATM   11  C   UNL     1     -10.045  16.408  67.519  1.00  0.00    -0.261 A  
HETATM   12  N   UNL     1      -9.959  15.111  67.740  1.00  0.00    -0.224 NA 
HETATM   13  C   UNL     1     -10.854  14.738  68.737  1.00  0.00    -0.255 A  
HETATM   14  C   UNL     1     -11.039  13.434  69.249  1.00  0.00    -0.216 A  
HETATM   15  C   UNL     1     -11.953  13.220  70.290  1.00  0.00    -0.372 A  
HETATM   16  C   UNL     1     -12.674  14.284  70.809  1.00  0.00    -0.350 A  
HETATM   17  O   UNL     1     -13.566  14.113  71.832  1.00  0.00    -0.354 OA 
HETATM   18  C   UNL     1     -12.530  15.575  70.313  1.00  0.00    -0.403 A  
HETATM   19  C   UNL     1     -11.612  15.775  69.274  1.00  0.00    -0.373 A  
HETATM   20  H   UNL     1     -14.061  14.842  72.187  1.00  0.00     0.000 HD 
HETATM   21  S   UNL     1     -11.216  17.236  68.475  1.00  0.00     0.394 SA 
ENDBRANCH   8  11
ENDBRANCH   2   4
TORSDOF 2
ENDMDL
MODEL      160
REMARK 921   NORMALIZED FREE ENERGY PREDICTED BY IDOCK:   -1.36 KCAL/MOL
REMARK 922        TOTAL FREE ENERGY PREDICTED BY IDOCK:   -1.73 KCAL/MOL
REMARK 923 INTER-LIGAND FREE ENERGY PREDICTED BY IDOCK:   -2.01 KCAL/MOL
REMARK 924 INTRA-LIGAND FREE ENERGY PREDICTED BY IDOCK:    0.28 KCAL/MOL
REMARK 927      BINDING AFFINITY PREDICTED BY RF-SCORE:    0.00 PKD
ROOT
HETATM    1  C   UNL     1      -6.680   4.548  74.468  1.00  0.00    -0.065 C  
HETATM    2  N   UNL     1      -5.934   4.787  73.243  1.00  0.00    -0.020 NA 
HETATM    3  H   UNL     1      -4.935   4.992  73.273  1.00  0.00     0.000 HD 
ENDROOT
BRANCH   2   4
HETATM    4  C   UNL     1      -6.618   4.728  72.019  1.00  0.00    -0.038 A  
HETATM    5  C   UNL     1      -8.014   4.698  71.884  1.00  0.00    -0.100 A  
HETATM    6  F   UNL     1      -8.817   4.841  72.949  1.00  0.00    -0.114 F  
HETATM    7  C   UNL     1      -8.635   4.494  70.652  1.00  0.00    -0.118 A  
HETATM    8  C   UNL     1      -7.876   4.269  69.499  1.00  0.00    -0.057 A  
HETATM    9  C   UNL     1      -6.481   4.331  69.605  1.00  0.00    -0.033 A  
HETATM   10  C   UNL     1      -5.866   4.533  70.850  1.00  0.00    -0.017 A  
BRANCH   8  11
HETATM   11  C   UNL     1      -8.499   3.883  68.223  1.00  0.00    -0.092 A  
HETATM   12  N   UNL     1      -9.391   4.592  67.560  1.00  0.00    -0.135 NA 
HETATM   13  C   UNL     1      -9.653   3.998  66.331  1.00  0.00    -0.202 A  
HETATM   14  C   UNL     1     -10.545   4.475  65.344  1.00  0.00    -0.195 A  
HETATM   15  C   UNL     1     -10.672   3.786  64.130  1.00  0.00    -0.240 A  
HETATM   16  C   UNL     1      -9.926   2.639  63.903  1.00  0.00    -0.147 A  
HETATM   17  O   UNL     1     -10.017   1.949  62.726  1.00  0.00    -0.095 OA 
HETATM   18  C   UNL     1      -9.055   2.132  64.861  1.00  0.00    -0.130 A  
HETATM   19  C   UNL     1      -8.937   2.832  66.070  1.00  0.00    -0.142 A  
HETATM   20  H   UNL     1      -9.507   1.162  62.571  1.00  0.00     0.000 HD 
HETATM   21  S   UNL     1      -7.951   2.461  67.417  1.00  0.00    -0.066 SA 
ENDBRANCH   8  11
ENDBRANCH   2   4
TORSDOF 2
ENDMDL
MODEL      161
REMARK 921   NORMALIZED FREE ENERGY PREDICTED BY IDOCK:   -1.11 KCAL/MOL
REMARK 922        TOTAL FREE ENERGY PREDICTED BY IDOCK:   -1.44 KCAL/MOL
REMARK 923 INTER-LIGAND FREE ENERGY PREDICTED BY IDOCK:   -1.57 KCAL/MOL
REMARK 924 INTRA-LIGAND FREE ENERGY PREDICTED BY IDOCK:    0.12 KCAL/MOL
REMARK 927      BINDING AFFINITY PREDICTED BY RF-SCORE:    0.00 PKD
ROOT
HETATM    1  C   UNL     1      -5.649  15.635  71.485  1.00  0.00     0.347 C  
HETATM    2  N   UNL     1      -5.166  14.284  71.725  1.00  0.00    -0.165 NA 
HETATM    3  H   UNL     1      -4.591  14.074  72.542  1.00  0.00     0.000 HD 
ENDROOT
BRANCH   2   4
HETATM    4  C   UNL     1      -5.508  13.276  70.811  1.00  0.00    -0.174 A  
HETATM    5  C   UNL     1      -5.750  13.485  69.444  1.00  0.00    -0.089 A  
HETATM    6  F   UNL     1      -5.553  14.687  68.881  1.00  0.00    -0.084 F  
HETATM    7  C   UNL     1      -6.227  12.472  68.613  1.00  0.00    -0.069 A  
HETATM    8  C   UNL     1      -6.523  11.206  69.129  1.00  0.00    -0.074 A  
HETATM    9  C   UNL     1      -6.255  10.966  70.482  1.00  0.00    -0.072 A  
HETATM   10  C   UNL     1      -5.779  11.994  71.311  1.00  0.00     0.272 A  
BRANCH   8  11
HETATM   11  C   UNL     1      -7.186  10.173  68.317  1.00  0.00    -0.080 A  
HETATM   12  N   UNL     1      -6.591   9.394  67.435  1.00  0.00    -0.063 NA 
HETATM   13  C   UNL     1      -7.487   8.442  66.961  1.00  0.00    -0.088 A  
HETATM   14  C   UNL     1      -7.210   7.431  66.014  1.00  0.00    -0.070 A  
HETATM   15  C   UNL     1      -8.209   6.512  65.665  1.00  0.00    -0.137 A  
HETATM   16  C   UNL     1      -9.466   6.601  66.246  1.00  0.00    -0.074 A  
HETATM   17  O   UNL     1     -10.460   5.715  65.937  1.00  0.00    -0.443 OA 
HETATM   18  C   UNL     1      -9.776   7.596  67.166  1.00  0.00    -0.239 A  
HETATM   19  C   UNL     1      -8.767   8.507  67.506  1.00  0.00    -0.135 A  
HETATM   20  H   UNL     1     -11.321   5.776  66.335  1.00  0.00     0.000 HD 
HETATM   21  S   UNL     1      -8.848   9.818  68.602  1.00  0.00    -0.130 SA 
ENDBRANCH   8  11
ENDBRANCH   2   4
TORSDOF 2
ENDMDL
MODEL      162
REMARK 921   NORMALIZED FREE ENERGY PREDICTED BY IDOCK:   -1.03 KCAL/MOL
REMARK 922        TOTAL FREE ENERGY PREDICTED BY IDOCK:   -1.36 KCAL/MOL
REMARK 923 INTER-LIGAND FREE ENERGY PREDICTED BY IDOCK:   -1.21 KCAL/MOL
REMARK 924 INTRA-LIGAND FREE ENERGY PREDICTED BY IDOCK:   -0.15 KCAL/MOL
REMARK 927      BINDING AFFINITY PREDICTED BY RF-SCORE:    0.00 PKD
ROOT
HETATM    1  C   UNL     1      -7.597  10.945  64.220  1.00  0.00     0.489 C  
HETATM    2  N   UNL     1      -7.254   9.569  63.901  1.00  0.00    -0.107 NA 
HETATM    3  H   UNL     1      -6.897   9.321  62.978  1.00  0.00     0.000 HD 
ENDROOT
BRANCH   2   4
HETATM    4  C   UNL     1      -7.424   8.588  64.892  1.00  0.00    -0.094 A  
HETATM    5  C   UNL     1      -8.622   8.348  65.581  1.00  0.00    -0.174 A  
HETATM    6  F   UNL     1      -9.754   8.985  65.248  1.00  0.00    -0.287 F  
HETATM    7  C   UNL     1      -8.694   7.460  66.655  1.00  0.00    -0.141 A  
HETATM    8  C   UNL     1      -7.549   6.802  67.114  1.00  0.00    -0.099 A  
HETATM    9  C   UNL     1      -6.350   7.000  66.417  1.00  0.00    -0.050 A  
HETATM   10  C   UNL     1      -6.287   7.898  65.340  1.00  0.00    -0.041 A  
BRANCH   8  11
HETATM   11  C   UNL     1      -7.558   5.995  68.344  1.00  0.00    -0.091 A  
HETATM   12  N   UNL     1      -6.491   5.588  69.002  1.00  0.00    -0.040 NA 
HETATM   13  C   UNL     1      -6.869   4.974  70.190  1.00  0.00    -0.044 A  
HETATM   14  C   UNL     1      -6.002   4.423  71.161  1.00  0.00    -0.017 A  
HETATM   15  C   UNL     1      -6.533   3.874  72.336  1.00  0.00    -0.017 A  
HETATM   16  C   UNL     1      -7.905   3.868  72.540  1.00  0.00    -0.080 A  
HETATM   17  O   UNL     1      -8.456   3.349  73.679  1.00  0.00    -0.074 OA 
HETATM   18  C   UNL     1      -8.786   4.384  71.596  1.00  0.00    -0.138 A  
HETATM   19  C   UNL     1      -8.241   4.932  70.427  1.00  0.00    -0.088 A  
HETATM   20  H   UNL     1      -9.396   3.345  73.818  1.00  0.00     0.000 HD 
HETATM   21  S   UNL     1      -9.063   5.640  69.105  1.00  0.00    -0.113 SA 
ENDBRANCH   8  11
ENDBRANCH   2   4
TORSDOF 2
ENDMDL
MODEL      163
REMARK 921   NORMALIZED FREE ENERGY PREDICTED BY IDOCK:    1.85 KCAL/MOL
REMARK 922        TOTAL FREE ENERGY PREDICTED BY IDOCK:    1.86 KCAL/MOL
REMARK 923 INTER-LIGAND FREE ENERGY PREDICTED BY IDOCK:    2.06 KCAL/MOL
REMARK 924 INTRA-LIGAND FREE ENERGY PREDICTED BY IDOCK:   -0.20 KCAL/MOL
REMARK 927      BINDING AFFINITY PREDICTED BY RF-SCORE:    0.00 PKD
ROOT
HETATM    1  C   UNL     1     -12.755  17.030  68.725  1.00  0.00     3.943 C  
HETATM    2  N   UNL     1     -12.593  15.829  69.529  1.00  0.00    -0.478 NA 
HETATM    3  H   UNL     1     -13.019  15.759  70.453  1.00  0.00     0.000 HD 
ENDROOT
BRANCH   2   4
HETATM    4  C   UNL     1     -11.838  14.768  69.005  1.00  0.00    -0.302 A  
HETATM    5  C   UNL     1     -12.207  13.415  69.070  1.00  0.00    -0.148 A  
HETATM    6  F   UNL     1     -13.402  13.045  69.554  1.00  0.00     0.947 F  
HETATM    7  C   UNL     1     -11.350  12.394  68.661  1.00  0.00    -0.332 A  
HETATM    8  C   UNL     1     -10.061  12.683  68.206  1.00  0.00    -0.233 A  
HETATM    9  C   UNL     1      -9.685  14.028  68.099  1.00  0.00    -0.220 A  
HETATM   10  C   UNL     1     -10.553  15.049  68.516  1.00  0.00    -0.235 A  
BRANCH   8  11
HETATM   11  C   UNL     1      -9.078  11.623  67.931  1.00  0.00    -0.171 A  
HETATM   12  N   UNL     1      -8.722  10.671  68.770  1.00  0.00    -0.150 NA 
HETATM   13  C   UNL     1      -7.885   9.762  68.133  1.00  0.00    -0.085 A  
HETATM   14  C   UNL     1      -7.312   8.606  68.709  1.00  0.00    -0.083 A  
HETATM   15  C   UNL     1      -6.519   7.758  67.923  1.00  0.00    -0.051 A  
HETATM   16  C   UNL     1      -6.296   8.058  66.588  1.00  0.00    -0.054 A  
HETATM   17  O   UNL     1      -5.536   7.248  65.791  1.00  0.00    -0.030 OA 
HETATM   18  C   UNL     1      -6.828   9.199  65.997  1.00  0.00    -0.084 A  
HETATM   19  C   UNL     1      -7.621  10.036  66.793  1.00  0.00    -0.103 A  
HETATM   20  H   UNL     1      -5.383   7.454  64.875  1.00  0.00     0.000 HD 
HETATM   21  S   UNL     1      -8.408  11.488  66.348  1.00  0.00    -0.065 SA 
ENDBRANCH   8  11
ENDBRANCH   2   4
TORSDOF 2
ENDMDL
MODEL      164
REMARK 921   NORMALIZED FREE ENERGY PREDICTED BY IDOCK:    4.89 KCAL/MOL
REMARK 922        TOTAL FREE ENERGY PREDICTED BY IDOCK:    5.25 KCAL/MOL
REMARK 923 INTER-LIGAND FREE ENERGY PREDICTED BY IDOCK:    5.33 KCAL/MOL
REMARK 924 INTRA-LIGAND FREE ENERGY PREDICTED BY IDOCK:   -0.08 KCAL/MOL
REMARK 927      BINDING AFFINITY PREDICTED BY RF-SCORE:    0.00 PKD
ROOT
HETATM    1  C   UNL     1      -5.633  10.836  65.251  1.00  0.00    -0.106 C  
HETATM    2  N   UNL     1      -6.727  10.966  66.200  1.00  0.00    -0.226 NA 
HETATM    3  H   UNL     1      -7.117  10.144  66.661  1.00  0.00     0.000 HD 
ENDROOT
BRANCH   2   4
HETATM    4  C   UNL     1      -7.234  12.247  66.469  1.00  0.00     0.502 A  
HETATM    5  C   UNL     1      -6.462  13.338  66.898  1.00  0.00     1.029 A  
HETATM    6  F   UNL     1      -5.126  13.256  66.974  1.00  0.00     0.117 F  
HETATM    7  C   UNL     1      -7.041  14.546  67.288  1.00  0.00    -0.002 A  
HETATM    8  C   UNL     1      -8.430  14.700  67.304  1.00  0.00    -0.234 A  
HETATM    9  C   UNL     1      -9.217  13.636  66.845  1.00  0.00    -0.257 A  
HETATM   10  C   UNL     1      -8.626  12.423  66.458  1.00  0.00    -0.005 A  
BRANCH   8  11
HETATM   11  C   UNL     1      -9.073  15.897  67.869  1.00  0.00    -0.190 A  
HETATM   12  N   UNL     1      -9.751  15.941  68.999  1.00  0.00    -0.228 NA 
HETATM   13  C   UNL     1     -10.093  17.256  69.297  1.00  0.00    -0.179 A  
HETATM   14  C   UNL     1     -10.812  17.696  70.431  1.00  0.00     1.417 A  
HETATM   15  C   UNL     1     -11.043  19.066  70.618  1.00  0.00     3.944 A  
HETATM   16  C   UNL     1     -10.572  19.982  69.690  1.00  0.00     0.608 A  
HETATM   17  O   UNL     1     -10.770  21.326  69.846  1.00  0.00     0.236 OA 
HETATM   18  C   UNL     1      -9.878  19.579  68.554  1.00  0.00    -0.518 A  
HETATM   19  C   UNL     1      -9.652  18.207  68.380  1.00  0.00    -0.337 A  
HETATM   20  H   UNL     1     -10.447  21.953  69.210  1.00  0.00     0.000 HD 
HETATM   21  S   UNL     1      -8.832  17.421  67.101  1.00  0.00    -0.238 SA 
ENDBRANCH   8  11
ENDBRANCH   2   4
TORSDOF 2
ENDMDL
MODEL      165
REMARK 921   NORMALIZED FREE ENERGY PREDICTED BY IDOCK:   10.41 KCAL/MOL
REMARK 922        TOTAL FREE ENERGY PREDICTED BY IDOCK:   11.42 KCAL/MOL
REMARK 923 INTER-LIGAND FREE ENERGY PREDICTED BY IDOCK:   11.63 KCAL/MOL
REMARK 924 INTRA-LIGAND FREE ENERGY PREDICTED BY IDOCK:   -0.21 KCAL/MOL
REMARK 927      BINDING AFFINITY PREDICTED BY RF-SCORE:    0.00 PKD
ROOT
HETATM    1  C   UNL     1     -13.245   6.844  70.492  1.00  0.00     0.817 C  
HETATM    2  N   UNL     1     -12.143   7.365  71.285  1.00  0.00    -0.315 NA 
HETATM    3  H   UNL     1     -11.591   6.746  71.879  1.00  0.00     0.000 HD 
ENDROOT
BRANCH   2   4
HETATM    4  C   UNL     1     -11.857   8.737  71.216  1.00  0.00    -0.303 A  
HETATM    5  C   UNL     1     -11.056   9.434  72.134  1.00  0.00     0.273 A  
HETATM    6  F   UNL     1     -10.397   8.790  73.108  1.00  0.00    -0.054 F  
HETATM    7  C   UNL     1     -10.924  10.822  72.097  1.00  0.00     4.837 A  
HETATM    8  C   UNL     1     -11.627  11.581  71.157  1.00  0.00     0.866 A  
HETATM    9  C   UNL     1     -12.403  10.903  70.209  1.00  0.00    -0.412 A  
HETATM   10  C   UNL     1     -12.533   9.506  70.256  1.00  0.00     0.240 A  
BRANCH   8  11
HETATM   11  C   UNL     1     -11.642  13.052  71.201  1.00  0.00     1.364 A  
HETATM   12  N   UNL     1     -11.959  13.784  72.251  1.00  0.00     0.646 NA 
HETATM   13  C   UNL     1     -11.727  15.128  71.981  1.00  0.00    -0.422 A  
HETATM   14  C   UNL     1     -11.938  16.208  72.868  1.00  0.00    -0.623 A  
HETATM   15  C   UNL     1     -11.615  17.511  72.465  1.00  0.00     1.637 A  
HETATM   16  C   UNL     1     -11.096  17.737  71.200  1.00  0.00     2.408 A  
HETATM   17  O   UNL     1     -10.760  18.994  70.779  1.00  0.00     0.908 OA 
HETATM   18  C   UNL     1     -10.895  16.699  70.297  1.00  0.00    -0.062 A  
HETATM   19  C   UNL     1     -11.220  15.401  70.713  1.00  0.00    -0.346 A  
HETATM   20  H   UNL     1     -10.404  19.148  69.911  1.00  0.00     0.000 HD 
HETATM   21  S   UNL     1     -11.076  13.939  69.836  1.00  0.00     0.170 SA 
ENDBRANCH   8  11
ENDBRANCH   2   4
TORSDOF 2
ENDMDL
MODEL      166
REMARK 921   NORMALIZED FREE ENERGY PREDICTED BY IDOCK:   14.12 KCAL/MOL
REMARK 922        TOTAL FREE ENERGY PREDICTED BY IDOCK:   15.57 KCAL/MOL
REMARK 923 INTER-LIGAND FREE ENERGY PREDICTED BY IDOCK:   15.78 KCAL/MOL
REMARK 924 INTRA-LIGAND FREE ENERGY PREDICTED BY IDOCK:   -0.21 KCAL/MOL
REMARK 927      BINDING AFFINITY PREDICTED BY RF-SCORE:    0.00 PKD
ROOT
HETATM    1  C   UNL     1      -7.418   4.589  63.863  1.00  0.00    -0.059 C  
HETATM    2  N   UNL     1      -7.699   6.015  63.902  1.00  0.00    -0.095 NA 
HETATM    3  H   UNL     1      -7.213   6.659  63.278  1.00  0.00     0.000 HD 
ENDROOT
BRANCH   2   4
HETATM    4  C   UNL     1      -8.656   6.486  64.815  1.00  0.00     0.164 A  
HETATM    5  C   UNL     1      -9.838   7.154  64.460  1.00  0.00     3.685 A  
HETATM    6  F   UNL     1     -10.198   7.293  63.175  1.00  0.00     4.650 F  
HETATM    7  C   UNL     1     -10.679   7.726  65.414  1.00  0.00     4.519 A  
HETATM    8  C   UNL     1     -10.349   7.688  66.772  1.00  0.00    -0.343 A  
HETATM    9  C   UNL     1      -9.193   6.994  67.150  1.00  0.00    -0.153 A  
HETATM   10  C   UNL     1      -8.350   6.425  66.183  1.00  0.00    -0.128 A  
BRANCH   8  11
HETATM   11  C   UNL     1     -11.125   8.427  67.781  1.00  0.00     0.392 A  
HETATM   12  N   UNL     1     -11.386   8.010  69.004  1.00  0.00     0.429 NA 
HETATM   13  C   UNL     1     -12.016   9.017  69.726  1.00  0.00     0.697 A  
HETATM   14  C   UNL     1     -12.437   8.942  71.072  1.00  0.00    -0.181 A  
HETATM   15  C   UNL     1     -13.022  10.061  71.681  1.00  0.00    -0.554 A  
HETATM   16  C   UNL     1     -13.190  11.233  70.959  1.00  0.00     0.091 A  
HETATM   17  O   UNL     1     -13.748  12.347  71.525  1.00  0.00     0.114 OA 
HETATM   18  C   UNL     1     -12.805  11.333  69.627  1.00  0.00     0.318 A  
HETATM   19  C   UNL     1     -12.219  10.207  69.033  1.00  0.00     0.681 A  
HETATM   20  H   UNL     1     -13.863  13.150  71.030  1.00  0.00     0.000 HD 
HETATM   21  S   UNL     1     -11.644  10.033  67.431  1.00  0.00     1.549 SA 
ENDBRANCH   8  11
ENDBRANCH   2   4
TORSDOF 2
ENDMDL
MODEL      167
REMARK 921   NORMALIZED FREE ENERGY PREDICTED BY IDOCK:   15.95 KCAL/MOL
REMARK 922        TOTAL FREE ENERGY PREDICTED BY IDOCK:   17.61 KCAL/MOL
REMARK 923 INTER-LIGAND FREE ENERGY PREDICTED BY IDOCK:   17.32 KCAL/MOL
REMARK 924 INTRA-LIGAND FREE ENERGY PREDICTED BY IDOCK:    0.29 KCAL/MOL
REMARK 927      BINDING AFFINITY PREDICTED BY RF-SCORE:    0.00 PKD
ROOT
HETATM    1  C   UNL     1      -6.891  20.964  72.848  1.00  0.00     4.922 C  
HETATM    2  N   UNL     1      -8.174  21.046  72.168  1.00  0.00     1.538 NA 
HETATM    3  H   UNL     1      -8.746  21.888  72.234  1.00  0.00     0.000 HD 
ENDROOT
BRANCH   2   4
HETATM    4  C   UNL     1      -8.608  19.941  71.419  1.00  0.00     2.654 A  
HETATM    5  C   UNL     1      -7.782  18.887  70.997  1.00  0.00     3.870 A  
HETATM    6  F   UNL     1      -6.502  18.808  71.391  1.00  0.00     0.585 F  
HETATM    7  C   UNL     1      -8.237  17.891  70.134  1.00  0.00     2.506 A  
HETATM    8  C   UNL     1      -9.537  17.929  69.621  1.00  0.00     0.584 A  
HETATM    9  C   UNL     1     -10.388  18.952  70.058  1.00  0.00     1.106 A  
HETATM   10  C   UNL     1      -9.920  19.953  70.924  1.00  0.00     1.658 A  
BRANCH   8  11
HETATM   11  C   UNL     1      -9.989  16.992  68.580  1.00  0.00    -0.294 A  
HETATM   12  N   UNL     1      -9.958  15.677  68.667  1.00  0.00    -0.203 NA 
HETATM   13  C   UNL     1     -10.593  15.112  67.567  1.00  0.00    -0.269 A  
HETATM   14  C   UNL     1     -10.766  13.732  67.318  1.00  0.00    -0.286 A  
HETATM   15  C   UNL     1     -11.469  13.313  66.180  1.00  0.00    -0.359 A  
HETATM   16  C   UNL     1     -11.987  14.253  65.301  1.00  0.00    -0.389 A  
HETATM   17  O   UNL     1     -12.687  13.880  64.188  1.00  0.00    -0.665 OA 
HETATM   18  C   UNL     1     -11.816  15.617  65.507  1.00  0.00     0.472 A  
HETATM   19  C   UNL     1     -11.113  16.021  66.650  1.00  0.00     0.006 A  
HETATM   20  H   UNL     1     -13.042  14.524  63.585  1.00  0.00     0.000 HD 
HETATM   21  S   UNL     1     -10.756  17.613  67.167  1.00  0.00    -0.118 SA 
ENDBRANCH   8  11
ENDBRANCH   2   4
TORSDOF 2
ENDMDL
MODEL      168
REMARK 921   NORMALIZED FREE ENERGY PREDICTED BY IDOCK:   20.55 KCAL/MOL
REMARK 922        TOTAL FREE ENERGY PREDICTED BY IDOCK:   22.75 KCAL/MOL
REMARK 923 INTER-LIGAND FREE ENERGY PREDICTED BY IDOCK:   22.97 KCAL/MOL
REMARK 924 INTRA-LIGAND FREE ENERGY PREDICTED BY IDOCK:   -0.21 KCAL/MOL
REMARK 927      BINDING AFFINITY PREDICTED BY RF-SCORE:    0.00 PKD
ROOT
HETATM    1  C   UNL     1     -12.126   1.771  73.555  1.00  0.00    -0.091 C  
HETATM    2  N   UNL     1     -11.013   2.659  73.261  1.00  0.00    -0.172 NA 
HETATM    3  H   UNL     1     -10.139   2.589  73.782  1.00  0.00     0.000 HD 
ENDROOT
BRANCH   2   4
HETATM    4  C   UNL     1     -11.167   3.615  72.245  1.00  0.00     0.866 A  
HETATM    5  C   UNL     1     -10.216   3.882  71.247  1.00  0.00     0.098 A  
HETATM    6  F   UNL     1      -9.107   3.136  71.129  1.00  0.00    -0.126 F  
HETATM    7  C   UNL     1     -10.360   4.941  70.352  1.00  0.00    -0.248 A  
HETATM    8  C   UNL     1     -11.451   5.810  70.443  1.00  0.00     0.081 A  
HETATM    9  C   UNL     1     -12.430   5.540  71.408  1.00  0.00     1.827 A  
HETATM   10  C   UNL     1     -12.274   4.474  72.308  1.00  0.00     1.725 A  
BRANCH   8  11
HETATM   11  C   UNL     1     -11.543   7.030  69.626  1.00  0.00    -0.006 A  
HETATM   12  N   UNL     1     -10.868   7.263  68.518  1.00  0.00    -0.117 NA 
HETATM   13  C   UNL     1     -11.306   8.446  67.934  1.00  0.00     0.992 A  
HETATM   14  C   UNL     1     -10.826   9.014  66.732  1.00  0.00     0.062 A  
HETATM   15  C   UNL     1     -11.399  10.196  66.244  1.00  0.00     0.958 A  
HETATM   16  C   UNL     1     -12.429  10.807  66.943  1.00  0.00     4.353 A  
HETATM   17  O   UNL     1     -13.018  11.955  66.490  1.00  0.00     2.076 OA 
HETATM   18  C   UNL     1     -12.910  10.285  68.138  1.00  0.00     5.019 A  
HETATM   19  C   UNL     1     -12.330   9.101  68.613  1.00  0.00     3.663 A  
HETATM   20  H   UNL     1     -13.724  12.373  66.969  1.00  0.00     0.000 HD 
HETATM   21  S   UNL     1     -12.713   8.228  70.034  1.00  0.00     2.007 SA 
ENDBRANCH   8  11
ENDBRANCH   2   4
TORSDOF 2
ENDMDL
MODEL      169
REMARK 921   NORMALIZED FREE ENERGY PREDICTED BY IDOCK:   50.21 KCAL/MOL
REMARK 922        TOTAL FREE ENERGY PREDICTED BY IDOCK:   55.87 KCAL/MOL
REMARK 923 INTER-LIGAND FREE ENERGY PREDICTED BY IDOCK:   56.12 KCAL/MOL
REMARK 924 INTRA-LIGAND FREE ENERGY PREDICTED BY IDOCK:   -0.24 KCAL/MOL
REMARK 927      BINDING AFFINITY PREDICTED BY RF-SCORE:    0.00 PKD
ROOT
HETATM    1  C   UNL     1      -7.413  11.695  64.148  1.00  0.00     2.506 C  
HETATM    2  N   UNL     1      -7.202  10.385  63.554  1.00  0.00    -0.308 NA 
HETATM    3  H   UNL     1      -6.621  10.277  62.723  1.00  0.00     0.000 HD 
ENDROOT
BRANCH   2   4
HETATM    4  C   UNL     1      -7.815   9.272  64.150  1.00  0.00    -0.125 A  
HETATM    5  C   UNL     1      -9.183   8.969  64.061  1.00  0.00     0.441 A  
HETATM    6  F   UNL     1     -10.003   9.688  63.279  1.00  0.00     0.096 F  
HETATM    7  C   UNL     1      -9.761   7.932  64.792  1.00  0.00     2.259 A  
HETATM    8  C   UNL     1      -8.995   7.173  65.683  1.00  0.00     0.019 A  
HETATM    9  C   UNL     1      -7.621   7.434  65.760  1.00  0.00    -0.090 A  
HETATM   10  C   UNL     1      -7.049   8.483  65.023  1.00  0.00    -0.079 A  
BRANCH   8  11
HETATM   11  C   UNL     1      -9.607   6.189  66.590  1.00  0.00    -0.152 A  
HETATM   12  N   UNL     1     -10.883   5.860  66.615  1.00  0.00    -0.277 NA 
HETATM   13  C   UNL     1     -11.084   4.801  67.493  1.00  0.00     1.734 A  
HETATM   14  C   UNL     1     -12.316   4.170  67.775  1.00  0.00    16.296 A  
HETATM   15  C   UNL     1     -12.354   3.080  68.655  1.00  0.00    22.721 A  
HETATM   16  C   UNL     1     -11.185   2.628  69.249  1.00  0.00     7.767 A  
HETATM   17  O   UNL     1     -11.184   1.560  70.104  1.00  0.00     2.922 OA 
HETATM   18  C   UNL     1      -9.960   3.239  69.008  1.00  0.00     0.456 A  
HETATM   19  C   UNL     1      -9.937   4.326  68.124  1.00  0.00     0.035 A  
HETATM   20  H   UNL     1     -10.383   1.251  70.511  1.00  0.00     0.000 HD 
HETATM   21  S   UNL     1      -8.593   5.264  67.632  1.00  0.00    -0.103 SA 
ENDBRANCH   8  11
ENDBRANCH   2   4
TORSDOF 2
ENDMDL
MODEL      170
REMARK 921   NORMALIZED FREE ENERGY PREDICTED BY IDOCK:   58.88 KCAL/MOL
REMARK 922        TOTAL FREE ENERGY PREDICTED BY IDOCK:   65.56 KCAL/MOL
REMARK 923 INTER-LIGAND FREE ENERGY PREDICTED BY IDOCK:   65.78 KCAL/MOL
REMARK 924 INTRA-LIGAND FREE ENERGY PREDICTED BY IDOCK:   -0.22 KCAL/MOL
REMARK 927      BINDING AFFINITY PREDICTED BY RF-SCORE:    0.00 PKD
ROOT
HETATM    1  C   UNL     1      -5.212  12.407  64.709  1.00  0.00     5.450 C  
HETATM    2  N   UNL     1      -6.285  12.356  65.689  1.00  0.00     2.111 NA 
HETATM    3  H   UNL     1      -6.487  11.494  66.196  1.00  0.00     0.000 HD 
ENDROOT
BRANCH   2   4
HETATM    4  C   UNL     1      -7.036  13.519  65.922  1.00  0.00     5.252 A  
HETATM    5  C   UNL     1      -6.923  14.327  67.064  1.00  0.00     0.669 A  
HETATM    6  F   UNL     1      -5.977  14.096  67.987  1.00  0.00    -0.097 F  
HETATM    7  C   UNL     1      -7.795  15.387  67.309  1.00  0.00    -0.237 A  
HETATM    8  C   UNL     1      -8.851  15.660  66.435  1.00  0.00    -0.365 A  
HETATM    9  C   UNL     1      -8.961  14.888  65.272  1.00  0.00     1.545 A  
HETATM   10  C   UNL     1      -8.080  13.820  65.035  1.00  0.00     6.643 A  
BRANCH   8  11
HETATM   11  C   UNL     1      -9.885  16.658  66.753  1.00  0.00    -0.273 A  
HETATM   12  N   UNL     1     -10.763  17.149  65.902  1.00  0.00    -0.232 NA 
HETATM   13  C   UNL     1     -11.675  17.957  66.572  1.00  0.00     2.370 A  
HETATM   14  C   UNL     1     -12.765  18.646  65.995  1.00  0.00     9.271 A  
HETATM   15  C   UNL     1     -13.628  19.390  66.811  1.00  0.00     9.314 A  
HETATM   16  C   UNL     1     -13.407  19.453  68.178  1.00  0.00     8.873 A  
HETATM   17  O   UNL     1     -14.234  20.161  69.005  1.00  0.00     7.729 OA 
HETATM   18  C   UNL     1     -12.331  18.804  68.774  1.00  0.00     7.175 A  
HETATM   19  C   UNL     1     -11.478  18.062  67.947  1.00  0.00     0.919 A  
HETATM   20  H   UNL     1     -14.082  20.205  69.942  1.00  0.00     0.000 HD 
HETATM   21  S   UNL     1     -10.094  17.159  68.389  1.00  0.00    -0.336 SA 
ENDBRANCH   8  11
ENDBRANCH   2   4
TORSDOF 2
ENDMDL
