MODEL        1
REMARK 921   NORMALIZED FREE ENERGY PREDICTED BY IDOCK:   -5.80 KCAL/MOL
REMARK 922        TOTAL FREE ENERGY PREDICTED BY IDOCK:  -10.29 KCAL/MOL
REMARK 923 INTER-LIGAND FREE ENERGY PREDICTED BY IDOCK:   -9.19 KCAL/MOL
REMARK 924 INTRA-LIGAND FREE ENERGY PREDICTED BY IDOCK:   -1.11 KCAL/MOL
REMARK 927      BINDING AFFINITY PREDICTED BY RF-SCORE:    0.00 PKD
ROOT
HETATM    1  C   UNL     1     -13.459  12.710  72.117  1.00  0.00    -0.460 C  
HETATM    2  O   UNL     1     -13.974  13.839  72.814  1.00  0.00    -0.714 OA 
ENDROOT
BRANCH   2   3
HETATM    3  C   UNL     1     -13.643  15.045  72.132  1.00  0.00    -0.427 C  
BRANCH   3   4
HETATM    4  C   UNL     1     -12.715  14.741  70.960  1.00  0.00    -0.411 C  
BRANCH   4   5
HETATM    5  C   UNL     1     -11.656  15.838  70.841  1.00  0.00    -0.440 C  
BRANCH   5   6
HETATM    6  C   UNL     1     -10.558  15.488  69.835  1.00  0.00    -0.322 C  
BRANCH   6   7
HETATM    7  C   UNL     1     -10.792  16.164  68.470  1.00  0.00    -0.313 C  
BRANCH   7   8
HETATM    8  C   UNL     1     -11.082  15.317  67.254  1.00  0.00    -0.325 A  
HETATM    9  C   UNL     1     -10.558  15.712  66.011  1.00  0.00    -0.336 A  
HETATM   10  C   UNL     1     -11.803  14.116  67.311  1.00  0.00    -0.452 A  
HETATM   11  F   UNL     1     -12.136  11.611  63.992  1.00  0.00    -0.430 F  
HETATM   12  F   UNL     1     -12.161  13.368  62.713  1.00  0.00    -0.498 F  
HETATM   13  C   UNL     1     -11.942  13.306  66.178  1.00  0.00    -0.470 A  
HETATM   14  F   UNL     1     -10.269  12.434  63.244  1.00  0.00    -0.408 F  
HETATM   15  C   UNL     1     -11.384  13.681  64.951  1.00  0.00    -0.353 A  
HETATM   16  C   UNL     1     -11.488  12.783  63.742  1.00  0.00    -0.470 C  
HETATM   17  C   UNL     1     -10.703  14.905  64.875  1.00  0.00    -0.426 A  
ENDBRANCH   7   8
BRANCH   7  18
HETATM   18  N   UNL     1     -10.701  17.458  68.314  1.00  0.00    -0.360 NA 
HETATM   19  H   UNL     1     -11.469  18.058  68.011  1.00  0.00     0.000 HD 
BRANCH  18  20
HETATM   20  O   UNL     1      -9.413  17.914  68.617  1.00  0.00    -0.299 OA 
BRANCH  20  21
HETATM   21  C   UNL     1      -9.086  19.050  67.817  1.00  0.00    -0.292 C  
BRANCH  21  22
HETATM   22  C   UNL     1     -10.415  19.642  67.335  1.00  0.00    -0.467 C  
HETATM   23  H2  UNL     1     -10.498  18.613  65.559  1.00  0.00     0.000 HD 
HETATM   24  H1  UNL     1     -11.489  19.966  65.567  1.00  0.00     0.000 HD 
HETATM   25  N   UNL     1     -10.604  19.572  65.888  1.00  0.00    -0.510 NA 
ENDBRANCH  21  22
ENDBRANCH  20  21
ENDBRANCH  18  20
ENDBRANCH   7  18
ENDBRANCH   6   7
ENDBRANCH   5   6
ENDBRANCH   4   5
ENDBRANCH   3   4
ENDBRANCH   2   3
TORSDOF 10
ENDMDL
MODEL        2
REMARK 921   NORMALIZED FREE ENERGY PREDICTED BY IDOCK:   -5.78 KCAL/MOL
REMARK 922        TOTAL FREE ENERGY PREDICTED BY IDOCK:  -10.27 KCAL/MOL
REMARK 923 INTER-LIGAND FREE ENERGY PREDICTED BY IDOCK:   -9.45 KCAL/MOL
REMARK 924 INTRA-LIGAND FREE ENERGY PREDICTED BY IDOCK:   -0.82 KCAL/MOL
REMARK 927      BINDING AFFINITY PREDICTED BY RF-SCORE:    0.00 PKD
ROOT
HETATM    1  C   UNL     1     -12.106  12.500  63.487  1.00  0.00    -0.562 C  
HETATM    2  O   UNL     1     -12.775  13.634  64.028  1.00  0.00    -0.666 OA 
ENDROOT
BRANCH   2   3
HETATM    3  C   UNL     1     -12.555  13.726  65.432  1.00  0.00    -0.497 C  
BRANCH   3   4
HETATM    4  C   UNL     1     -11.740  12.528  65.910  1.00  0.00    -0.480 C  
BRANCH   4   5
HETATM    5  C   UNL     1     -11.717  12.495  67.438  1.00  0.00    -0.432 C  
BRANCH   5   6
HETATM    6  C   UNL     1     -10.449  13.124  68.020  1.00  0.00    -0.245 C  
BRANCH   6   7
HETATM    7  C   UNL     1     -10.756  14.404  68.820  1.00  0.00    -0.252 C  
BRANCH   7   8
HETATM    8  C   UNL     1     -10.461  15.756  68.216  1.00  0.00    -0.259 A  
HETATM    9  C   UNL     1     -10.173  15.837  66.843  1.00  0.00    -0.280 A  
HETATM   10  C   UNL     1     -10.517  16.950  68.947  1.00  0.00    -0.346 A  
HETATM   11  F   UNL     1     -10.160  20.667  67.087  1.00  0.00    -0.573 F  
HETATM   12  F   UNL     1      -8.764  19.786  65.673  1.00  0.00    -0.306 F  
HETATM   13  C   UNL     1     -10.352  18.189  68.315  1.00  0.00    -0.377 A  
HETATM   14  F   UNL     1     -10.898  19.766  65.253  1.00  0.00    -0.576 F  
HETATM   15  C   UNL     1     -10.108  18.270  66.940  1.00  0.00    -0.377 A  
HETATM   16  C   UNL     1      -9.984  19.606  66.250  1.00  0.00    -0.466 C  
HETATM   17  C   UNL     1     -10.002  17.076  66.211  1.00  0.00    -0.324 A  
ENDBRANCH   7   8
BRANCH   7  18
HETATM   18  N   UNL     1     -11.226  14.362  70.039  1.00  0.00    -0.435 NA 
HETATM   19  H   UNL     1     -10.650  14.392  70.880  1.00  0.00     0.000 HD 
BRANCH  18  20
HETATM   20  O   UNL     1     -12.623  14.268  70.039  1.00  0.00    -0.335 OA 
BRANCH  20  21
HETATM   21  C   UNL     1     -13.187  15.246  70.912  1.00  0.00    -0.450 C  
BRANCH  21  22
HETATM   22  C   UNL     1     -14.391  14.584  71.591  1.00  0.00    -0.478 C  
HETATM   23  H2  UNL     1     -13.349  13.754  73.155  1.00  0.00     0.000 HD 
HETATM   24  H1  UNL     1     -14.839  13.024  72.914  1.00  0.00     0.000 HD 
HETATM   25  N   UNL     1     -14.038  13.465  72.461  1.00  0.00    -0.735 NA 
ENDBRANCH  21  22
ENDBRANCH  20  21
ENDBRANCH  18  20
ENDBRANCH   7  18
ENDBRANCH   6   7
ENDBRANCH   5   6
ENDBRANCH   4   5
ENDBRANCH   3   4
ENDBRANCH   2   3
TORSDOF 10
ENDMDL
MODEL        3
REMARK 921   NORMALIZED FREE ENERGY PREDICTED BY IDOCK:   -5.75 KCAL/MOL
REMARK 922        TOTAL FREE ENERGY PREDICTED BY IDOCK:  -10.22 KCAL/MOL
REMARK 923 INTER-LIGAND FREE ENERGY PREDICTED BY IDOCK:   -9.14 KCAL/MOL
REMARK 924 INTRA-LIGAND FREE ENERGY PREDICTED BY IDOCK:   -1.08 KCAL/MOL
REMARK 927      BINDING AFFINITY PREDICTED BY RF-SCORE:    0.00 PKD
ROOT
HETATM    1  C   UNL     1     -13.343  12.370  71.992  1.00  0.00    -0.407 C  
HETATM    2  O   UNL     1     -14.038  13.463  72.583  1.00  0.00    -0.767 OA 
ENDROOT
BRANCH   2   3
HETATM    3  C   UNL     1     -13.583  14.700  72.040  1.00  0.00    -0.400 C  
BRANCH   3   4
HETATM    4  C   UNL     1     -12.313  14.474  71.225  1.00  0.00    -0.418 C  
BRANCH   4   5
HETATM    5  C   UNL     1     -11.713  15.820  70.820  1.00  0.00    -0.430 C  
BRANCH   5   6
HETATM    6  C   UNL     1     -10.508  15.670  69.889  1.00  0.00    -0.327 C  
BRANCH   6   7
HETATM    7  C   UNL     1     -10.817  16.167  68.464  1.00  0.00    -0.313 C  
BRANCH   7   8
HETATM    8  C   UNL     1     -11.004  15.170  67.345  1.00  0.00    -0.314 A  
HETATM    9  C   UNL     1     -11.478  13.884  67.655  1.00  0.00    -0.354 A  
HETATM   10  C   UNL     1     -10.784  15.482  65.997  1.00  0.00    -0.331 A  
HETATM   11  F   UNL     1     -11.789  12.817  62.948  1.00  0.00    -0.506 F  
HETATM   12  F   UNL     1     -11.251  11.169  64.260  1.00  0.00    -0.401 F  
HETATM   13  C   UNL     1     -11.086  14.561  64.987  1.00  0.00    -0.393 A  
HETATM   14  F   UNL     1     -13.282  11.948  64.266  1.00  0.00    -0.474 F  
HETATM   15  C   UNL     1     -11.598  13.295  65.294  1.00  0.00    -0.335 A  
HETATM   16  C   UNL     1     -11.974  12.322  64.204  1.00  0.00    -0.432 C  
HETATM   17  C   UNL     1     -11.774  12.959  66.645  1.00  0.00    -0.452 A  
ENDBRANCH   7   8
BRANCH   7  18
HETATM   18  N   UNL     1     -10.878  17.440  68.173  1.00  0.00    -0.341 NA 
HETATM   19  H   UNL     1     -11.642  17.878  67.658  1.00  0.00     0.000 HD 
BRANCH  18  20
HETATM   20  O   UNL     1      -9.758  18.123  68.660  1.00  0.00    -0.333 OA 
BRANCH  20  21
HETATM   21  C   UNL     1      -9.786  19.488  68.243  1.00  0.00    -0.416 C  
BRANCH  21  22
HETATM   22  C   UNL     1     -10.773  19.566  67.072  1.00  0.00    -0.477 C  
HETATM   23  H2  UNL     1      -9.767  18.275  65.831  1.00  0.00     0.000 HD 
HETATM   24  H1  UNL     1     -10.849  19.252  65.004  1.00  0.00     0.000 HD 
HETATM   25  N   UNL     1     -10.193  19.200  65.783  1.00  0.00    -0.519 NA 
ENDBRANCH  21  22
ENDBRANCH  20  21
ENDBRANCH  18  20
ENDBRANCH   7  18
ENDBRANCH   6   7
ENDBRANCH   5   6
ENDBRANCH   4   5
ENDBRANCH   3   4
ENDBRANCH   2   3
TORSDOF 10
ENDMDL
MODEL        4
REMARK 921   NORMALIZED FREE ENERGY PREDICTED BY IDOCK:   -5.69 KCAL/MOL
REMARK 922        TOTAL FREE ENERGY PREDICTED BY IDOCK:  -10.13 KCAL/MOL
REMARK 923 INTER-LIGAND FREE ENERGY PREDICTED BY IDOCK:   -9.22 KCAL/MOL
REMARK 924 INTRA-LIGAND FREE ENERGY PREDICTED BY IDOCK:   -0.91 KCAL/MOL
REMARK 927      BINDING AFFINITY PREDICTED BY RF-SCORE:    0.00 PKD
ROOT
HETATM    1  C   UNL     1     -12.316  11.971  63.359  1.00  0.00    -0.523 C  
HETATM    2  O   UNL     1     -13.202  12.260  64.436  1.00  0.00    -0.806 OA 
ENDROOT
BRANCH   2   3
HETATM    3  C   UNL     1     -12.514  12.934  65.486  1.00  0.00    -0.402 C  
BRANCH   3   4
HETATM    4  C   UNL     1     -11.007  12.814  65.280  1.00  0.00    -0.314 C  
BRANCH   4   5
HETATM    5  C   UNL     1     -10.297  13.978  65.971  1.00  0.00    -0.312 C  
BRANCH   5   6
HETATM    6  C   UNL     1     -11.254  15.112  66.345  1.00  0.00    -0.277 C  
BRANCH   6   7
HETATM    7  C   UNL     1     -10.793  15.860  67.610  1.00  0.00    -0.312 C  
BRANCH   7   8
HETATM    8  C   UNL     1     -11.328  15.450  68.961  1.00  0.00    -0.324 A  
HETATM    9  C   UNL     1     -11.159  16.320  70.051  1.00  0.00    -0.351 A  
HETATM   10  C   UNL     1     -12.043  14.262  69.173  1.00  0.00    -0.337 A  
HETATM   11  F   UNL     1     -13.892  13.451  72.824  1.00  0.00    -0.615 F  
HETATM   12  F   UNL     1     -12.264  14.476  73.836  1.00  0.00    -0.496 F  
HETATM   13  C   UNL     1     -12.621  13.984  70.417  1.00  0.00    -0.374 A  
HETATM   14  F   UNL     1     -14.014  15.591  73.183  1.00  0.00    -0.528 F  
HETATM   15  C   UNL     1     -12.488  14.872  71.490  1.00  0.00    -0.397 A  
HETATM   16  C   UNL     1     -13.156  14.598  72.815  1.00  0.00    -0.486 C  
HETATM   17  C   UNL     1     -11.732  16.039  71.298  1.00  0.00    -0.516 A  
ENDBRANCH   7   8
BRANCH   7  18
HETATM   18  N   UNL     1      -9.980  16.882  67.552  1.00  0.00    -0.261 NA 
HETATM   19  H   UNL     1      -8.971  16.825  67.690  1.00  0.00     0.000 HD 
BRANCH  18  20
HETATM   20  O   UNL     1     -10.676  18.065  67.275  1.00  0.00    -0.372 OA 
BRANCH  20  21
HETATM   21  C   UNL     1     -10.055  18.767  66.198  1.00  0.00    -0.384 C  
BRANCH  21  22
HETATM   22  C   UNL     1      -8.597  18.998  66.610  1.00  0.00    -0.313 C  
HETATM   23  H2  UNL     1      -7.786  18.761  64.737  1.00  0.00     0.000 HD 
HETATM   24  H1  UNL     1      -6.652  18.577  65.958  1.00  0.00     0.000 HD 
HETATM   25  N   UNL     1      -7.623  18.423  65.685  1.00  0.00    -0.518 NA 
ENDBRANCH  21  22
ENDBRANCH  20  21
ENDBRANCH  18  20
ENDBRANCH   7  18
ENDBRANCH   6   7
ENDBRANCH   5   6
ENDBRANCH   4   5
ENDBRANCH   3   4
ENDBRANCH   2   3
TORSDOF 10
ENDMDL
MODEL        5
REMARK 921   NORMALIZED FREE ENERGY PREDICTED BY IDOCK:   -5.68 KCAL/MOL
REMARK 922        TOTAL FREE ENERGY PREDICTED BY IDOCK:  -10.10 KCAL/MOL
REMARK 923 INTER-LIGAND FREE ENERGY PREDICTED BY IDOCK:   -9.00 KCAL/MOL
REMARK 924 INTRA-LIGAND FREE ENERGY PREDICTED BY IDOCK:   -1.10 KCAL/MOL
REMARK 927      BINDING AFFINITY PREDICTED BY RF-SCORE:    0.00 PKD
ROOT
HETATM    1  C   UNL     1     -13.177   9.620  71.980  1.00  0.00    -0.453 C  
HETATM    2  O   UNL     1     -11.814   9.913  71.694  1.00  0.00    -0.379 OA 
ENDROOT
BRANCH   2   3
HETATM    3  C   UNL     1     -11.446   9.398  70.418  1.00  0.00    -0.223 C  
BRANCH   3   4
HETATM    4  C   UNL     1     -10.003   9.777  70.101  1.00  0.00    -0.315 C  
BRANCH   4   5
HETATM    5  C   UNL     1      -9.980  10.949  69.120  1.00  0.00    -0.181 C  
BRANCH   5   6
HETATM    6  C   UNL     1     -11.331  11.170  68.437  1.00  0.00    -0.357 C  
BRANCH   6   7
HETATM    7  C   UNL     1     -11.661  12.667  68.284  1.00  0.00    -0.332 C  
BRANCH   7   8
HETATM    8  C   UNL     1     -11.913  13.509  69.512  1.00  0.00    -0.390 A  
HETATM    9  C   UNL     1     -12.777  13.019  70.506  1.00  0.00    -0.111 A  
HETATM   10  C   UNL     1     -11.279  14.738  69.742  1.00  0.00    -0.306 A  
HETATM   11  F   UNL     1     -11.671  16.751  73.374  1.00  0.00    -0.510 F  
HETATM   12  F   UNL     1     -13.711  16.015  73.522  1.00  0.00    -0.601 F  
HETATM   13  C   UNL     1     -11.454  15.423  70.950  1.00  0.00    -0.396 A  
HETATM   14  F   UNL     1     -12.068  14.843  74.334  1.00  0.00    -0.696 F  
HETATM   15  C   UNL     1     -12.282  14.912  71.955  1.00  0.00    -0.434 A  
HETATM   16  C   UNL     1     -12.430  15.623  73.278  1.00  0.00    -0.498 C  
HETATM   17  C   UNL     1     -12.958  13.707  71.712  1.00  0.00    -0.441 A  
ENDBRANCH   7   8
BRANCH   7  18
HETATM   18  N   UNL     1     -11.778  13.234  67.112  1.00  0.00    -0.356 NA 
HETATM   19  H   UNL     1     -11.462  14.179  66.895  1.00  0.00     0.000 HD 
BRANCH  18  20
HETATM   20  O   UNL     1     -12.394  12.374  66.195  1.00  0.00    -0.606 OA 
BRANCH  20  21
HETATM   21  C   UNL     1     -12.214  12.855  64.864  1.00  0.00    -0.453 C  
BRANCH  21  22
HETATM   22  C   UNL     1     -11.669  14.283  64.985  1.00  0.00    -0.383 C  
HETATM   23  H2  UNL     1     -13.454  15.242  64.648  1.00  0.00     0.000 HD 
HETATM   24  H1  UNL     1     -12.130  16.239  64.397  1.00  0.00     0.000 HD 
HETATM   25  N   UNL     1     -12.491  15.289  64.316  1.00  0.00    -0.579 NA 
ENDBRANCH  21  22
ENDBRANCH  20  21
ENDBRANCH  18  20
ENDBRANCH   7  18
ENDBRANCH   6   7
ENDBRANCH   5   6
ENDBRANCH   4   5
ENDBRANCH   3   4
ENDBRANCH   2   3
TORSDOF 10
ENDMDL
MODEL        6
REMARK 921   NORMALIZED FREE ENERGY PREDICTED BY IDOCK:   -5.67 KCAL/MOL
REMARK 922        TOTAL FREE ENERGY PREDICTED BY IDOCK:  -10.09 KCAL/MOL
REMARK 923 INTER-LIGAND FREE ENERGY PREDICTED BY IDOCK:   -8.99 KCAL/MOL
REMARK 924 INTRA-LIGAND FREE ENERGY PREDICTED BY IDOCK:   -1.10 KCAL/MOL
REMARK 927      BINDING AFFINITY PREDICTED BY RF-SCORE:    0.00 PKD
ROOT
HETATM    1  C   UNL     1     -10.546  19.378  66.165  1.00  0.00    -0.477 C  
HETATM    2  O   UNL     1     -10.705  19.461  67.577  1.00  0.00    -0.459 OA 
ENDROOT
BRANCH   2   3
HETATM    3  C   UNL     1      -9.647  18.776  68.243  1.00  0.00    -0.353 C  
BRANCH   3   4
HETATM    4  C   UNL     1      -9.832  17.269  68.097  1.00  0.00    -0.290 C  
BRANCH   4   5
HETATM    5  C   UNL     1     -10.751  16.752  69.205  1.00  0.00    -0.329 C  
BRANCH   5   6
HETATM    6  C   UNL     1     -10.544  15.264  69.493  1.00  0.00    -0.272 C  
BRANCH   6   7
HETATM    7  C   UNL     1     -11.774  14.425  69.099  1.00  0.00    -0.317 C  
BRANCH   7   8
HETATM    8  C   UNL     1     -11.795  13.700  67.775  1.00  0.00    -0.403 A  
HETATM    9  C   UNL     1     -12.263  14.378  66.637  1.00  0.00    -0.340 A  
HETATM   10  C   UNL     1     -11.314  12.394  67.609  1.00  0.00    -0.371 A  
HETATM   11  F   UNL     1     -10.970  10.658  63.831  1.00  0.00    -0.281 F  
HETATM   12  F   UNL     1     -12.752  11.738  63.212  1.00  0.00    -0.673 F  
HETATM   13  C   UNL     1     -11.245  11.809  66.339  1.00  0.00    -0.382 A  
HETATM   14  F   UNL     1     -10.790  12.651  62.985  1.00  0.00    -0.407 F  
HETATM   15  C   UNL     1     -11.671  12.502  65.201  1.00  0.00    -0.422 A  
HETATM   16  C   UNL     1     -11.547  11.893  63.826  1.00  0.00    -0.462 C  
HETATM   17  C   UNL     1     -12.199  13.791  65.367  1.00  0.00    -0.465 A  
ENDBRANCH   7   8
BRANCH   7  18
HETATM   18  N   UNL     1     -12.835  14.354  69.859  1.00  0.00    -0.481 NA 
HETATM   19  H   UNL     1     -13.755  14.713  69.600  1.00  0.00     0.000 HD 
BRANCH  18  20
HETATM   20  O   UNL     1     -12.545  13.723  71.075  1.00  0.00    -0.341 OA 
BRANCH  20  21
HETATM   21  C   UNL     1     -13.572  13.985  72.030  1.00  0.00    -0.463 C  
BRANCH  21  22
HETATM   22  C   UNL     1     -12.960  14.912  73.087  1.00  0.00    -0.519 C  
HETATM   23  H2  UNL     1     -12.844  16.581  71.895  1.00  0.00     0.000 HD 
HETATM   24  H1  UNL     1     -11.835  16.671  73.231  1.00  0.00     0.000 HD 
HETATM   25  N   UNL     1     -12.243  16.055  72.528  1.00  0.00    -0.480 NA 
ENDBRANCH  21  22
ENDBRANCH  20  21
ENDBRANCH  18  20
ENDBRANCH   7  18
ENDBRANCH   6   7
ENDBRANCH   5   6
ENDBRANCH   4   5
ENDBRANCH   3   4
ENDBRANCH   2   3
TORSDOF 10
ENDMDL
MODEL        7
REMARK 921   NORMALIZED FREE ENERGY PREDICTED BY IDOCK:   -5.66 KCAL/MOL
REMARK 922        TOTAL FREE ENERGY PREDICTED BY IDOCK:  -10.07 KCAL/MOL
REMARK 923 INTER-LIGAND FREE ENERGY PREDICTED BY IDOCK:   -9.43 KCAL/MOL
REMARK 924 INTRA-LIGAND FREE ENERGY PREDICTED BY IDOCK:   -0.64 KCAL/MOL
REMARK 927      BINDING AFFINITY PREDICTED BY RF-SCORE:    0.00 PKD
ROOT
HETATM    1  C   UNL     1     -12.063   7.171  71.406  1.00  0.00    -0.344 C  
HETATM    2  O   UNL     1     -13.430   7.299  71.784  1.00  0.00    -0.353 OA 
ENDROOT
BRANCH   2   3
HETATM    3  C   UNL     1     -13.889   8.630  71.567  1.00  0.00    -0.335 C  
BRANCH   3   4
HETATM    4  C   UNL     1     -12.760   9.620  71.838  1.00  0.00    -0.499 C  
BRANCH   4   5
HETATM    5  C   UNL     1     -12.883  10.815  70.892  1.00  0.00    -0.443 C  
BRANCH   5   6
HETATM    6  C   UNL     1     -11.552  11.185  70.235  1.00  0.00    -0.388 C  
BRANCH   6   7
HETATM    7  C   UNL     1     -11.599  12.580  69.584  1.00  0.00    -0.253 C  
BRANCH   7   8
HETATM    8  C   UNL     1     -11.596  12.706  68.080  1.00  0.00    -0.394 A  
HETATM    9  C   UNL     1     -11.117  11.634  67.309  1.00  0.00    -0.346 A  
HETATM   10  C   UNL     1     -12.106  13.824  67.405  1.00  0.00    -0.378 A  
HETATM   11  F   UNL     1     -12.496  13.874  63.251  1.00  0.00    -0.503 F  
HETATM   12  F   UNL     1     -10.693  12.669  63.103  1.00  0.00    -0.423 F  
HETATM   13  C   UNL     1     -12.191  13.843  66.007  1.00  0.00    -0.495 A  
HETATM   14  F   UNL     1     -12.635  11.706  63.287  1.00  0.00    -0.659 F  
HETATM   15  C   UNL     1     -11.753  12.756  65.243  1.00  0.00    -0.403 A  
HETATM   16  C   UNL     1     -11.893  12.754  63.741  1.00  0.00    -0.499 C  
HETATM   17  C   UNL     1     -11.196  11.655  65.910  1.00  0.00    -0.296 A  
ENDBRANCH   7   8
BRANCH   7  18
HETATM   18  N   UNL     1     -11.593  13.676  70.297  1.00  0.00    -0.514 NA 
HETATM   19  H   UNL     1     -10.782  14.029  70.804  1.00  0.00     0.000 HD 
BRANCH  18  20
HETATM   20  O   UNL     1     -12.845  14.301  70.272  1.00  0.00    -0.315 OA 
BRANCH  20  21
HETATM   21  C   UNL     1     -12.836  15.466  71.095  1.00  0.00    -0.455 C  
BRANCH  21  22
HETATM   22  C   UNL     1     -13.259  15.014  72.498  1.00  0.00    -0.405 C  
HETATM   23  H2  UNL     1     -13.406  13.011  72.062  1.00  0.00     0.000 HD 
HETATM   24  H1  UNL     1     -14.244  13.432  73.453  1.00  0.00     0.000 HD 
HETATM   25  N   UNL     1     -13.962  13.733  72.520  1.00  0.00    -0.727 NA 
ENDBRANCH  21  22
ENDBRANCH  20  21
ENDBRANCH  18  20
ENDBRANCH   7  18
ENDBRANCH   6   7
ENDBRANCH   5   6
ENDBRANCH   4   5
ENDBRANCH   3   4
ENDBRANCH   2   3
TORSDOF 10
ENDMDL
MODEL        8
REMARK 921   NORMALIZED FREE ENERGY PREDICTED BY IDOCK:   -5.65 KCAL/MOL
REMARK 922        TOTAL FREE ENERGY PREDICTED BY IDOCK:  -10.06 KCAL/MOL
REMARK 923 INTER-LIGAND FREE ENERGY PREDICTED BY IDOCK:   -9.12 KCAL/MOL
REMARK 924 INTRA-LIGAND FREE ENERGY PREDICTED BY IDOCK:   -0.94 KCAL/MOL
REMARK 927      BINDING AFFINITY PREDICTED BY RF-SCORE:    0.00 PKD
ROOT
HETATM    1  C   UNL     1     -12.380  15.791  73.605  1.00  0.00    -0.576 C  
HETATM    2  O   UNL     1     -13.639  15.949  72.960  1.00  0.00    -0.575 OA 
ENDROOT
BRANCH   2   3
HETATM    3  C   UNL     1     -13.719  15.121  71.803  1.00  0.00    -0.480 C  
BRANCH   3   4
HETATM    4  C   UNL     1     -12.328  14.618  71.428  1.00  0.00    -0.411 C  
BRANCH   4   5
HETATM    5  C   UNL     1     -12.443  13.537  70.353  1.00  0.00    -0.345 C  
BRANCH   5   6
HETATM    6  C   UNL     1     -11.271  13.558  69.370  1.00  0.00    -0.244 C  
BRANCH   6   7
HETATM    7  C   UNL     1     -11.662  14.192  68.022  1.00  0.00    -0.359 C  
BRANCH   7   8
HETATM    8  C   UNL     1     -11.108  15.545  67.640  1.00  0.00    -0.311 A  
HETATM    9  C   UNL     1     -10.786  15.791  66.295  1.00  0.00    -0.282 A  
HETATM   10  C   UNL     1     -10.954  16.595  68.556  1.00  0.00    -0.339 A  
HETATM   11  F   UNL     1      -9.877  20.430  67.315  1.00  0.00    -0.506 F  
HETATM   12  F   UNL     1      -8.644  19.542  65.760  1.00  0.00    -0.315 F  
HETATM   13  C   UNL     1     -10.550  17.866  68.130  1.00  0.00    -0.351 A  
HETATM   14  F   UNL     1     -10.737  19.990  65.369  1.00  0.00    -0.574 F  
HETATM   15  C   UNL     1     -10.270  18.121  66.783  1.00  0.00    -0.379 A  
HETATM   16  C   UNL     1      -9.887  19.503  66.316  1.00  0.00    -0.429 C  
HETATM   17  C   UNL     1     -10.376  17.061  65.870  1.00  0.00    -0.310 A  
ENDBRANCH   7   8
BRANCH   7  18
HETATM   18  N   UNL     1     -12.504  13.617  67.205  1.00  0.00    -0.334 NA 
HETATM   19  H   UNL     1     -13.346  14.061  66.838  1.00  0.00     0.000 HD 
BRANCH  18  20
HETATM   20  O   UNL     1     -12.100  12.311  66.901  1.00  0.00    -0.583 OA 
BRANCH  20  21
HETATM   21  C   UNL     1     -11.567  12.251  65.578  1.00  0.00    -0.371 C  
BRANCH  21  22
HETATM   22  C   UNL     1     -12.651  12.801  64.644  1.00  0.00    -0.419 C  
HETATM   23  H2  UNL     1     -12.173  11.636  63.021  1.00  0.00     0.000 HD 
HETATM   24  H1  UNL     1     -13.079  12.983  62.603  1.00  0.00     0.000 HD 
HETATM   25  N   UNL     1     -12.358  12.618  63.225  1.00  0.00    -0.630 NA 
ENDBRANCH  21  22
ENDBRANCH  20  21
ENDBRANCH  18  20
ENDBRANCH   7  18
ENDBRANCH   6   7
ENDBRANCH   5   6
ENDBRANCH   4   5
ENDBRANCH   3   4
ENDBRANCH   2   3
TORSDOF 10
ENDMDL
MODEL        9
REMARK 921   NORMALIZED FREE ENERGY PREDICTED BY IDOCK:   -5.65 KCAL/MOL
REMARK 922        TOTAL FREE ENERGY PREDICTED BY IDOCK:  -10.06 KCAL/MOL
REMARK 923 INTER-LIGAND FREE ENERGY PREDICTED BY IDOCK:   -9.10 KCAL/MOL
REMARK 924 INTRA-LIGAND FREE ENERGY PREDICTED BY IDOCK:   -0.96 KCAL/MOL
REMARK 927      BINDING AFFINITY PREDICTED BY RF-SCORE:    0.00 PKD
ROOT
HETATM    1  C   UNL     1     -13.287   8.994  72.123  1.00  0.00    -0.455 C  
HETATM    2  O   UNL     1     -12.223   9.906  71.874  1.00  0.00    -0.372 OA 
ENDROOT
BRANCH   2   3
HETATM    3  C   UNL     1     -12.707  11.079  71.225  1.00  0.00    -0.432 C  
BRANCH   3   4
HETATM    4  C   UNL     1     -11.935  11.314  69.931  1.00  0.00    -0.440 C  
BRANCH   4   5
HETATM    5  C   UNL     1     -11.938  12.804  69.591  1.00  0.00    -0.354 C  
BRANCH   5   6
HETATM    6  C   UNL     1     -10.887  13.170  68.541  1.00  0.00    -0.285 C  
BRANCH   6   7
HETATM    7  C   UNL     1     -11.486  14.010  67.397  1.00  0.00    -0.348 C  
BRANCH   7   8
HETATM    8  C   UNL     1     -11.005  15.425  67.174  1.00  0.00    -0.317 A  
HETATM    9  C   UNL     1     -10.613  15.813  65.882  1.00  0.00    -0.350 A  
HETATM   10  C   UNL     1     -10.986  16.395  68.186  1.00  0.00    -0.339 A  
HETATM   11  F   UNL     1     -10.103  20.388  67.363  1.00  0.00    -0.528 F  
HETATM   12  F   UNL     1      -8.711  19.728  65.829  1.00  0.00    -0.355 F  
HETATM   13  C   UNL     1     -10.646  17.723  67.902  1.00  0.00    -0.389 A  
HETATM   14  F   UNL     1     -10.800  20.073  65.329  1.00  0.00    -0.577 F  
HETATM   15  C   UNL     1     -10.297  18.117  66.606  1.00  0.00    -0.387 A  
HETATM   16  C   UNL     1      -9.982  19.558  66.289  1.00  0.00    -0.450 C  
HETATM   17  C   UNL     1     -10.267  17.140  65.599  1.00  0.00    -0.162 A  
ENDBRANCH   7   8
BRANCH   7  18
HETATM   18  N   UNL     1     -12.441  13.555  66.630  1.00  0.00    -0.285 NA 
HETATM   19  H   UNL     1     -13.282  14.078  66.384  1.00  0.00     0.000 HD 
BRANCH  18  20
HETATM   20  O   UNL     1     -12.161  12.255  66.192  1.00  0.00    -0.647 OA 
BRANCH  20  21
HETATM   21  C   UNL     1     -11.346  12.290  65.021  1.00  0.00    -0.328 C  
BRANCH  21  22
HETATM   22  C   UNL     1     -12.294  12.496  63.834  1.00  0.00    -0.485 C  
HETATM   23  H2  UNL     1     -11.630  14.373  63.327  1.00  0.00     0.000 HD 
HETATM   24  H1  UNL     1     -13.148  14.035  62.701  1.00  0.00     0.000 HD 
HETATM   25  N   UNL     1     -12.518  13.898  63.491  1.00  0.00    -0.812 NA 
ENDBRANCH  21  22
ENDBRANCH  20  21
ENDBRANCH  18  20
ENDBRANCH   7  18
ENDBRANCH   6   7
ENDBRANCH   5   6
ENDBRANCH   4   5
ENDBRANCH   3   4
ENDBRANCH   2   3
TORSDOF 10
ENDMDL
MODEL       10
REMARK 921   NORMALIZED FREE ENERGY PREDICTED BY IDOCK:   -5.65 KCAL/MOL
REMARK 922        TOTAL FREE ENERGY PREDICTED BY IDOCK:  -10.05 KCAL/MOL
REMARK 923 INTER-LIGAND FREE ENERGY PREDICTED BY IDOCK:   -9.37 KCAL/MOL
REMARK 924 INTRA-LIGAND FREE ENERGY PREDICTED BY IDOCK:   -0.68 KCAL/MOL
REMARK 927      BINDING AFFINITY PREDICTED BY RF-SCORE:    0.00 PKD
ROOT
HETATM    1  C   UNL     1     -12.367  12.397  63.827  1.00  0.00    -0.528 C  
HETATM    2  O   UNL     1     -12.637  13.719  63.373  1.00  0.00    -0.842 OA 
ENDROOT
BRANCH   2   3
HETATM    3  C   UNL     1     -12.378  14.668  64.405  1.00  0.00    -0.398 C  
BRANCH   3   4
HETATM    4  C   UNL     1     -12.636  14.034  65.769  1.00  0.00    -0.512 C  
BRANCH   4   5
HETATM    5  C   UNL     1     -11.639  14.583  66.790  1.00  0.00    -0.388 C  
BRANCH   5   6
HETATM    6  C   UNL     1     -11.078  13.495  67.707  1.00  0.00    -0.291 C  
BRANCH   6   7
HETATM    7  C   UNL     1     -11.885  13.369  69.012  1.00  0.00    -0.335 C  
BRANCH   7   8
HETATM    8  C   UNL     1     -11.870  12.070  69.782  1.00  0.00    -0.401 A  
HETATM    9  C   UNL     1     -12.751  11.912  70.865  1.00  0.00    -0.301 A  
HETATM   10  C   UNL     1     -11.057  10.983  69.432  1.00  0.00    -0.320 A  
HETATM   11  F   UNL     1     -11.436   7.281  71.317  1.00  0.00    -0.265 F  
HETATM   12  F   UNL     1     -11.924   8.312  73.167  1.00  0.00    -0.380 F  
HETATM   13  C   UNL     1     -11.166   9.759  70.103  1.00  0.00    -0.324 A  
HETATM   14  F   UNL     1     -13.502   7.776  71.770  1.00  0.00    -0.333 F  
HETATM   15  C   UNL     1     -12.074   9.590  71.154  1.00  0.00    -0.429 A  
HETATM   16  C   UNL     1     -12.229   8.256  71.842  1.00  0.00    -0.337 C  
HETATM   17  C   UNL     1     -12.855  10.689  71.541  1.00  0.00    -0.567 A  
ENDBRANCH   7   8
BRANCH   7  18
HETATM   18  N   UNL     1     -12.632  14.344  69.460  1.00  0.00    -0.536 NA 
HETATM   19  H   UNL     1     -13.589  14.523  69.157  1.00  0.00     0.000 HD 
BRANCH  18  20
HETATM   20  O   UNL     1     -11.947  15.110  70.411  1.00  0.00    -0.274 OA 
BRANCH  20  21
HETATM   21  C   UNL     1     -12.855  15.627  71.382  1.00  0.00    -0.482 C  
BRANCH  21  22
HETATM   22  C   UNL     1     -12.127  15.578  72.731  1.00  0.00    -0.444 C  
HETATM   23  H2  UNL     1     -13.805  15.728  73.907  1.00  0.00     0.000 HD 
HETATM   24  H1  UNL     1     -12.401  16.129  74.731  1.00  0.00     0.000 HD 
HETATM   25  N   UNL     1     -12.885  16.162  73.834  1.00  0.00    -0.686 NA 
ENDBRANCH  21  22
ENDBRANCH  20  21
ENDBRANCH  18  20
ENDBRANCH   7  18
ENDBRANCH   6   7
ENDBRANCH   5   6
ENDBRANCH   4   5
ENDBRANCH   3   4
ENDBRANCH   2   3
TORSDOF 10
ENDMDL
MODEL       11
REMARK 921   NORMALIZED FREE ENERGY PREDICTED BY IDOCK:   -5.62 KCAL/MOL
REMARK 922        TOTAL FREE ENERGY PREDICTED BY IDOCK:  -10.02 KCAL/MOL
REMARK 923 INTER-LIGAND FREE ENERGY PREDICTED BY IDOCK:   -8.97 KCAL/MOL
REMARK 924 INTRA-LIGAND FREE ENERGY PREDICTED BY IDOCK:   -1.05 KCAL/MOL
REMARK 927      BINDING AFFINITY PREDICTED BY RF-SCORE:    0.00 PKD
ROOT
HETATM    1  C   UNL     1      -9.817  20.081  66.228  1.00  0.00    -0.462 C  
HETATM    2  O   UNL     1     -10.583  19.613  67.334  1.00  0.00    -0.447 OA 
ENDROOT
BRANCH   2   3
HETATM    3  C   UNL     1     -10.715  18.195  67.290  1.00  0.00    -0.315 C  
BRANCH   3   4
HETATM    4  C   UNL     1      -9.769  17.553  68.300  1.00  0.00    -0.311 C  
BRANCH   4   5
HETATM    5  C   UNL     1     -10.574  16.952  69.452  1.00  0.00    -0.292 C  
BRANCH   5   6
HETATM    6  C   UNL     1     -10.375  15.441  69.583  1.00  0.00    -0.283 C  
BRANCH   6   7
HETATM    7  C   UNL     1     -11.609  14.654  69.104  1.00  0.00    -0.301 C  
BRANCH   7   8
HETATM    8  C   UNL     1     -11.645  14.094  67.702  1.00  0.00    -0.394 A  
HETATM    9  C   UNL     1     -11.746  12.703  67.529  1.00  0.00    -0.429 A  
HETATM   10  C   UNL     1     -11.642  14.900  66.555  1.00  0.00    -0.254 A  
HETATM   11  F   UNL     1     -12.228  13.287  62.753  1.00  0.00    -0.509 F  
HETATM   12  F   UNL     1     -11.168  11.498  63.387  1.00  0.00    -0.452 F  
HETATM   13  C   UNL     1     -11.797  14.339  65.282  1.00  0.00    -0.374 A  
HETATM   14  F   UNL     1     -13.320  11.647  63.670  1.00  0.00    -0.487 F  
HETATM   15  C   UNL     1     -11.940  12.958  65.115  1.00  0.00    -0.452 A  
HETATM   16  C   UNL     1     -12.161  12.358  63.747  1.00  0.00    -0.529 C  
HETATM   17  C   UNL     1     -11.895  12.141  66.255  1.00  0.00    -0.320 A  
ENDBRANCH   7   8
BRANCH   7  18
HETATM   18  N   UNL     1     -12.663  14.492  69.861  1.00  0.00    -0.547 NA 
HETATM   19  H   UNL     1     -13.616  14.721  69.579  1.00  0.00     0.000 HD 
BRANCH  18  20
HETATM   20  O   UNL     1     -12.311  13.963  71.109  1.00  0.00    -0.347 OA 
BRANCH  20  21
HETATM   21  C   UNL     1     -13.422  14.016  72.002  1.00  0.00    -0.439 C  
BRANCH  21  22
HETATM   22  C   UNL     1     -13.072  15.054  73.075  1.00  0.00    -0.504 C  
HETATM   23  H2  UNL     1     -12.517  16.549  71.781  1.00  0.00     0.000 HD 
HETATM   24  H1  UNL     1     -11.920  16.783  73.329  1.00  0.00     0.000 HD 
HETATM   25  N   UNL     1     -12.153  16.093  72.616  1.00  0.00    -0.525 NA 
ENDBRANCH  21  22
ENDBRANCH  20  21
ENDBRANCH  18  20
ENDBRANCH   7  18
ENDBRANCH   6   7
ENDBRANCH   5   6
ENDBRANCH   4   5
ENDBRANCH   3   4
ENDBRANCH   2   3
TORSDOF 10
ENDMDL
MODEL       12
REMARK 921   NORMALIZED FREE ENERGY PREDICTED BY IDOCK:   -5.62 KCAL/MOL
REMARK 922        TOTAL FREE ENERGY PREDICTED BY IDOCK:  -10.01 KCAL/MOL
REMARK 923 INTER-LIGAND FREE ENERGY PREDICTED BY IDOCK:   -8.92 KCAL/MOL
REMARK 924 INTRA-LIGAND FREE ENERGY PREDICTED BY IDOCK:   -1.09 KCAL/MOL
REMARK 927      BINDING AFFINITY PREDICTED BY RF-SCORE:    0.00 PKD
ROOT
HETATM    1  C   UNL     1     -12.257  12.397  63.467  1.00  0.00    -0.563 C  
HETATM    2  O   UNL     1     -12.429  13.809  63.407  1.00  0.00    -0.817 OA 
ENDROOT
BRANCH   2   3
HETATM    3  C   UNL     1     -12.178  14.400  64.679  1.00  0.00    -0.464 C  
BRANCH   3   4
HETATM    4  C   UNL     1     -10.725  14.166  65.083  1.00  0.00    -0.400 C  
BRANCH   4   5
HETATM    5  C   UNL     1     -10.649  13.847  66.576  1.00  0.00    -0.279 C  
BRANCH   5   6
HETATM    6  C   UNL     1     -11.901  13.133  67.089  1.00  0.00    -0.424 C  
BRANCH   6   7
HETATM    7  C   UNL     1     -12.007  13.189  68.625  1.00  0.00    -0.284 C  
BRANCH   7   8
HETATM    8  C   UNL     1     -11.815  11.931  69.437  1.00  0.00    -0.389 A  
HETATM    9  C   UNL     1     -10.710  11.108  69.163  1.00  0.00    -0.262 A  
HETATM   10  C   UNL     1     -12.656  11.570  70.499  1.00  0.00    -0.286 A  
HETATM   11  F   UNL     1     -11.765   8.340  72.984  1.00  0.00    -0.451 F  
HETATM   12  F   UNL     1     -10.904   7.308  71.276  1.00  0.00    -0.234 F  
HETATM   13  C   UNL     1     -12.367  10.457  71.298  1.00  0.00    -0.507 A  
HETATM   14  F   UNL     1      -9.664   8.609  72.502  1.00  0.00    -0.334 F  
HETATM   15  C   UNL     1     -11.242   9.663  71.050  1.00  0.00    -0.445 A  
HETATM   16  C   UNL     1     -10.901   8.495  71.943  1.00  0.00    -0.322 C  
HETATM   17  C   UNL     1     -10.424   9.991  69.958  1.00  0.00    -0.337 A  
ENDBRANCH   7   8
BRANCH   7  18
HETATM   18  N   UNL     1     -12.309  14.293  69.257  1.00  0.00    -0.528 NA 
HETATM   19  H   UNL     1     -13.177  14.813  69.127  1.00  0.00     0.000 HD 
BRANCH  18  20
HETATM   20  O   UNL     1     -11.286  14.668  70.135  1.00  0.00    -0.246 OA 
BRANCH  20  21
HETATM   21  C   UNL     1     -11.830  15.066  71.393  1.00  0.00    -0.358 C  
BRANCH  21  22
HETATM   22  C   UNL     1     -13.277  15.495  71.127  1.00  0.00    -0.507 C  
HETATM   23  H2  UNL     1     -14.094  14.599  72.785  1.00  0.00     0.000 HD 
HETATM   24  H1  UNL     1     -15.237  14.938  71.607  1.00  0.00     0.000 HD 
HETATM   25  N   UNL     1     -14.274  14.653  71.783  1.00  0.00    -0.485 NA 
ENDBRANCH  21  22
ENDBRANCH  20  21
ENDBRANCH  18  20
ENDBRANCH   7  18
ENDBRANCH   6   7
ENDBRANCH   5   6
ENDBRANCH   4   5
ENDBRANCH   3   4
ENDBRANCH   2   3
TORSDOF 10
ENDMDL
MODEL       13
REMARK 921   NORMALIZED FREE ENERGY PREDICTED BY IDOCK:   -5.56 KCAL/MOL
REMARK 922        TOTAL FREE ENERGY PREDICTED BY IDOCK:   -9.92 KCAL/MOL
REMARK 923 INTER-LIGAND FREE ENERGY PREDICTED BY IDOCK:   -8.53 KCAL/MOL
REMARK 924 INTRA-LIGAND FREE ENERGY PREDICTED BY IDOCK:   -1.39 KCAL/MOL
REMARK 927      BINDING AFFINITY PREDICTED BY RF-SCORE:    0.00 PKD
ROOT
HETATM    1  C   UNL     1      -9.046  10.267  64.443  1.00  0.00    -0.239 C  
HETATM    2  O   UNL     1     -10.383  10.748  64.535  1.00  0.00    -0.345 OA 
ENDROOT
BRANCH   2   3
HETATM    3  C   UNL     1     -10.724  11.509  63.380  1.00  0.00    -0.373 C  
BRANCH   3   4
HETATM    4  C   UNL     1     -12.176  11.968  63.470  1.00  0.00    -0.653 C  
BRANCH   4   5
HETATM    5  C   UNL     1     -12.229  13.434  63.899  1.00  0.00    -0.478 C  
BRANCH   5   6
HETATM    6  C   UNL     1     -12.719  13.608  65.338  1.00  0.00    -0.500 C  
BRANCH   6   7
HETATM    7  C   UNL     1     -11.550  13.757  66.330  1.00  0.00    -0.360 C  
BRANCH   7   8
HETATM    8  C   UNL     1     -11.072  15.133  66.727  1.00  0.00    -0.307 A  
HETATM    9  C   UNL     1     -10.526  15.972  65.741  1.00  0.00    -0.391 A  
HETATM   10  C   UNL     1     -11.201  15.644  68.026  1.00  0.00    -0.339 A  
HETATM   11  F   UNL     1     -10.296  19.620  68.907  1.00  0.00    -0.485 F  
HETATM   12  F   UNL     1      -8.707  19.550  67.425  1.00  0.00    -0.306 F  
HETATM   13  C   UNL     1     -10.853  16.969  68.315  1.00  0.00    -0.341 A  
HETATM   14  F   UNL     1     -10.721  20.125  66.837  1.00  0.00    -0.540 F  
HETATM   15  C   UNL     1     -10.348  17.816  67.322  1.00  0.00    -0.364 A  
HETATM   16  C   UNL     1     -10.023  19.258  67.622  1.00  0.00    -0.358 C  
HETATM   17  C   UNL     1     -10.171  17.296  66.032  1.00  0.00    -0.314 A  
ENDBRANCH   7   8
BRANCH   7  18
HETATM   18  N   UNL     1     -10.917  12.720  66.813  1.00  0.00    -0.264 NA 
HETATM   19  H   UNL     1      -9.903  12.660  66.914  1.00  0.00     0.000 HD 
BRANCH  18  20
HETATM   20  O   UNL     1     -11.810  11.705  67.173  1.00  0.00    -0.608 OA 
BRANCH  20  21
HETATM   21  C   UNL     1     -11.200  10.812  68.104  1.00  0.00    -0.302 C  
BRANCH  21  22
HETATM   22  C   UNL     1     -11.795  11.138  69.478  1.00  0.00    -0.353 C  
HETATM   23  H2  UNL     1     -12.527  12.992  68.981  1.00  0.00     0.000 HD 
HETATM   24  H1  UNL     1     -12.368  12.785  70.637  1.00  0.00     0.000 HD 
HETATM   25  N   UNL     1     -11.971  12.568  69.722  1.00  0.00    -0.311 NA 
ENDBRANCH  21  22
ENDBRANCH  20  21
ENDBRANCH  18  20
ENDBRANCH   7  18
ENDBRANCH   6   7
ENDBRANCH   5   6
ENDBRANCH   4   5
ENDBRANCH   3   4
ENDBRANCH   2   3
TORSDOF 10
ENDMDL
MODEL       14
REMARK 921   NORMALIZED FREE ENERGY PREDICTED BY IDOCK:   -5.55 KCAL/MOL
REMARK 922        TOTAL FREE ENERGY PREDICTED BY IDOCK:   -9.90 KCAL/MOL
REMARK 923 INTER-LIGAND FREE ENERGY PREDICTED BY IDOCK:   -8.80 KCAL/MOL
REMARK 924 INTRA-LIGAND FREE ENERGY PREDICTED BY IDOCK:   -1.10 KCAL/MOL
REMARK 927      BINDING AFFINITY PREDICTED BY RF-SCORE:    0.00 PKD
ROOT
HETATM    1  C   UNL     1     -12.497  11.843  63.331  1.00  0.00    -0.463 C  
HETATM    2  O   UNL     1     -12.616  13.259  63.421  1.00  0.00    -0.730 OA 
ENDROOT
BRANCH   2   3
HETATM    3  C   UNL     1     -11.786  13.767  64.462  1.00  0.00    -0.407 C  
BRANCH   3   4
HETATM    4  C   UNL     1     -12.582  13.871  65.758  1.00  0.00    -0.533 C  
BRANCH   4   5
HETATM    5  C   UNL     1     -11.958  12.967  66.821  1.00  0.00    -0.418 C  
BRANCH   5   6
HETATM    6  C   UNL     1     -10.874  13.678  67.635  1.00  0.00    -0.268 C  
BRANCH   6   7
HETATM    7  C   UNL     1     -11.410  14.950  68.319  1.00  0.00    -0.310 C  
BRANCH   7   8
HETATM    8  C   UNL     1     -10.851  16.299  67.936  1.00  0.00    -0.330 A  
HETATM    9  C   UNL     1     -10.612  17.246  68.947  1.00  0.00    -0.276 A  
HETATM   10  C   UNL     1     -10.501  16.638  66.622  1.00  0.00    -0.258 A  
HETATM   11  F   UNL     1      -8.522  20.204  65.742  1.00  0.00    -0.344 F  
HETATM   12  F   UNL     1      -9.627  21.172  67.344  1.00  0.00    -0.595 F  
HETATM   13  C   UNL     1      -9.876  17.858  66.337  1.00  0.00    -0.339 A  
HETATM   14  F   UNL     1      -7.725  20.204  67.763  1.00  0.00    -0.312 F  
HETATM   15  C   UNL     1      -9.600  18.782  67.350  1.00  0.00    -0.337 A  
HETATM   16  C   UNL     1      -8.878  20.073  67.051  1.00  0.00    -0.347 C  
HETATM   17  C   UNL     1      -9.993  18.470  68.660  1.00  0.00    -0.419 A  
ENDBRANCH   7   8
BRANCH   7  18
HETATM   18  N   UNL     1     -12.309  14.899  69.266  1.00  0.00    -0.574 NA 
HETATM   19  H   UNL     1     -13.213  15.372  69.229  1.00  0.00     0.000 HD 
BRANCH  18  20
HETATM   20  O   UNL     1     -11.871  14.112  70.338  1.00  0.00    -0.297 OA 
BRANCH  20  21
HETATM   21  C   UNL     1     -12.949  13.851  71.236  1.00  0.00    -0.341 C  
BRANCH  21  22
HETATM   22  C   UNL     1     -13.464  15.215  71.710  1.00  0.00    -0.433 C  
HETATM   23  H2  UNL     1     -11.658  16.189  71.624  1.00  0.00     0.000 HD 
HETATM   24  H1  UNL     1     -12.771  16.980  72.596  1.00  0.00     0.000 HD 
HETATM   25  N   UNL     1     -12.428  16.073  72.281  1.00  0.00    -0.463 NA 
ENDBRANCH  21  22
ENDBRANCH  20  21
ENDBRANCH  18  20
ENDBRANCH   7  18
ENDBRANCH   6   7
ENDBRANCH   5   6
ENDBRANCH   4   5
ENDBRANCH   3   4
ENDBRANCH   2   3
TORSDOF 10
ENDMDL
MODEL       15
REMARK 921   NORMALIZED FREE ENERGY PREDICTED BY IDOCK:   -5.54 KCAL/MOL
REMARK 922        TOTAL FREE ENERGY PREDICTED BY IDOCK:   -9.88 KCAL/MOL
REMARK 923 INTER-LIGAND FREE ENERGY PREDICTED BY IDOCK:   -8.69 KCAL/MOL
REMARK 924 INTRA-LIGAND FREE ENERGY PREDICTED BY IDOCK:   -1.19 KCAL/MOL
REMARK 927      BINDING AFFINITY PREDICTED BY RF-SCORE:    0.00 PKD
ROOT
HETATM    1  C   UNL     1      -9.727  10.414  64.154  1.00  0.00    -0.324 C  
HETATM    2  O   UNL     1     -10.918  11.194  64.181  1.00  0.00    -0.358 OA 
ENDROOT
BRANCH   2   3
HETATM    3  C   UNL     1     -10.609  12.582  64.277  1.00  0.00    -0.369 C  
BRANCH   3   4
HETATM    4  C   UNL     1     -11.892  13.405  64.221  1.00  0.00    -0.470 C  
BRANCH   4   5
HETATM    5  C   UNL     1     -12.491  13.524  65.623  1.00  0.00    -0.528 C  
BRANCH   5   6
HETATM    6  C   UNL     1     -11.422  13.653  66.710  1.00  0.00    -0.370 C  
BRANCH   6   7
HETATM    7  C   UNL     1     -11.848  12.965  68.021  1.00  0.00    -0.343 C  
BRANCH   7   8
HETATM    8  C   UNL     1     -12.060  13.792  69.267  1.00  0.00    -0.374 A  
HETATM    9  C   UNL     1     -12.758  13.225  70.347  1.00  0.00    -0.103 A  
HETATM   10  C   UNL     1     -11.541  15.084  69.426  1.00  0.00    -0.337 A  
HETATM   11  F   UNL     1     -11.766  17.092  73.076  1.00  0.00    -0.558 F  
HETATM   12  F   UNL     1     -13.688  16.144  73.439  1.00  0.00    -0.659 F  
HETATM   13  C   UNL     1     -11.662  15.763  70.644  1.00  0.00    -0.412 A  
HETATM   14  F   UNL     1     -11.853  15.165  74.076  1.00  0.00    -0.582 F  
HETATM   15  C   UNL     1     -12.320  15.180  71.733  1.00  0.00    -0.424 A  
HETATM   16  C   UNL     1     -12.405  15.888  73.062  1.00  0.00    -0.498 C  
HETATM   17  C   UNL     1     -12.885  13.906  71.564  1.00  0.00    -0.441 A  
ENDBRANCH   7   8
BRANCH   7  18
HETATM   18  N   UNL     1     -11.990  11.669  68.108  1.00  0.00    -0.590 NA 
HETATM   19  H   UNL     1     -12.799  11.204  68.522  1.00  0.00     0.000 HD 
BRANCH  18  20
HETATM   20  O   UNL     1     -10.889  11.002  67.559  1.00  0.00    -0.226 OA 
BRANCH  20  21
HETATM   21  C   UNL     1      -9.912  10.742  68.565  1.00  0.00    -0.178 C  
BRANCH  21  22
HETATM   22  C   UNL     1     -10.494   9.647  69.467  1.00  0.00    -0.224 C  
HETATM   23  H2  UNL     1     -11.834  10.848  70.458  1.00  0.00     0.000 HD 
HETATM   24  H1  UNL     1     -11.509   9.426  71.284  1.00  0.00     0.000 HD 
HETATM   25  N   UNL     1     -11.122  10.154  70.684  1.00  0.00    -0.323 NA 
ENDBRANCH  21  22
ENDBRANCH  20  21
ENDBRANCH  18  20
ENDBRANCH   7  18
ENDBRANCH   6   7
ENDBRANCH   5   6
ENDBRANCH   4   5
ENDBRANCH   3   4
ENDBRANCH   2   3
TORSDOF 10
ENDMDL
MODEL       16
REMARK 921   NORMALIZED FREE ENERGY PREDICTED BY IDOCK:   -5.53 KCAL/MOL
REMARK 922        TOTAL FREE ENERGY PREDICTED BY IDOCK:   -9.86 KCAL/MOL
REMARK 923 INTER-LIGAND FREE ENERGY PREDICTED BY IDOCK:   -8.81 KCAL/MOL
REMARK 924 INTRA-LIGAND FREE ENERGY PREDICTED BY IDOCK:   -1.05 KCAL/MOL
REMARK 927      BINDING AFFINITY PREDICTED BY RF-SCORE:    0.00 PKD
ROOT
HETATM    1  C   UNL     1      -9.709  20.623  67.370  1.00  0.00    -0.411 C  
HETATM    2  O   UNL     1      -9.145  19.546  68.113  1.00  0.00    -0.322 OA 
ENDROOT
BRANCH   2   3
HETATM    3  C   UNL     1      -9.084  18.365  67.318  1.00  0.00    -0.266 C  
BRANCH   3   4
HETATM    4  C   UNL     1     -10.225  18.361  66.305  1.00  0.00    -0.427 C  
BRANCH   4   5
HETATM    5  C   UNL     1     -10.462  16.937  65.801  1.00  0.00    -0.279 C  
BRANCH   5   6
HETATM    6  C   UNL     1      -9.820  15.880  66.701  1.00  0.00    -0.267 C  
BRANCH   6   7
HETATM    7  C   UNL     1     -10.811  14.762  67.074  1.00  0.00    -0.315 C  
BRANCH   7   8
HETATM    8  C   UNL     1     -11.296  14.632  68.498  1.00  0.00    -0.305 A  
HETATM    9  C   UNL     1     -11.459  15.796  69.268  1.00  0.00    -0.368 A  
HETATM   10  C   UNL     1     -11.652  13.406  69.077  1.00  0.00    -0.358 A  
HETATM   11  F   UNL     1     -13.433  13.209  72.844  1.00  0.00    -0.566 F  
HETATM   12  F   UNL     1     -12.241  14.919  73.459  1.00  0.00    -0.464 F  
HETATM   13  C   UNL     1     -12.210  13.352  70.360  1.00  0.00    -0.415 A  
HETATM   14  F   UNL     1     -14.189  15.223  72.539  1.00  0.00    -0.533 F  
HETATM   15  C   UNL     1     -12.410  14.517  71.109  1.00  0.00    -0.415 A  
HETATM   16  C   UNL     1     -13.060  14.465  72.470  1.00  0.00    -0.450 C  
HETATM   17  C   UNL     1     -12.011  15.742  70.554  1.00  0.00    -0.401 A  
ENDBRANCH   7   8
BRANCH   7  18
HETATM   18  N   UNL     1     -11.218  13.879  66.200  1.00  0.00    -0.299 NA 
HETATM   19  H   UNL     1     -12.191  13.598  66.074  1.00  0.00     0.000 HD 
BRANCH  18  20
HETATM   20  O   UNL     1     -10.145  13.369  65.460  1.00  0.00    -0.295 OA 
BRANCH  20  21
HETATM   21  C   UNL     1     -10.622  12.614  64.347  1.00  0.00    -0.364 C  
BRANCH  21  22
HETATM   22  C   UNL     1     -11.950  13.251  63.923  1.00  0.00    -0.483 C  
HETATM   23  H2  UNL     1     -13.115  12.330  65.343  1.00  0.00     0.000 HD 
HETATM   24  H1  UNL     1     -14.013  12.918  64.055  1.00  0.00     0.000 HD 
HETATM   25  N   UNL     1     -13.129  12.494  64.337  1.00  0.00    -0.807 NA 
ENDBRANCH  21  22
ENDBRANCH  20  21
ENDBRANCH  18  20
ENDBRANCH   7  18
ENDBRANCH   6   7
ENDBRANCH   5   6
ENDBRANCH   4   5
ENDBRANCH   3   4
ENDBRANCH   2   3
TORSDOF 10
ENDMDL
MODEL       17
REMARK 921   NORMALIZED FREE ENERGY PREDICTED BY IDOCK:   -5.48 KCAL/MOL
REMARK 922        TOTAL FREE ENERGY PREDICTED BY IDOCK:   -9.80 KCAL/MOL
REMARK 923 INTER-LIGAND FREE ENERGY PREDICTED BY IDOCK:   -8.89 KCAL/MOL
REMARK 924 INTRA-LIGAND FREE ENERGY PREDICTED BY IDOCK:   -0.91 KCAL/MOL
REMARK 927      BINDING AFFINITY PREDICTED BY RF-SCORE:    0.00 PKD
ROOT
HETATM    1  C   UNL     1      -9.951  11.215  64.012  1.00  0.00    -0.323 C  
HETATM    2  O   UNL     1     -10.628  12.455  64.191  1.00  0.00    -0.327 OA 
ENDROOT
BRANCH   2   3
HETATM    3  C   UNL     1     -10.574  12.864  65.555  1.00  0.00    -0.279 C  
BRANCH   3   4
HETATM    4  C   UNL     1     -11.977  12.860  66.155  1.00  0.00    -0.491 C  
BRANCH   4   5
HETATM    5  C   UNL     1     -12.159  14.085  67.051  1.00  0.00    -0.455 C  
BRANCH   5   6
HETATM    6  C   UNL     1     -11.286  14.030  68.306  1.00  0.00    -0.317 C  
BRANCH   6   7
HETATM    7  C   UNL     1     -12.115  13.736  69.571  1.00  0.00    -0.334 C  
BRANCH   7   8
HETATM    8  C   UNL     1     -12.140  12.339  70.144  1.00  0.00    -0.364 A  
HETATM    9  C   UNL     1     -12.999  12.062  71.221  1.00  0.00    -0.315 A  
HETATM   10  C   UNL     1     -11.388  11.281  69.615  1.00  0.00    -0.359 A  
HETATM   11  F   UNL     1     -11.889   7.363  70.956  1.00  0.00    -0.296 F  
HETATM   12  F   UNL     1     -12.280   8.133  72.951  1.00  0.00    -0.383 F  
HETATM   13  C   UNL     1     -11.536   9.978  70.105  1.00  0.00    -0.344 A  
HETATM   14  F   UNL     1     -13.918   7.874  71.542  1.00  0.00    -0.374 F  
HETATM   15  C   UNL     1     -12.423   9.696  71.149  1.00  0.00    -0.421 A  
HETATM   16  C   UNL     1     -12.622   8.284  71.641  1.00  0.00    -0.327 C  
HETATM   17  C   UNL     1     -13.142  10.759  71.715  1.00  0.00    -0.573 A  
ENDBRANCH   7   8
BRANCH   7  18
HETATM   18  N   UNL     1     -12.845  14.653  70.148  1.00  0.00    -0.567 NA 
HETATM   19  H   UNL     1     -13.831  14.540  70.386  1.00  0.00     0.000 HD 
BRANCH  18  20
HETATM   20  O   UNL     1     -12.099  15.811  70.397  1.00  0.00    -0.378 OA 
BRANCH  20  21
HETATM   21  C   UNL     1     -11.716  15.871  71.770  1.00  0.00    -0.491 C  
BRANCH  21  22
HETATM   22  C   UNL     1     -13.014  15.907  72.585  1.00  0.00    -0.466 C  
HETATM   23  H2  UNL     1     -12.308  17.108  74.095  1.00  0.00     0.000 HD 
HETATM   24  H1  UNL     1     -13.682  16.256  74.538  1.00  0.00     0.000 HD 
HETATM   25  N   UNL     1     -12.819  16.231  73.996  1.00  0.00    -0.708 NA 
ENDBRANCH  21  22
ENDBRANCH  20  21
ENDBRANCH  18  20
ENDBRANCH   7  18
ENDBRANCH   6   7
ENDBRANCH   5   6
ENDBRANCH   4   5
ENDBRANCH   3   4
ENDBRANCH   2   3
TORSDOF 10
ENDMDL
MODEL       18
REMARK 921   NORMALIZED FREE ENERGY PREDICTED BY IDOCK:   -5.47 KCAL/MOL
REMARK 922        TOTAL FREE ENERGY PREDICTED BY IDOCK:   -9.77 KCAL/MOL
REMARK 923 INTER-LIGAND FREE ENERGY PREDICTED BY IDOCK:   -8.85 KCAL/MOL
REMARK 924 INTRA-LIGAND FREE ENERGY PREDICTED BY IDOCK:   -0.92 KCAL/MOL
REMARK 927      BINDING AFFINITY PREDICTED BY RF-SCORE:    0.00 PKD
ROOT
HETATM    1  C   UNL     1     -13.865  15.665  72.652  1.00  0.00    -0.564 C  
HETATM    2  O   UNL     1     -12.493  15.997  72.838  1.00  0.00    -0.424 OA 
ENDROOT
BRANCH   2   3
HETATM    3  C   UNL     1     -11.782  15.905  71.607  1.00  0.00    -0.485 C  
BRANCH   3   4
HETATM    4  C   UNL     1     -12.749  15.590  70.471  1.00  0.00    -0.436 C  
BRANCH   4   5
HETATM    5  C   UNL     1     -11.979  15.467  69.156  1.00  0.00    -0.331 C  
BRANCH   5   6
HETATM    6  C   UNL     1     -10.801  14.496  69.252  1.00  0.00    -0.270 C  
BRANCH   6   7
HETATM    7  C   UNL     1     -11.113  13.144  68.584  1.00  0.00    -0.269 C  
BRANCH   7   8
HETATM    8  C   UNL     1     -11.558  11.974  69.430  1.00  0.00    -0.393 A  
HETATM    9  C   UNL     1     -10.967  10.717  69.214  1.00  0.00    -0.292 A  
HETATM   10  C   UNL     1     -12.494  12.091  70.467  1.00  0.00    -0.292 A  
HETATM   11  F   UNL     1     -13.293   8.916  73.052  1.00  0.00    -0.445 F  
HETATM   12  F   UNL     1     -12.983   7.538  71.399  1.00  0.00    -0.344 F  
HETATM   13  C   UNL     1     -12.783  11.003  71.300  1.00  0.00    -0.537 A  
HETATM   14  F   UNL     1     -11.304   8.144  72.642  1.00  0.00    -0.377 F  
HETATM   15  C   UNL     1     -12.163   9.764  71.110  1.00  0.00    -0.453 A  
HETATM   16  C   UNL     1     -12.435   8.607  72.040  1.00  0.00    -0.373 C  
HETATM   17  C   UNL     1     -11.262   9.627  70.043  1.00  0.00    -0.271 A  
ENDBRANCH   7   8
BRANCH   7  18
HETATM   18  N   UNL     1     -10.961  12.955  67.300  1.00  0.00    -0.255 NA 
HETATM   19  H   UNL     1     -10.057  12.888  66.831  1.00  0.00     0.000 HD 
BRANCH  18  20
HETATM   20  O   UNL     1     -12.198  12.858  66.653  1.00  0.00    -0.434 OA 
BRANCH  20  21
HETATM   21  C   UNL     1     -12.377  13.951  65.754  1.00  0.00    -0.486 C  
BRANCH  21  22
HETATM   22  C   UNL     1     -12.249  13.378  64.338  1.00  0.00    -0.389 C  
HETATM   23  H2  UNL     1     -14.062  12.413  64.313  1.00  0.00     0.000 HD 
HETATM   24  H1  UNL     1     -13.003  11.826  63.153  1.00  0.00     0.000 HD 
HETATM   25  N   UNL     1     -13.088  12.207  64.095  1.00  0.00    -0.734 NA 
ENDBRANCH  21  22
ENDBRANCH  20  21
ENDBRANCH  18  20
ENDBRANCH   7  18
ENDBRANCH   6   7
ENDBRANCH   5   6
ENDBRANCH   4   5
ENDBRANCH   3   4
ENDBRANCH   2   3
TORSDOF 10
ENDMDL
MODEL       19
REMARK 921   NORMALIZED FREE ENERGY PREDICTED BY IDOCK:   -5.46 KCAL/MOL
REMARK 922        TOTAL FREE ENERGY PREDICTED BY IDOCK:   -9.77 KCAL/MOL
REMARK 923 INTER-LIGAND FREE ENERGY PREDICTED BY IDOCK:   -8.57 KCAL/MOL
REMARK 924 INTRA-LIGAND FREE ENERGY PREDICTED BY IDOCK:   -1.20 KCAL/MOL
REMARK 927      BINDING AFFINITY PREDICTED BY RF-SCORE:    0.00 PKD
ROOT
HETATM    1  C   UNL     1      -8.828  10.530  64.672  1.00  0.00    -0.196 C  
HETATM    2  O   UNL     1     -10.228  10.557  64.416  1.00  0.00    -0.346 OA 
ENDROOT
BRANCH   2   3
HETATM    3  C   UNL     1     -10.524  11.437  63.335  1.00  0.00    -0.390 C  
BRANCH   3   4
HETATM    4  C   UNL     1     -11.940  11.986  63.484  1.00  0.00    -0.605 C  
BRANCH   4   5
HETATM    5  C   UNL     1     -11.893  13.359  64.155  1.00  0.00    -0.492 C  
BRANCH   5   6
HETATM    6  C   UNL     1     -12.776  13.435  65.402  1.00  0.00    -0.484 C  
BRANCH   6   7
HETATM    7  C   UNL     1     -11.956  13.732  66.671  1.00  0.00    -0.431 C  
BRANCH   7   8
HETATM    8  C   UNL     1     -11.758  12.651  67.707  1.00  0.00    -0.412 A  
HETATM    9  C   UNL     1     -11.998  12.953  69.058  1.00  0.00    -0.297 A  
HETATM   10  C   UNL     1     -11.402  11.335  67.381  1.00  0.00    -0.349 A  
HETATM   11  F   UNL     1     -11.353   8.313  70.257  1.00  0.00    -0.266 F  
HETATM   12  F   UNL     1     -10.696   9.772  71.728  1.00  0.00    -0.345 F  
HETATM   13  C   UNL     1     -11.348  10.340  68.365  1.00  0.00    -0.244 A  
HETATM   14  F   UNL     1     -12.820   9.440  71.397  1.00  0.00    -0.339 F  
HETATM   15  C   UNL     1     -11.629  10.634  69.704  1.00  0.00    -0.368 A  
HETATM   16  C   UNL     1     -11.623   9.552  70.756  1.00  0.00    -0.308 C  
HETATM   17  C   UNL     1     -11.938  11.959  70.044  1.00  0.00    -0.409 A  
ENDBRANCH   7   8
BRANCH   7  18
HETATM   18  N   UNL     1     -11.457  14.916  66.911  1.00  0.00    -0.341 NA 
HETATM   19  H   UNL     1     -12.015  15.751  67.090  1.00  0.00     0.000 HD 
BRANCH  18  20
HETATM   20  O   UNL     1     -10.058  14.888  66.890  1.00  0.00    -0.238 OA 
BRANCH  20  21
HETATM   21  C   UNL     1      -9.563  15.583  65.746  1.00  0.00    -0.332 C  
BRANCH  21  22
HETATM   22  C   UNL     1     -10.433  16.834  65.584  1.00  0.00    -0.269 C  
HETATM   23  H2  UNL     1     -11.846  15.980  64.363  1.00  0.00     0.000 HD 
HETATM   24  H1  UNL     1     -11.851  17.654  64.281  1.00  0.00     0.000 HD 
HETATM   25  N   UNL     1     -11.272  16.822  64.389  1.00  0.00    -1.107 NA 
ENDBRANCH  21  22
ENDBRANCH  20  21
ENDBRANCH  18  20
ENDBRANCH   7  18
ENDBRANCH   6   7
ENDBRANCH   5   6
ENDBRANCH   4   5
ENDBRANCH   3   4
ENDBRANCH   2   3
TORSDOF 10
ENDMDL
MODEL       20
REMARK 921   NORMALIZED FREE ENERGY PREDICTED BY IDOCK:   -5.45 KCAL/MOL
REMARK 922        TOTAL FREE ENERGY PREDICTED BY IDOCK:   -9.74 KCAL/MOL
REMARK 923 INTER-LIGAND FREE ENERGY PREDICTED BY IDOCK:   -9.01 KCAL/MOL
REMARK 924 INTRA-LIGAND FREE ENERGY PREDICTED BY IDOCK:   -0.73 KCAL/MOL
REMARK 927      BINDING AFFINITY PREDICTED BY RF-SCORE:    0.00 PKD
ROOT
HETATM    1  C   UNL     1      -7.406  19.765  68.114  1.00  0.00    -0.303 C  
HETATM    2  O   UNL     1      -8.068  20.509  67.097  1.00  0.00    -0.336 OA 
ENDROOT
BRANCH   2   3
HETATM    3  C   UNL     1      -9.474  20.281  67.140  1.00  0.00    -0.422 C  
BRANCH   3   4
HETATM    4  C   UNL     1      -9.791  18.891  66.599  1.00  0.00    -0.396 C  
BRANCH   4   5
HETATM    5  C   UNL     1     -10.853  18.226  67.474  1.00  0.00    -0.282 C  
BRANCH   5   6
HETATM    6  C   UNL     1     -10.315  17.010  68.230  1.00  0.00    -0.347 C  
BRANCH   6   7
HETATM    7  C   UNL     1     -11.300  15.825  68.191  1.00  0.00    -0.337 C  
BRANCH   7   8
HETATM    8  C   UNL     1     -11.172  14.779  67.110  1.00  0.00    -0.346 A  
HETATM    9  C   UNL     1     -11.932  13.602  67.211  1.00  0.00    -0.420 A  
HETATM   10  C   UNL     1     -10.373  14.949  65.971  1.00  0.00    -0.313 A  
HETATM   11  F   UNL     1     -10.461  12.219  62.818  1.00  0.00    -0.268 F  
HETATM   12  F   UNL     1     -10.781  10.621  64.256  1.00  0.00    -0.429 F  
HETATM   13  C   UNL     1     -10.380  14.002  64.940  1.00  0.00    -0.434 A  
HETATM   14  F   UNL     1     -12.481  11.678  63.405  1.00  0.00    -0.613 F  
HETATM   15  C   UNL     1     -11.171  12.850  65.023  1.00  0.00    -0.324 A  
HETATM   16  C   UNL     1     -11.220  11.856  63.889  1.00  0.00    -0.420 C  
HETATM   17  C   UNL     1     -11.935  12.651  66.183  1.00  0.00    -0.458 A  
ENDBRANCH   7   8
BRANCH   7  18
HETATM   18  N   UNL     1     -12.285  15.716  69.043  1.00  0.00    -0.594 NA 
HETATM   19  H   UNL     1     -13.272  15.797  68.797  1.00  0.00     0.000 HD 
BRANCH  18  20
HETATM   20  O   UNL     1     -11.809  15.474  70.337  1.00  0.00    -0.295 OA 
BRANCH  20  21
HETATM   21  C   UNL     1     -12.840  15.703  71.297  1.00  0.00    -0.487 C  
BRANCH  21  22
HETATM   22  C   UNL     1     -12.141  16.105  72.601  1.00  0.00    -0.554 C  
HETATM   23  H2  UNL     1     -13.387  15.067  73.863  1.00  0.00     0.000 HD 
HETATM   24  H1  UNL     1     -12.527  16.271  74.652  1.00  0.00     0.000 HD 
HETATM   25  N   UNL     1     -12.992  16.004  73.784  1.00  0.00    -0.630 NA 
ENDBRANCH  21  22
ENDBRANCH  20  21
ENDBRANCH  18  20
ENDBRANCH   7  18
ENDBRANCH   6   7
ENDBRANCH   5   6
ENDBRANCH   4   5
ENDBRANCH   3   4
ENDBRANCH   2   3
TORSDOF 10
ENDMDL
MODEL       21
REMARK 921   NORMALIZED FREE ENERGY PREDICTED BY IDOCK:   -5.44 KCAL/MOL
REMARK 922        TOTAL FREE ENERGY PREDICTED BY IDOCK:   -9.73 KCAL/MOL
REMARK 923 INTER-LIGAND FREE ENERGY PREDICTED BY IDOCK:   -8.55 KCAL/MOL
REMARK 924 INTRA-LIGAND FREE ENERGY PREDICTED BY IDOCK:   -1.18 KCAL/MOL
REMARK 927      BINDING AFFINITY PREDICTED BY RF-SCORE:    0.00 PKD
ROOT
HETATM    1  C   UNL     1     -13.536   9.519  72.051  1.00  0.00    -0.443 C  
HETATM    2  O   UNL     1     -13.031  10.405  71.058  1.00  0.00    -0.368 OA 
ENDROOT
BRANCH   2   3
HETATM    3  C   UNL     1     -12.934  11.731  71.570  1.00  0.00    -0.341 C  
BRANCH   3   4
HETATM    4  C   UNL     1     -12.195  12.620  70.574  1.00  0.00    -0.383 C  
BRANCH   4   5
HETATM    5  C   UNL     1     -11.984  11.862  69.264  1.00  0.00    -0.342 C  
BRANCH   5   6
HETATM    6  C   UNL     1     -10.866  12.464  68.410  1.00  0.00    -0.263 C  
BRANCH   6   7
HETATM    7  C   UNL     1     -11.420  13.311  67.249  1.00  0.00    -0.338 C  
BRANCH   7   8
HETATM    8  C   UNL     1     -11.144  14.795  67.205  1.00  0.00    -0.333 A  
HETATM    9  C   UNL     1     -11.249  15.541  68.391  1.00  0.00    -0.341 A  
HETATM   10  C   UNL     1     -10.728  15.461  66.044  1.00  0.00    -0.326 A  
HETATM   11  F   UNL     1      -9.528  19.456  66.134  1.00  0.00    -0.348 F  
HETATM   12  F   UNL     1     -11.006  19.829  67.683  1.00  0.00    -0.527 F  
HETATM   13  C   UNL     1     -10.369  16.814  66.082  1.00  0.00    -0.338 A  
HETATM   14  F   UNL     1      -8.996  19.199  68.225  1.00  0.00    -0.317 F  
HETATM   15  C   UNL     1     -10.434  17.545  67.273  1.00  0.00    -0.327 A  
HETATM   16  C   UNL     1      -9.996  18.988  67.325  1.00  0.00    -0.344 C  
HETATM   17  C   UNL     1     -10.897  16.896  68.427  1.00  0.00    -0.347 A  
ENDBRANCH   7   8
BRANCH   7  18
HETATM   18  N   UNL     1     -12.171  12.794  66.313  1.00  0.00    -0.538 NA 
HETATM   19  H   UNL     1     -13.096  13.141  66.058  1.00  0.00     0.000 HD 
BRANCH  18  20
HETATM   20  O   UNL     1     -11.541  11.701  65.706  1.00  0.00    -0.284 OA 
BRANCH  20  21
HETATM   21  C   UNL     1     -11.037  12.068  64.422  1.00  0.00    -0.342 C  
BRANCH  21  22
HETATM   22  C   UNL     1     -12.256  12.324  63.530  1.00  0.00    -0.568 C  
HETATM   23  H2  UNL     1     -11.772  14.255  63.023  1.00  0.00     0.000 HD 
HETATM   24  H1  UNL     1     -13.393  13.909  62.771  1.00  0.00     0.000 HD 
HETATM   25  N   UNL     1     -12.582  13.739  63.365  1.00  0.00    -0.789 NA 
ENDBRANCH  21  22
ENDBRANCH  20  21
ENDBRANCH  18  20
ENDBRANCH   7  18
ENDBRANCH   6   7
ENDBRANCH   5   6
ENDBRANCH   4   5
ENDBRANCH   3   4
ENDBRANCH   2   3
TORSDOF 10
ENDMDL
MODEL       22
REMARK 921   NORMALIZED FREE ENERGY PREDICTED BY IDOCK:   -5.44 KCAL/MOL
REMARK 922        TOTAL FREE ENERGY PREDICTED BY IDOCK:   -9.73 KCAL/MOL
REMARK 923 INTER-LIGAND FREE ENERGY PREDICTED BY IDOCK:   -9.00 KCAL/MOL
REMARK 924 INTRA-LIGAND FREE ENERGY PREDICTED BY IDOCK:   -0.73 KCAL/MOL
REMARK 927      BINDING AFFINITY PREDICTED BY RF-SCORE:    0.00 PKD
ROOT
HETATM    1  C   UNL     1     -12.248  12.227  63.652  1.00  0.00    -0.567 C  
HETATM    2  O   UNL     1     -12.567  13.599  63.861  1.00  0.00    -0.687 OA 
ENDROOT
BRANCH   2   3
HETATM    3  C   UNL     1     -12.363  13.961  65.224  1.00  0.00    -0.464 C  
BRANCH   3   4
HETATM    4  C   UNL     1     -10.869  14.039  65.521  1.00  0.00    -0.311 C  
BRANCH   4   5
HETATM    5  C   UNL     1     -10.633  13.890  67.025  1.00  0.00    -0.279 C  
BRANCH   5   6
HETATM    6  C   UNL     1     -11.937  13.835  67.822  1.00  0.00    -0.391 C  
BRANCH   6   7
HETATM    7  C   UNL     1     -11.684  13.639  69.328  1.00  0.00    -0.325 C  
BRANCH   7   8
HETATM    8  C   UNL     1     -11.872  12.275  69.950  1.00  0.00    -0.383 A  
HETATM    9  C   UNL     1     -11.064  11.212  69.513  1.00  0.00    -0.311 A  
HETATM   10  C   UNL     1     -12.778  12.027  70.990  1.00  0.00    -0.337 A  
HETATM   11  F   UNL     1     -12.882   8.353  72.963  1.00  0.00    -0.274 F  
HETATM   12  F   UNL     1     -12.374   7.373  71.090  1.00  0.00    -0.328 F  
HETATM   13  C   UNL     1     -12.831  10.775  71.614  1.00  0.00    -0.562 A  
HETATM   14  F   UNL     1     -10.798   8.059  72.424  1.00  0.00    -0.283 F  
HETATM   15  C   UNL     1     -11.995   9.730  71.206  1.00  0.00    -0.471 A  
HETATM   16  C   UNL     1     -12.014   8.397  71.913  1.00  0.00    -0.338 C  
HETATM   17  C   UNL     1     -11.121   9.958  70.133  1.00  0.00    -0.353 A  
ENDBRANCH   7   8
BRANCH   7  18
HETATM   18  N   UNL     1     -11.352  14.633  70.109  1.00  0.00    -0.360 NA 
HETATM   19  H   UNL     1     -10.479  14.687  70.634  1.00  0.00     0.000 HD 
BRANCH  18  20
HETATM   20  O   UNL     1     -12.350  15.614  70.131  1.00  0.00    -0.395 OA 
BRANCH  20  21
HETATM   21  C   UNL     1     -13.132  15.502  71.319  1.00  0.00    -0.511 C  
BRANCH  21  22
HETATM   22  C   UNL     1     -12.204  15.856  72.487  1.00  0.00    -0.500 C  
HETATM   23  H2  UNL     1     -13.397  15.090  73.973  1.00  0.00     0.000 HD 
HETATM   24  H1  UNL     1     -12.267  16.183  74.554  1.00  0.00     0.000 HD 
HETATM   25  N   UNL     1     -12.884  15.948  73.777  1.00  0.00    -0.569 NA 
ENDBRANCH  21  22
ENDBRANCH  20  21
ENDBRANCH  18  20
ENDBRANCH   7  18
ENDBRANCH   6   7
ENDBRANCH   5   6
ENDBRANCH   4   5
ENDBRANCH   3   4
ENDBRANCH   2   3
TORSDOF 10
ENDMDL
MODEL       23
REMARK 921   NORMALIZED FREE ENERGY PREDICTED BY IDOCK:   -5.44 KCAL/MOL
REMARK 922        TOTAL FREE ENERGY PREDICTED BY IDOCK:   -9.72 KCAL/MOL
REMARK 923 INTER-LIGAND FREE ENERGY PREDICTED BY IDOCK:   -8.96 KCAL/MOL
REMARK 924 INTRA-LIGAND FREE ENERGY PREDICTED BY IDOCK:   -0.77 KCAL/MOL
REMARK 927      BINDING AFFINITY PREDICTED BY RF-SCORE:    0.00 PKD
ROOT
HETATM    1  C   UNL     1     -10.664  11.947  63.354  1.00  0.00    -0.413 C  
HETATM    2  O   UNL     1     -11.765  12.845  63.441  1.00  0.00    -0.514 OA 
ENDROOT
BRANCH   2   3
HETATM    3  C   UNL     1     -12.473  12.655  64.664  1.00  0.00    -0.466 C  
BRANCH   3   4
HETATM    4  C   UNL     1     -12.726  14.002  65.332  1.00  0.00    -0.499 C  
BRANCH   4   5
HETATM    5  C   UNL     1     -12.053  14.033  66.704  1.00  0.00    -0.487 C  
BRANCH   5   6
HETATM    6  C   UNL     1     -11.746  12.633  67.240  1.00  0.00    -0.435 C  
BRANCH   6   7
HETATM    7  C   UNL     1     -10.970  12.683  68.570  1.00  0.00    -0.261 C  
BRANCH   7   8
HETATM    8  C   UNL     1     -11.446  13.586  69.683  1.00  0.00    -0.283 A  
HETATM    9  C   UNL     1     -12.459  13.128  70.542  1.00  0.00    -0.322 A  
HETATM   10  C   UNL     1     -10.883  14.843  69.941  1.00  0.00    -0.228 A  
HETATM   11  F   UNL     1     -11.933  17.048  73.323  1.00  0.00    -0.497 F  
HETATM   12  F   UNL     1     -13.954  16.263  73.165  1.00  0.00    -0.679 F  
HETATM   13  C   UNL     1     -11.277  15.591  71.058  1.00  0.00    -0.419 A  
HETATM   14  F   UNL     1     -12.454  15.187  74.316  1.00  0.00    -0.626 F  
HETATM   15  C   UNL     1     -12.256  15.115  71.936  1.00  0.00    -0.431 A  
HETATM   16  C   UNL     1     -12.642  15.896  73.168  1.00  0.00    -0.513 C  
HETATM   17  C   UNL     1     -12.858  13.879  71.655  1.00  0.00    -0.432 A  
ENDBRANCH   7   8
BRANCH   7  18
HETATM   18  N   UNL     1      -9.873  11.998  68.756  1.00  0.00    -0.401 NA 
HETATM   19  H   UNL     1      -8.967  12.410  68.980  1.00  0.00     0.000 HD 
BRANCH  18  20
HETATM   20  O   UNL     1     -10.103  10.625  68.609  1.00  0.00    -0.168 OA 
BRANCH  20  21
HETATM   21  C   UNL     1      -9.674   9.921  69.774  1.00  0.00    -0.236 C  
BRANCH  21  22
HETATM   22  C   UNL     1     -10.897   9.806  70.691  1.00  0.00    -0.329 C  
HETATM   23  H2  UNL     1      -9.931   8.893  72.256  1.00  0.00     0.000 HD 
HETATM   24  H1  UNL     1     -11.594   8.688  72.317  1.00  0.00     0.000 HD 
HETATM   25  N   UNL     1     -10.780   8.764  71.707  1.00  0.00    -0.317 NA 
ENDBRANCH  21  22
ENDBRANCH  20  21
ENDBRANCH  18  20
ENDBRANCH   7  18
ENDBRANCH   6   7
ENDBRANCH   5   6
ENDBRANCH   4   5
ENDBRANCH   3   4
ENDBRANCH   2   3
TORSDOF 10
ENDMDL
MODEL       24
REMARK 921   NORMALIZED FREE ENERGY PREDICTED BY IDOCK:   -5.40 KCAL/MOL
REMARK 922        TOTAL FREE ENERGY PREDICTED BY IDOCK:   -9.66 KCAL/MOL
REMARK 923 INTER-LIGAND FREE ENERGY PREDICTED BY IDOCK:   -8.44 KCAL/MOL
REMARK 924 INTRA-LIGAND FREE ENERGY PREDICTED BY IDOCK:   -1.22 KCAL/MOL
REMARK 927      BINDING AFFINITY PREDICTED BY RF-SCORE:    0.00 PKD
ROOT
HETATM    1  C   UNL     1     -13.464  14.104  72.037  1.00  0.00    -0.431 C  
HETATM    2  O   UNL     1     -13.415  15.054  70.977  1.00  0.00    -0.409 OA 
ENDROOT
BRANCH   2   3
HETATM    3  C   UNL     1     -12.145  15.023  70.333  1.00  0.00    -0.333 C  
BRANCH   3   4
HETATM    4  C   UNL     1     -11.957  13.688  69.620  1.00  0.00    -0.402 C  
BRANCH   4   5
HETATM    5  C   UNL     1     -11.992  13.901  68.106  1.00  0.00    -0.385 C  
BRANCH   5   6
HETATM    6  C   UNL     1     -10.817  13.232  67.391  1.00  0.00    -0.279 C  
BRANCH   6   7
HETATM    7  C   UNL     1     -10.140  14.182  66.384  1.00  0.00    -0.293 C  
BRANCH   7   8
HETATM    8  C   UNL     1      -9.814  15.599  66.791  1.00  0.00    -0.255 A  
HETATM    9  C   UNL     1     -10.438  16.660  66.115  1.00  0.00    -0.291 A  
HETATM   10  C   UNL     1      -8.958  15.911  67.857  1.00  0.00    -0.181 A  
HETATM   11  F   UNL     1      -8.499  19.830  69.210  1.00  0.00    -0.336 F  
HETATM   12  F   UNL     1      -8.737  20.527  67.164  1.00  0.00    -0.388 F  
HETATM   13  C   UNL     1      -8.781  17.236  68.272  1.00  0.00    -0.251 A  
HETATM   14  F   UNL     1     -10.481  20.277  68.440  1.00  0.00    -0.522 F  
HETATM   15  C   UNL     1      -9.437  18.289  67.625  1.00  0.00    -0.275 A  
HETATM   16  C   UNL     1      -9.288  19.711  68.105  1.00  0.00    -0.352 C  
HETATM   17  C   UNL     1     -10.256  17.987  66.527  1.00  0.00    -0.383 A  
ENDBRANCH   7   8
BRANCH   7  18
HETATM   18  N   UNL     1      -9.878  13.815  65.157  1.00  0.00    -0.587 NA 
HETATM   19  H   UNL     1      -9.491  14.432  64.442  1.00  0.00     0.000 HD 
BRANCH  18  20
HETATM   20  O   UNL     1     -10.196  12.468  64.952  1.00  0.00    -0.288 OA 
BRANCH  20  21
HETATM   21  C   UNL     1     -10.593  12.250  63.599  1.00  0.00    -0.462 C  
BRANCH  21  22
HETATM   22  C   UNL     1     -12.123  12.335  63.573  1.00  0.00    -0.553 C  
HETATM   23  H2  UNL     1     -12.237  14.233  62.793  1.00  0.00     0.000 HD 
HETATM   24  H1  UNL     1     -13.657  13.759  63.547  1.00  0.00     0.000 HD 
HETATM   25  N   UNL     1     -12.639  13.702  63.565  1.00  0.00    -0.784 NA 
ENDBRANCH  21  22
ENDBRANCH  20  21
ENDBRANCH  18  20
ENDBRANCH   7  18
ENDBRANCH   6   7
ENDBRANCH   5   6
ENDBRANCH   4   5
ENDBRANCH   3   4
ENDBRANCH   2   3
TORSDOF 10
ENDMDL
MODEL       25
REMARK 921   NORMALIZED FREE ENERGY PREDICTED BY IDOCK:   -5.31 KCAL/MOL
REMARK 922        TOTAL FREE ENERGY PREDICTED BY IDOCK:   -9.51 KCAL/MOL
REMARK 923 INTER-LIGAND FREE ENERGY PREDICTED BY IDOCK:   -8.50 KCAL/MOL
REMARK 924 INTRA-LIGAND FREE ENERGY PREDICTED BY IDOCK:   -1.02 KCAL/MOL
REMARK 927      BINDING AFFINITY PREDICTED BY RF-SCORE:    0.00 PKD
ROOT
HETATM    1  C   UNL     1      -7.663  10.750  66.215  1.00  0.00    -0.146 C  
HETATM    2  O   UNL     1      -8.848   9.961  66.188  1.00  0.00    -0.139 OA 
ENDROOT
BRANCH   2   3
HETATM    3  C   UNL     1      -9.364   9.785  67.504  1.00  0.00    -0.133 C  
BRANCH   3   4
HETATM    4  C   UNL     1     -10.867  10.047  67.511  1.00  0.00    -0.326 C  
BRANCH   4   5
HETATM    5  C   UNL     1     -11.146  11.471  67.031  1.00  0.00    -0.365 C  
BRANCH   5   6
HETATM    6  C   UNL     1     -10.625  12.532  68.003  1.00  0.00    -0.237 C  
BRANCH   6   7
HETATM    7  C   UNL     1     -11.550  13.762  68.061  1.00  0.00    -0.333 C  
BRANCH   7   8
HETATM    8  C   UNL     1     -11.872  14.398  69.393  1.00  0.00    -0.369 A  
HETATM    9  C   UNL     1     -12.731  13.723  70.276  1.00  0.00    -0.208 A  
HETATM   10  C   UNL     1     -11.305  15.606  69.820  1.00  0.00    -0.327 A  
HETATM   11  F   UNL     1     -11.878  17.031  73.699  1.00  0.00    -0.493 F  
HETATM   12  F   UNL     1     -13.880  16.185  73.677  1.00  0.00    -0.514 F  
HETATM   13  C   UNL     1     -11.542  16.093  71.112  1.00  0.00    -0.453 A  
HETATM   14  F   UNL     1     -12.198  14.983  74.353  1.00  0.00    -0.686 F  
HETATM   15  C   UNL     1     -12.364  15.399  72.006  1.00  0.00    -0.450 A  
HETATM   16  C   UNL     1     -12.576  15.896  73.415  1.00  0.00    -0.550 C  
HETATM   17  C   UNL     1     -12.972  14.214  71.566  1.00  0.00    -0.417 A  
ENDBRANCH   7   8
BRANCH   7  18
HETATM   18  N   UNL     1     -12.113  14.256  66.989  1.00  0.00    -0.521 NA 
HETATM   19  H   UNL     1     -13.042  13.997  66.655  1.00  0.00     0.000 HD 
BRANCH  18  20
HETATM   20  O   UNL     1     -11.276  15.184  66.360  1.00  0.00    -0.339 OA 
BRANCH  20  21
HETATM   21  C   UNL     1     -10.921  14.731  65.055  1.00  0.00    -0.414 C  
BRANCH  21  22
HETATM   22  C   UNL     1     -12.235  14.531  64.289  1.00  0.00    -0.415 C  
HETATM   23  H2  UNL     1     -12.615  12.631  64.970  1.00  0.00     0.000 HD 
HETATM   24  H1  UNL     1     -13.466  12.998  63.573  1.00  0.00     0.000 HD 
HETATM   25  N   UNL     1     -12.592  13.131  64.082  1.00  0.00    -0.658 NA 
ENDBRANCH  21  22
ENDBRANCH  20  21
ENDBRANCH  18  20
ENDBRANCH   7  18
ENDBRANCH   6   7
ENDBRANCH   5   6
ENDBRANCH   4   5
ENDBRANCH   3   4
ENDBRANCH   2   3
TORSDOF 10
ENDMDL
MODEL       26
REMARK 921   NORMALIZED FREE ENERGY PREDICTED BY IDOCK:   -5.29 KCAL/MOL
REMARK 922        TOTAL FREE ENERGY PREDICTED BY IDOCK:   -9.49 KCAL/MOL
REMARK 923 INTER-LIGAND FREE ENERGY PREDICTED BY IDOCK:   -8.61 KCAL/MOL
REMARK 924 INTRA-LIGAND FREE ENERGY PREDICTED BY IDOCK:   -0.88 KCAL/MOL
REMARK 927      BINDING AFFINITY PREDICTED BY RF-SCORE:    0.00 PKD
ROOT
HETATM    1  C   UNL     1     -12.748  11.853  63.422  1.00  0.00    -0.366 C  
HETATM    2  O   UNL     1     -12.423  13.238  63.364  1.00  0.00    -0.741 OA 
ENDROOT
BRANCH   2   3
HETATM    3  C   UNL     1     -11.380  13.548  64.284  1.00  0.00    -0.375 C  
BRANCH   3   4
HETATM    4  C   UNL     1     -11.762  14.774  65.108  1.00  0.00    -0.337 C  
BRANCH   4   5
HETATM    5  C   UNL     1     -10.531  15.655  65.324  1.00  0.00    -0.439 C  
BRANCH   5   6
HETATM    6  C   UNL     1      -9.845  15.387  66.665  1.00  0.00    -0.269 C  
BRANCH   6   7
HETATM    7  C   UNL     1     -10.778  15.672  67.857  1.00  0.00    -0.294 C  
BRANCH   7   8
HETATM    8  C   UNL     1     -11.354  14.523  68.650  1.00  0.00    -0.300 A  
HETATM    9  C   UNL     1     -11.134  13.210  68.200  1.00  0.00    -0.284 A  
HETATM   10  C   UNL     1     -12.052  14.697  69.853  1.00  0.00    -0.385 A  
HETATM   11  F   UNL     1     -13.181  11.446  72.211  1.00  0.00    -0.603 F  
HETATM   12  F   UNL     1     -13.491  10.285  70.400  1.00  0.00    -0.368 F  
HETATM   13  C   UNL     1     -12.463  13.595  70.612  1.00  0.00    -0.417 A  
HETATM   14  F   UNL     1     -11.536  10.315  71.354  1.00  0.00    -0.413 F  
HETATM   15  C   UNL     1     -12.205  12.288  70.184  1.00  0.00    -0.302 A  
HETATM   16  C   UNL     1     -12.600  11.101  71.028  1.00  0.00    -0.403 C  
HETATM   17  C   UNL     1     -11.550  12.107  68.957  1.00  0.00    -0.374 A  
ENDBRANCH   7   8
BRANCH   7  18
HETATM   18  N   UNL     1     -11.133  16.887  68.183  1.00  0.00    -0.293 NA 
HETATM   19  H   UNL     1     -12.011  17.127  68.644  1.00  0.00     0.000 HD 
BRANCH  18  20
HETATM   20  O   UNL     1     -10.152  17.815  67.817  1.00  0.00    -0.312 OA 
BRANCH  20  21
HETATM   21  C   UNL     1     -10.753  19.051  67.435  1.00  0.00    -0.473 C  
BRANCH  21  22
HETATM   22  C   UNL     1     -10.214  19.388  66.040  1.00  0.00    -0.457 C  
HETATM   23  H2  UNL     1      -8.630  18.081  66.081  1.00  0.00     0.000 HD 
HETATM   24  H1  UNL     1      -8.444  19.284  64.928  1.00  0.00     0.000 HD 
HETATM   25  N   UNL     1      -8.803  19.060  65.856  1.00  0.00    -0.410 NA 
ENDBRANCH  21  22
ENDBRANCH  20  21
ENDBRANCH  18  20
ENDBRANCH   7  18
ENDBRANCH   6   7
ENDBRANCH   5   6
ENDBRANCH   4   5
ENDBRANCH   3   4
ENDBRANCH   2   3
TORSDOF 10
ENDMDL
MODEL       27
REMARK 921   NORMALIZED FREE ENERGY PREDICTED BY IDOCK:   -5.29 KCAL/MOL
REMARK 922        TOTAL FREE ENERGY PREDICTED BY IDOCK:   -9.48 KCAL/MOL
REMARK 923 INTER-LIGAND FREE ENERGY PREDICTED BY IDOCK:   -8.69 KCAL/MOL
REMARK 924 INTRA-LIGAND FREE ENERGY PREDICTED BY IDOCK:   -0.79 KCAL/MOL
REMARK 927      BINDING AFFINITY PREDICTED BY RF-SCORE:    0.00 PKD
ROOT
HETATM    1  C   UNL     1     -12.477  15.506  73.914  1.00  0.00    -0.636 C  
HETATM    2  O   UNL     1     -12.285  16.132  72.650  1.00  0.00    -0.473 OA 
ENDROOT
BRANCH   2   3
HETATM    3  C   UNL     1     -11.749  15.207  71.708  1.00  0.00    -0.413 C  
BRANCH   3   4
HETATM    4  C   UNL     1     -10.961  15.954  70.637  1.00  0.00    -0.312 C  
BRANCH   4   5
HETATM    5  C   UNL     1     -10.867  15.099  69.373  1.00  0.00    -0.265 C  
BRANCH   5   6
HETATM    6  C   UNL     1     -12.157  14.328  69.088  1.00  0.00    -0.337 C  
BRANCH   6   7
HETATM    7  C   UNL     1     -11.877  12.951  68.458  1.00  0.00    -0.313 C  
BRANCH   7   8
HETATM    8  C   UNL     1     -11.656  11.750  69.346  1.00  0.00    -0.386 A  
HETATM    9  C   UNL     1     -12.317  11.690  70.584  1.00  0.00    -0.437 A  
HETATM   10  C   UNL     1     -10.865  10.655  68.970  1.00  0.00    -0.277 A  
HETATM   11  F   UNL     1     -10.705   7.184  71.279  1.00  0.00    -0.228 F  
HETATM   12  F   UNL     1     -10.902   8.406  73.066  1.00  0.00    -0.385 F  
HETATM   13  C   UNL     1     -10.787   9.513  69.777  1.00  0.00    -0.264 A  
HETATM   14  F   UNL     1     -12.678   7.664  72.051  1.00  0.00    -0.307 F  
HETATM   15  C   UNL     1     -11.480   9.439  70.990  1.00  0.00    -0.403 A  
HETATM   16  C   UNL     1     -11.439   8.188  71.834  1.00  0.00    -0.299 C  
HETATM   17  C   UNL     1     -12.234  10.550  71.395  1.00  0.00    -0.429 A  
ENDBRANCH   7   8
BRANCH   7  18
HETATM   18  N   UNL     1     -11.776  12.790  67.164  1.00  0.00    -0.369 NA 
HETATM   19  H   UNL     1     -11.444  11.937  66.714  1.00  0.00     0.000 HD 
BRANCH  18  20
HETATM   20  O   UNL     1     -12.182  13.941  66.479  1.00  0.00    -0.441 OA 
BRANCH  20  21
HETATM   21  C   UNL     1     -11.426  14.097  65.279  1.00  0.00    -0.330 C  
BRANCH  21  22
HETATM   22  C   UNL     1     -11.025  15.575  65.205  1.00  0.00    -0.380 C  
HETATM   23  H2  UNL     1     -12.555  16.172  63.971  1.00  0.00     0.000 HD 
HETATM   24  H1  UNL     1     -11.275  17.254  63.981  1.00  0.00     0.000 HD 
HETATM   25  N   UNL     1     -11.542  16.271  64.030  1.00  0.00    -1.007 NA 
ENDBRANCH  21  22
ENDBRANCH  20  21
ENDBRANCH  18  20
ENDBRANCH   7  18
ENDBRANCH   6   7
ENDBRANCH   5   6
ENDBRANCH   4   5
ENDBRANCH   3   4
ENDBRANCH   2   3
TORSDOF 10
ENDMDL
MODEL       28
REMARK 921   NORMALIZED FREE ENERGY PREDICTED BY IDOCK:   -5.28 KCAL/MOL
REMARK 922        TOTAL FREE ENERGY PREDICTED BY IDOCK:   -9.48 KCAL/MOL
REMARK 923 INTER-LIGAND FREE ENERGY PREDICTED BY IDOCK:   -8.73 KCAL/MOL
REMARK 924 INTRA-LIGAND FREE ENERGY PREDICTED BY IDOCK:   -0.75 KCAL/MOL
REMARK 927      BINDING AFFINITY PREDICTED BY RF-SCORE:    0.00 PKD
ROOT
HETATM    1  C   UNL     1      -9.873  19.983  67.153  1.00  0.00    -0.426 C  
HETATM    2  O   UNL     1     -11.066  19.252  67.414  1.00  0.00    -0.444 OA 
ENDROOT
BRANCH   2   3
HETATM    3  C   UNL     1     -10.784  17.862  67.553  1.00  0.00    -0.321 C  
BRANCH   3   4
HETATM    4  C   UNL     1     -10.177  17.590  68.926  1.00  0.00    -0.353 C  
BRANCH   4   5
HETATM    5  C   UNL     1     -10.955  16.474  69.623  1.00  0.00    -0.287 C  
BRANCH   5   6
HETATM    6  C   UNL     1     -10.433  15.081  69.264  1.00  0.00    -0.252 C  
BRANCH   6   7
HETATM    7  C   UNL     1     -11.567  14.139  68.817  1.00  0.00    -0.327 C  
BRANCH   7   8
HETATM    8  C   UNL     1     -11.837  12.871  69.591  1.00  0.00    -0.387 A  
HETATM    9  C   UNL     1     -12.610  12.942  70.762  1.00  0.00    -0.314 A  
HETATM   10  C   UNL     1     -11.404  11.607  69.166  1.00  0.00    -0.345 A  
HETATM   11  F   UNL     1     -12.610   8.119  71.110  1.00  0.00    -0.309 F  
HETATM   12  F   UNL     1     -12.594   9.205  72.993  1.00  0.00    -0.289 F  
HETATM   13  C   UNL     1     -11.782  10.448  69.854  1.00  0.00    -0.341 A  
HETATM   14  F   UNL     1     -14.395   9.164  71.775  1.00  0.00    -0.369 F  
HETATM   15  C   UNL     1     -12.587  10.518  70.997  1.00  0.00    -0.499 A  
HETATM   16  C   UNL     1     -13.039   9.266  71.708  1.00  0.00    -0.400 C  
HETATM   17  C   UNL     1     -12.983  11.783  71.455  1.00  0.00    -0.446 A  
ENDBRANCH   7   8
BRANCH   7  18
HETATM   18  N   UNL     1     -12.283  14.376  67.750  1.00  0.00    -0.624 NA 
HETATM   19  H   UNL     1     -13.242  14.724  67.765  1.00  0.00     0.000 HD 
BRANCH  18  20
HETATM   20  O   UNL     1     -11.563  14.090  66.584  1.00  0.00    -0.347 OA 
BRANCH  20  21
HETATM   21  C   UNL     1     -12.337  13.271  65.709  1.00  0.00    -0.447 C  
BRANCH  21  22
HETATM   22  C   UNL     1     -11.986  13.702  64.281  1.00  0.00    -0.445 C  
HETATM   23  H2  UNL     1     -12.458  15.688  64.514  1.00  0.00     0.000 HD 
HETATM   24  H1  UNL     1     -12.412  15.220  62.904  1.00  0.00     0.000 HD 
HETATM   25  N   UNL     1     -12.646  14.933  63.854  1.00  0.00    -0.760 NA 
ENDBRANCH  21  22
ENDBRANCH  20  21
ENDBRANCH  18  20
ENDBRANCH   7  18
ENDBRANCH   6   7
ENDBRANCH   5   6
ENDBRANCH   4   5
ENDBRANCH   3   4
ENDBRANCH   2   3
TORSDOF 10
ENDMDL
MODEL       29
REMARK 921   NORMALIZED FREE ENERGY PREDICTED BY IDOCK:   -5.26 KCAL/MOL
REMARK 922        TOTAL FREE ENERGY PREDICTED BY IDOCK:   -9.44 KCAL/MOL
REMARK 923 INTER-LIGAND FREE ENERGY PREDICTED BY IDOCK:   -8.16 KCAL/MOL
REMARK 924 INTRA-LIGAND FREE ENERGY PREDICTED BY IDOCK:   -1.27 KCAL/MOL
REMARK 927      BINDING AFFINITY PREDICTED BY RF-SCORE:    0.00 PKD
ROOT
HETATM    1  C   UNL     1     -10.345  19.036  66.255  1.00  0.00    -0.459 C  
HETATM    2  O   UNL     1     -10.532  17.634  66.423  1.00  0.00    -0.341 OA 
ENDROOT
BRANCH   2   3
HETATM    3  C   UNL     1     -10.602  17.300  67.807  1.00  0.00    -0.367 C  
BRANCH   3   4
HETATM    4  C   UNL     1      -9.318  16.598  68.237  1.00  0.00    -0.224 C  
BRANCH   4   5
HETATM    5  C   UNL     1      -8.698  15.876  67.040  1.00  0.00    -0.248 C  
BRANCH   5   6
HETATM    6  C   UNL     1      -8.627  14.361  67.240  1.00  0.00    -0.230 C  
BRANCH   6   7
HETATM    7  C   UNL     1      -9.962  13.672  66.901  1.00  0.00    -0.260 C  
BRANCH   7   8
HETATM    8  C   UNL     1     -10.742  12.971  67.987  1.00  0.00    -0.248 A  
HETATM    9  C   UNL     1     -10.825  11.568  67.966  1.00  0.00    -0.259 A  
HETATM   10  C   UNL     1     -11.342  13.648  69.057  1.00  0.00    -0.333 A  
HETATM   11  F   UNL     1     -13.057  11.591  72.256  1.00  0.00    -0.587 F  
HETATM   12  F   UNL     1     -13.673  10.029  70.875  1.00  0.00    -0.409 F  
HETATM   13  C   UNL     1     -11.952  12.944  70.103  1.00  0.00    -0.373 A  
HETATM   14  F   UNL     1     -11.725   9.926  71.836  1.00  0.00    -0.439 F  
HETATM   15  C   UNL     1     -11.997  11.546  70.101  1.00  0.00    -0.452 A  
HETATM   16  C   UNL     1     -12.606  10.785  71.253  1.00  0.00    -0.426 C  
HETATM   17  C   UNL     1     -11.441  10.864  69.008  1.00  0.00    -0.371 A  
ENDBRANCH   7   8
BRANCH   7  18
HETATM   18  N   UNL     1     -10.428  13.631  65.680  1.00  0.00    -0.291 NA 
HETATM   19  H   UNL     1      -9.990  13.120  64.913  1.00  0.00     0.000 HD 
BRANCH  18  20
HETATM   20  O   UNL     1     -11.606  14.378  65.564  1.00  0.00    -0.335 OA 
BRANCH  20  21
HETATM   21  C   UNL     1     -11.880  14.664  64.193  1.00  0.00    -0.241 C  
BRANCH  21  22
HETATM   22  C   UNL     1     -12.122  13.316  63.504  1.00  0.00    -0.482 C  
HETATM   23  H2  UNL     1     -13.953  12.943  64.358  1.00  0.00     0.000 HD 
HETATM   24  H1  UNL     1     -13.232  11.558  63.747  1.00  0.00     0.000 HD 
HETATM   25  N   UNL     1     -13.071  12.455  64.205  1.00  0.00    -0.787 NA 
ENDBRANCH  21  22
ENDBRANCH  20  21
ENDBRANCH  18  20
ENDBRANCH   7  18
ENDBRANCH   6   7
ENDBRANCH   5   6
ENDBRANCH   4   5
ENDBRANCH   3   4
ENDBRANCH   2   3
TORSDOF 10
ENDMDL
MODEL       30
REMARK 921   NORMALIZED FREE ENERGY PREDICTED BY IDOCK:   -5.25 KCAL/MOL
REMARK 922        TOTAL FREE ENERGY PREDICTED BY IDOCK:   -9.43 KCAL/MOL
REMARK 923 INTER-LIGAND FREE ENERGY PREDICTED BY IDOCK:   -8.44 KCAL/MOL
REMARK 924 INTRA-LIGAND FREE ENERGY PREDICTED BY IDOCK:   -0.99 KCAL/MOL
REMARK 927      BINDING AFFINITY PREDICTED BY RF-SCORE:    0.00 PKD
ROOT
HETATM    1  C   UNL     1     -12.187  14.965  64.386  1.00  0.00    -0.381 C  
HETATM    2  O   UNL     1     -12.664  13.624  64.439  1.00  0.00    -0.642 OA 
ENDROOT
BRANCH   2   3
HETATM    3  C   UNL     1     -12.388  13.043  65.710  1.00  0.00    -0.416 C  
BRANCH   3   4
HETATM    4  C   UNL     1     -12.155  14.140  66.744  1.00  0.00    -0.474 C  
BRANCH   4   5
HETATM    5  C   UNL     1     -11.828  13.513  68.099  1.00  0.00    -0.400 C  
BRANCH   5   6
HETATM    6  C   UNL     1     -10.411  13.842  68.573  1.00  0.00    -0.253 C  
BRANCH   6   7
HETATM    7  C   UNL     1     -10.366  15.149  69.386  1.00  0.00    -0.255 C  
BRANCH   7   8
HETATM    8  C   UNL     1      -9.877  16.421  68.736  1.00  0.00    -0.250 A  
HETATM    9  C   UNL     1     -10.700  17.064  67.796  1.00  0.00    -0.318 A  
HETATM   10  C   UNL     1      -8.659  17.031  69.067  1.00  0.00    -0.126 A  
HETATM   11  F   UNL     1      -7.622  20.786  67.573  1.00  0.00    -0.346 F  
HETATM   12  F   UNL     1      -8.649  20.294  65.722  1.00  0.00    -0.298 F  
HETATM   13  C   UNL     1      -8.305  18.272  68.524  1.00  0.00    -0.327 A  
HETATM   14  F   UNL     1      -9.737  21.231  67.357  1.00  0.00    -0.611 F  
HETATM   15  C   UNL     1      -9.147  18.931  67.621  1.00  0.00    -0.312 A  
HETATM   16  C   UNL     1      -8.791  20.292  67.076  1.00  0.00    -0.326 C  
HETATM   17  C   UNL     1     -10.344  18.302  67.248  1.00  0.00    -0.407 A  
ENDBRANCH   7   8
BRANCH   7  18
HETATM   18  N   UNL     1     -10.695  15.189  70.651  1.00  0.00    -0.532 NA 
HETATM   19  H   UNL     1     -10.376  14.519  71.351  1.00  0.00     0.000 HD 
BRANCH  18  20
HETATM   20  O   UNL     1     -11.542  16.271  70.919  1.00  0.00    -0.401 OA 
BRANCH  20  21
HETATM   21  C   UNL     1     -12.202  16.088  72.170  1.00  0.00    -0.516 C  
BRANCH  21  22
HETATM   22  C   UNL     1     -13.544  15.413  71.861  1.00  0.00    -0.491 C  
HETATM   23  H2  UNL     1     -12.970  13.508  72.374  1.00  0.00     0.000 HD 
HETATM   24  H1  UNL     1     -14.332  13.530  71.396  1.00  0.00     0.000 HD 
HETATM   25  N   UNL     1     -13.440  13.980  71.601  1.00  0.00    -0.357 NA 
ENDBRANCH  21  22
ENDBRANCH  20  21
ENDBRANCH  18  20
ENDBRANCH   7  18
ENDBRANCH   6   7
ENDBRANCH   5   6
ENDBRANCH   4   5
ENDBRANCH   3   4
ENDBRANCH   2   3
TORSDOF 10
ENDMDL
MODEL       31
REMARK 921   NORMALIZED FREE ENERGY PREDICTED BY IDOCK:   -5.24 KCAL/MOL
REMARK 922        TOTAL FREE ENERGY PREDICTED BY IDOCK:   -9.41 KCAL/MOL
REMARK 923 INTER-LIGAND FREE ENERGY PREDICTED BY IDOCK:   -8.40 KCAL/MOL
REMARK 924 INTRA-LIGAND FREE ENERGY PREDICTED BY IDOCK:   -1.01 KCAL/MOL
REMARK 927      BINDING AFFINITY PREDICTED BY RF-SCORE:    0.00 PKD
ROOT
HETATM    1  C   UNL     1     -12.142  12.578  63.357  1.00  0.00    -0.529 C  
HETATM    2  O   UNL     1     -12.564  13.925  63.541  1.00  0.00    -0.842 OA 
ENDROOT
BRANCH   2   3
HETATM    3  C   UNL     1     -12.170  14.405  64.824  1.00  0.00    -0.446 C  
BRANCH   3   4
HETATM    4  C   UNL     1     -10.693  14.107  65.059  1.00  0.00    -0.429 C  
BRANCH   4   5
HETATM    5  C   UNL     1     -10.497  13.539  66.465  1.00  0.00    -0.284 C  
BRANCH   5   6
HETATM    6  C   UNL     1     -11.759  13.648  67.323  1.00  0.00    -0.416 C  
BRANCH   6   7
HETATM    7  C   UNL     1     -11.438  13.585  68.829  1.00  0.00    -0.311 C  
BRANCH   7   8
HETATM    8  C   UNL     1     -11.753  12.332  69.612  1.00  0.00    -0.386 A  
HETATM    9  C   UNL     1     -11.059  11.149  69.307  1.00  0.00    -0.318 A  
HETATM   10  C   UNL     1     -12.666  12.304  70.674  1.00  0.00    -0.139 A  
HETATM   11  F   UNL     1     -13.109   8.924  73.080  1.00  0.00    -0.442 F  
HETATM   12  F   UNL     1     -12.723   7.679  71.340  1.00  0.00    -0.327 F  
HETATM   13  C   UNL     1     -12.835  11.148  71.446  1.00  0.00    -0.544 A  
HETATM   14  F   UNL     1     -11.071   8.361  72.581  1.00  0.00    -0.401 F  
HETATM   15  C   UNL     1     -12.112   9.983  71.168  1.00  0.00    -0.475 A  
HETATM   16  C   UNL     1     -12.255   8.754  72.032  1.00  0.00    -0.377 C  
HETATM   17  C   UNL     1     -11.233   9.990  70.075  1.00  0.00    -0.345 A  
ENDBRANCH   7   8
BRANCH   7  18
HETATM   18  N   UNL     1     -10.938  14.607  69.473  1.00  0.00    -0.276 NA 
HETATM   19  H   UNL     1     -10.191  14.543  70.164  1.00  0.00     0.000 HD 
BRANCH  18  20
HETATM   20  O   UNL     1     -11.563  15.799  69.090  1.00  0.00    -0.351 OA 
BRANCH  20  21
HETATM   21  C   UNL     1     -10.756  16.921  69.446  1.00  0.00    -0.258 C  
BRANCH  21  22
HETATM   22  C   UNL     1      -9.575  16.937  68.469  1.00  0.00    -0.262 C  
HETATM   23  H2  UNL     1      -8.573  15.341  69.287  1.00  0.00     0.000 HD 
HETATM   24  H1  UNL     1      -7.584  16.305  68.336  1.00  0.00     0.000 HD 
HETATM   25  N   UNL     1      -8.370  16.294  68.986  1.00  0.00    -0.242 NA 
ENDBRANCH  21  22
ENDBRANCH  20  21
ENDBRANCH  18  20
ENDBRANCH   7  18
ENDBRANCH   6   7
ENDBRANCH   5   6
ENDBRANCH   4   5
ENDBRANCH   3   4
ENDBRANCH   2   3
TORSDOF 10
ENDMDL
MODEL       32
REMARK 921   NORMALIZED FREE ENERGY PREDICTED BY IDOCK:   -5.24 KCAL/MOL
REMARK 922        TOTAL FREE ENERGY PREDICTED BY IDOCK:   -9.40 KCAL/MOL
REMARK 923 INTER-LIGAND FREE ENERGY PREDICTED BY IDOCK:   -8.73 KCAL/MOL
REMARK 924 INTRA-LIGAND FREE ENERGY PREDICTED BY IDOCK:   -0.67 KCAL/MOL
REMARK 927      BINDING AFFINITY PREDICTED BY RF-SCORE:    0.00 PKD
ROOT
HETATM    1  C   UNL     1      -9.381  11.126  62.734  1.00  0.00    -0.351 C  
HETATM    2  O   UNL     1      -9.901  11.871  63.830  1.00  0.00    -0.292 OA 
ENDROOT
BRANCH   2   3
HETATM    3  C   UNL     1     -11.114  12.524  63.464  1.00  0.00    -0.439 C  
BRANCH   3   4
HETATM    4  C   UNL     1     -12.237  12.099  64.405  1.00  0.00    -0.435 C  
BRANCH   4   5
HETATM    5  C   UNL     1     -12.270  13.024  65.621  1.00  0.00    -0.521 C  
BRANCH   5   6
HETATM    6  C   UNL     1     -11.391  12.519  66.767  1.00  0.00    -0.390 C  
BRANCH   6   7
HETATM    7  C   UNL     1     -10.668  13.671  67.489  1.00  0.00    -0.259 C  
BRANCH   7   8
HETATM    8  C   UNL     1     -11.245  14.237  68.765  1.00  0.00    -0.286 A  
HETATM    9  C   UNL     1     -12.177  13.473  69.486  1.00  0.00    -0.289 A  
HETATM   10  C   UNL     1     -10.851  15.471  69.302  1.00  0.00    -0.252 A  
HETATM   11  F   UNL     1     -12.140  16.722  73.067  1.00  0.00    -0.539 F  
HETATM   12  F   UNL     1     -14.041  15.731  72.707  1.00  0.00    -0.619 F  
HETATM   13  C   UNL     1     -11.326  15.897  70.548  1.00  0.00    -0.409 A  
HETATM   14  F   UNL     1     -12.396  14.637  73.620  1.00  0.00    -0.497 F  
HETATM   15  C   UNL     1     -12.222  15.114  71.285  1.00  0.00    -0.395 A  
HETATM   16  C   UNL     1     -12.692  15.548  72.652  1.00  0.00    -0.411 C  
HETATM   17  C   UNL     1     -12.658  13.902  70.730  1.00  0.00    -0.424 A  
ENDBRANCH   7   8
BRANCH   7  18
HETATM   18  N   UNL     1      -9.583  14.217  67.007  1.00  0.00    -0.248 NA 
HETATM   19  H   UNL     1      -8.660  14.141  67.434  1.00  0.00     0.000 HD 
BRANCH  18  20
HETATM   20  O   UNL     1      -9.853  14.921  65.827  1.00  0.00    -0.315 OA 
BRANCH  20  21
HETATM   21  C   UNL     1      -9.412  16.273  65.942  1.00  0.00    -0.283 C  
BRANCH  21  22
HETATM   22  C   UNL     1     -10.551  17.151  65.409  1.00  0.00    -0.104 C  
HETATM   23  H2  UNL     1     -11.729  15.613  64.724  1.00  0.00     0.000 HD 
HETATM   24  H1  UNL     1     -12.125  17.087  64.030  1.00  0.00     0.000 HD 
HETATM   25  N   UNL     1     -11.367  16.504  64.385  1.00  0.00    -0.976 NA 
ENDBRANCH  21  22
ENDBRANCH  20  21
ENDBRANCH  18  20
ENDBRANCH   7  18
ENDBRANCH   6   7
ENDBRANCH   5   6
ENDBRANCH   4   5
ENDBRANCH   3   4
ENDBRANCH   2   3
TORSDOF 10
ENDMDL
MODEL       33
REMARK 921   NORMALIZED FREE ENERGY PREDICTED BY IDOCK:   -5.23 KCAL/MOL
REMARK 922        TOTAL FREE ENERGY PREDICTED BY IDOCK:   -9.40 KCAL/MOL
REMARK 923 INTER-LIGAND FREE ENERGY PREDICTED BY IDOCK:   -8.29 KCAL/MOL
REMARK 924 INTRA-LIGAND FREE ENERGY PREDICTED BY IDOCK:   -1.10 KCAL/MOL
REMARK 927      BINDING AFFINITY PREDICTED BY RF-SCORE:    0.00 PKD
ROOT
HETATM    1  C   UNL     1      -9.343  10.287  63.393  1.00  0.00    -0.303 C  
HETATM    2  O   UNL     1     -10.366  10.967  64.112  1.00  0.00    -0.347 OA 
ENDROOT
BRANCH   2   3
HETATM    3  C   UNL     1     -10.652  12.226  63.511  1.00  0.00    -0.448 C  
BRANCH   3   4
HETATM    4  C   UNL     1     -11.928  12.810  64.108  1.00  0.00    -0.499 C  
BRANCH   4   5
HETATM    5  C   UNL     1     -11.577  13.940  65.075  1.00  0.00    -0.350 C  
BRANCH   5   6
HETATM    6  C   UNL     1     -12.435  13.919  66.341  1.00  0.00    -0.414 C  
BRANCH   6   7
HETATM    7  C   UNL     1     -11.715  13.227  67.514  1.00  0.00    -0.366 C  
BRANCH   7   8
HETATM    8  C   UNL     1     -11.886  13.756  68.918  1.00  0.00    -0.396 A  
HETATM    9  C   UNL     1     -11.892  15.146  69.123  1.00  0.00    -0.340 A  
HETATM   10  C   UNL     1     -12.102  12.927  70.027  1.00  0.00    -0.357 A  
HETATM   11  F   UNL     1     -13.044  14.498  73.775  1.00  0.00    -0.497 F  
HETATM   12  F   UNL     1     -11.763  16.201  73.344  1.00  0.00    -0.489 F  
HETATM   13  C   UNL     1     -12.374  13.470  71.288  1.00  0.00    -0.325 A  
HETATM   14  F   UNL     1     -13.864  16.248  72.782  1.00  0.00    -0.537 F  
HETATM   15  C   UNL     1     -12.422  14.855  71.483  1.00  0.00    -0.397 A  
HETATM   16  C   UNL     1     -12.768  15.440  72.830  1.00  0.00    -0.410 C  
HETATM   17  C   UNL     1     -12.158  15.690  70.386  1.00  0.00    -0.425 A  
ENDBRANCH   7   8
BRANCH   7  18
HETATM   18  N   UNL     1     -10.911  12.212  67.330  1.00  0.00    -0.247 NA 
HETATM   19  H   UNL     1      -9.897  12.287  67.252  1.00  0.00     0.000 HD 
BRANCH  18  20
HETATM   20  O   UNL     1     -11.624  11.010  67.253  1.00  0.00    -0.496 OA 
BRANCH  20  21
HETATM   21  C   UNL     1     -10.752   9.900  67.457  1.00  0.00    -0.272 C  
BRANCH  21  22
HETATM   22  C   UNL     1     -10.508   9.807  68.967  1.00  0.00    -0.213 C  
HETATM   23  H2  UNL     1      -9.350  11.498  69.121  1.00  0.00     0.000 HD 
HETATM   24  H1  UNL     1      -9.155  10.462  70.425  1.00  0.00     0.000 HD 
HETATM   25  N   UNL     1      -9.318  10.523  69.420  1.00  0.00    -0.163 NA 
ENDBRANCH  21  22
ENDBRANCH  20  21
ENDBRANCH  18  20
ENDBRANCH   7  18
ENDBRANCH   6   7
ENDBRANCH   5   6
ENDBRANCH   4   5
ENDBRANCH   3   4
ENDBRANCH   2   3
TORSDOF 10
ENDMDL
MODEL       34
REMARK 921   NORMALIZED FREE ENERGY PREDICTED BY IDOCK:   -5.18 KCAL/MOL
REMARK 922        TOTAL FREE ENERGY PREDICTED BY IDOCK:   -9.32 KCAL/MOL
REMARK 923 INTER-LIGAND FREE ENERGY PREDICTED BY IDOCK:   -8.25 KCAL/MOL
REMARK 924 INTRA-LIGAND FREE ENERGY PREDICTED BY IDOCK:   -1.07 KCAL/MOL
REMARK 927      BINDING AFFINITY PREDICTED BY RF-SCORE:    0.00 PKD
ROOT
HETATM    1  C   UNL     1     -11.981  12.559  63.276  1.00  0.00    -0.426 C  
HETATM    2  O   UNL     1     -12.981  12.555  64.289  1.00  0.00    -0.748 OA 
ENDROOT
BRANCH   2   3
HETATM    3  C   UNL     1     -12.550  13.298  65.425  1.00  0.00    -0.468 C  
BRANCH   3   4
HETATM    4  C   UNL     1     -11.031  13.220  65.550  1.00  0.00    -0.297 C  
BRANCH   4   5
HETATM    5  C   UNL     1     -10.652  12.754  66.956  1.00  0.00    -0.253 C  
BRANCH   5   6
HETATM    6  C   UNL     1     -11.860  12.271  67.761  1.00  0.00    -0.341 C  
BRANCH   6   7
HETATM    7  C   UNL     1     -11.576  12.261  69.275  1.00  0.00    -0.324 C  
BRANCH   7   8
HETATM    8  C   UNL     1     -11.515  10.948  70.019  1.00  0.00    -0.411 A  
HETATM    9  C   UNL     1     -12.410  10.726  71.079  1.00  0.00    -0.509 A  
HETATM   10  C   UNL     1     -10.643   9.909  69.665  1.00  0.00    -0.273 A  
HETATM   11  F   UNL     1     -10.883   6.154  71.468  1.00  0.00    -0.262 F  
HETATM   12  F   UNL     1     -11.459   7.122  73.327  1.00  0.00    -0.242 F  
HETATM   13  C   UNL     1     -10.707   8.667  70.309  1.00  0.00    -0.243 A  
HETATM   14  F   UNL     1     -12.980   6.541  71.884  1.00  0.00    -0.385 F  
HETATM   15  C   UNL     1     -11.629   8.434  71.336  1.00  0.00    -0.332 A  
HETATM   16  C   UNL     1     -11.734   7.080  71.994  1.00  0.00    -0.295 C  
HETATM   17  C   UNL     1     -12.469   9.486  71.728  1.00  0.00    -0.484 A  
ENDBRANCH   7   8
BRANCH   7  18
HETATM   18  N   UNL     1     -11.431  13.366  69.959  1.00  0.00    -0.510 NA 
HETATM   19  H   UNL     1     -10.559  13.661  70.399  1.00  0.00     0.000 HD 
BRANCH  18  20
HETATM   20  O   UNL     1     -12.628  14.090  70.009  1.00  0.00    -0.317 OA 
BRANCH  20  21
HETATM   21  C   UNL     1     -12.406  15.379  70.580  1.00  0.00    -0.403 C  
BRANCH  21  22
HETATM   22  C   UNL     1     -11.184  15.969  69.867  1.00  0.00    -0.361 C  
HETATM   23  H2  UNL     1     -12.163  16.525  68.149  1.00  0.00     0.000 HD 
HETATM   24  H1  UNL     1     -10.503  16.416  67.939  1.00  0.00     0.000 HD 
HETATM   25  N   UNL     1     -11.315  16.023  68.414  1.00  0.00    -0.365 NA 
ENDBRANCH  21  22
ENDBRANCH  20  21
ENDBRANCH  18  20
ENDBRANCH   7  18
ENDBRANCH   6   7
ENDBRANCH   5   6
ENDBRANCH   4   5
ENDBRANCH   3   4
ENDBRANCH   2   3
TORSDOF 10
ENDMDL
MODEL       35
REMARK 921   NORMALIZED FREE ENERGY PREDICTED BY IDOCK:   -5.18 KCAL/MOL
REMARK 922        TOTAL FREE ENERGY PREDICTED BY IDOCK:   -9.31 KCAL/MOL
REMARK 923 INTER-LIGAND FREE ENERGY PREDICTED BY IDOCK:   -8.60 KCAL/MOL
REMARK 924 INTRA-LIGAND FREE ENERGY PREDICTED BY IDOCK:   -0.71 KCAL/MOL
REMARK 927      BINDING AFFINITY PREDICTED BY RF-SCORE:    0.00 PKD
ROOT
HETATM    1  C   UNL     1     -10.573  18.472  66.209  1.00  0.00    -0.330 C  
HETATM    2  O   UNL     1     -10.679  18.817  67.586  1.00  0.00    -0.429 OA 
ENDROOT
BRANCH   2   3
HETATM    3  C   UNL     1     -10.301  17.718  68.411  1.00  0.00    -0.376 C  
BRANCH   3   4
HETATM    4  C   UNL     1     -10.688  16.406  67.736  1.00  0.00    -0.328 C  
BRANCH   4   5
HETATM    5  C   UNL     1     -11.566  15.581  68.678  1.00  0.00    -0.379 C  
BRANCH   5   6
HETATM    6  C   UNL     1     -10.798  14.441  69.349  1.00  0.00    -0.227 C  
BRANCH   6   7
HETATM    7  C   UNL     1     -11.104  13.079  68.697  1.00  0.00    -0.269 C  
BRANCH   7   8
HETATM    8  C   UNL     1     -11.596  11.933  69.547  1.00  0.00    -0.394 A  
HETATM    9  C   UNL     1     -10.948  10.690  69.453  1.00  0.00    -0.304 A  
HETATM   10  C   UNL     1     -12.637  12.062  70.477  1.00  0.00    -0.192 A  
HETATM   11  F   UNL     1     -13.601   8.978  73.116  1.00  0.00    -0.404 F  
HETATM   12  F   UNL     1     -13.079   7.541  71.571  1.00  0.00    -0.338 F  
HETATM   13  C   UNL     1     -12.977  11.003  71.327  1.00  0.00    -0.472 A  
HETATM   14  F   UNL     1     -11.557   8.261  72.948  1.00  0.00    -0.451 F  
HETATM   15  C   UNL     1     -12.302   9.779  71.261  1.00  0.00    -0.465 A  
HETATM   16  C   UNL     1     -12.633   8.656  72.213  1.00  0.00    -0.395 C  
HETATM   17  C   UNL     1     -11.293   9.628  70.299  1.00  0.00    -0.311 A  
ENDBRANCH   7   8
BRANCH   7  18
HETATM   18  N   UNL     1     -10.904  12.862  67.423  1.00  0.00    -0.247 NA 
HETATM   19  H   UNL     1     -10.015  13.009  66.946  1.00  0.00     0.000 HD 
BRANCH  18  20
HETATM   20  O   UNL     1     -12.070  12.402  66.800  1.00  0.00    -0.578 OA 
BRANCH  20  21
HETATM   21  C   UNL     1     -12.043  12.705  65.406  1.00  0.00    -0.462 C  
BRANCH  21  22
HETATM   22  C   UNL     1     -12.510  14.158  65.266  1.00  0.00    -0.461 C  
HETATM   23  H2  UNL     1     -13.003  14.054  63.274  1.00  0.00     0.000 HD 
HETATM   24  H1  UNL     1     -12.781  15.630  63.802  1.00  0.00     0.000 HD 
HETATM   25  N   UNL     1     -12.471  14.663  63.896  1.00  0.00    -0.792 NA 
ENDBRANCH  21  22
ENDBRANCH  20  21
ENDBRANCH  18  20
ENDBRANCH   7  18
ENDBRANCH   6   7
ENDBRANCH   5   6
ENDBRANCH   4   5
ENDBRANCH   3   4
ENDBRANCH   2   3
TORSDOF 10
ENDMDL
MODEL       36
REMARK 921   NORMALIZED FREE ENERGY PREDICTED BY IDOCK:   -5.11 KCAL/MOL
REMARK 922        TOTAL FREE ENERGY PREDICTED BY IDOCK:   -9.21 KCAL/MOL
REMARK 923 INTER-LIGAND FREE ENERGY PREDICTED BY IDOCK:   -8.21 KCAL/MOL
REMARK 924 INTRA-LIGAND FREE ENERGY PREDICTED BY IDOCK:   -0.99 KCAL/MOL
REMARK 927      BINDING AFFINITY PREDICTED BY RF-SCORE:    0.00 PKD
ROOT
HETATM    1  C   UNL     1      -9.954  11.015  63.591  1.00  0.00    -0.361 C  
HETATM    2  O   UNL     1     -10.374  12.368  63.453  1.00  0.00    -0.413 OA 
ENDROOT
BRANCH   2   3
HETATM    3  C   UNL     1     -11.783  12.478  63.631  1.00  0.00    -0.515 C  
BRANCH   3   4
HETATM    4  C   UNL     1     -12.139  13.887  64.097  1.00  0.00    -0.464 C  
BRANCH   4   5
HETATM    5  C   UNL     1     -12.668  13.838  65.531  1.00  0.00    -0.530 C  
BRANCH   5   6
HETATM    6  C   UNL     1     -11.552  13.659  66.563  1.00  0.00    -0.392 C  
BRANCH   6   7
HETATM    7  C   UNL     1     -11.646  14.696  67.697  1.00  0.00    -0.361 C  
BRANCH   7   8
HETATM    8  C   UNL     1     -10.850  15.977  67.611  1.00  0.00    -0.311 A  
HETATM    9  C   UNL     1     -10.654  16.571  66.353  1.00  0.00    -0.221 A  
HETATM   10  C   UNL     1     -10.344  16.641  68.737  1.00  0.00    -0.301 A  
HETATM   11  F   UNL     1      -8.584  20.411  68.438  1.00  0.00    -0.163 F  
HETATM   12  F   UNL     1      -7.795  19.850  66.492  1.00  0.00    -0.267 F  
HETATM   13  C   UNL     1      -9.717  17.887  68.616  1.00  0.00    -0.355 A  
HETATM   14  F   UNL     1      -9.762  20.766  66.648  1.00  0.00    -0.503 F  
HETATM   15  C   UNL     1      -9.560  18.497  67.366  1.00  0.00    -0.307 A  
HETATM   16  C   UNL     1      -8.933  19.863  67.241  1.00  0.00    -0.334 C  
HETATM   17  C   UNL     1     -10.021  17.814  66.230  1.00  0.00    -0.322 A  
ENDBRANCH   7   8
BRANCH   7  18
HETATM   18  N   UNL     1     -12.362  14.485  68.770  1.00  0.00    -0.586 NA 
HETATM   19  H   UNL     1     -13.284  14.889  68.937  1.00  0.00     0.000 HD 
BRANCH  18  20
HETATM   20  O   UNL     1     -11.700  13.632  69.660  1.00  0.00    -0.291 OA 
BRANCH  20  21
HETATM   21  C   UNL     1     -12.419  13.538  70.889  1.00  0.00    -0.369 C  
BRANCH  21  22
HETATM   22  C   UNL     1     -13.077  14.905  71.115  1.00  0.00    -0.396 C  
HETATM   23  H2  UNL     1     -11.335  15.989  71.214  1.00  0.00     0.000 HD 
HETATM   24  H1  UNL     1     -12.636  16.796  71.896  1.00  0.00     0.000 HD 
HETATM   25  N   UNL     1     -12.199  15.887  71.745  1.00  0.00    -0.448 NA 
ENDBRANCH  21  22
ENDBRANCH  20  21
ENDBRANCH  18  20
ENDBRANCH   7  18
ENDBRANCH   6   7
ENDBRANCH   5   6
ENDBRANCH   4   5
ENDBRANCH   3   4
ENDBRANCH   2   3
TORSDOF 10
ENDMDL
MODEL       37
REMARK 921   NORMALIZED FREE ENERGY PREDICTED BY IDOCK:   -5.10 KCAL/MOL
REMARK 922        TOTAL FREE ENERGY PREDICTED BY IDOCK:   -9.19 KCAL/MOL
REMARK 923 INTER-LIGAND FREE ENERGY PREDICTED BY IDOCK:   -8.29 KCAL/MOL
REMARK 924 INTRA-LIGAND FREE ENERGY PREDICTED BY IDOCK:   -0.90 KCAL/MOL
REMARK 927      BINDING AFFINITY PREDICTED BY RF-SCORE:    0.00 PKD
ROOT
HETATM    1  C   UNL     1     -12.245  10.362  70.956  1.00  0.00    -0.393 C  
HETATM    2  O   UNL     1     -12.761  11.658  71.239  1.00  0.00    -0.393 OA 
ENDROOT
BRANCH   2   3
HETATM    3  C   UNL     1     -12.136  12.639  70.417  1.00  0.00    -0.300 C  
BRANCH   3   4
HETATM    4  C   UNL     1     -11.799  12.037  69.056  1.00  0.00    -0.372 C  
BRANCH   4   5
HETATM    5  C   UNL     1     -11.517  13.156  68.052  1.00  0.00    -0.346 C  
BRANCH   5   6
HETATM    6  C   UNL     1     -10.136  13.031  67.405  1.00  0.00    -0.231 C  
BRANCH   6   7
HETATM    7  C   UNL     1      -9.958  14.016  66.235  1.00  0.00    -0.307 C  
BRANCH   7   8
HETATM    8  C   UNL     1      -9.730  15.483  66.516  1.00  0.00    -0.290 A  
HETATM    9  C   UNL     1      -8.419  15.986  66.474  1.00  0.00    -0.348 A  
HETATM   10  C   UNL     1     -10.773  16.386  66.761  1.00  0.00    -0.180 A  
HETATM   11  F   UNL     1     -10.081  20.490  67.047  1.00  0.00    -0.558 F  
HETATM   12  F   UNL     1      -8.158  20.067  67.966  1.00  0.00    -0.332 F  
HETATM   13  C   UNL     1     -10.520  17.757  66.898  1.00  0.00    -0.308 A  
HETATM   14  F   UNL     1      -8.319  20.232  65.803  1.00  0.00    -0.297 F  
HETATM   15  C   UNL     1      -9.218  18.262  66.813  1.00  0.00    -0.288 A  
HETATM   16  C   UNL     1      -8.950  19.744  66.907  1.00  0.00    -0.339 C  
HETATM   17  C   UNL     1      -8.164  17.356  66.617  1.00  0.00    -0.290 A  
ENDBRANCH   7   8
BRANCH   7  18
HETATM   18  N   UNL     1     -10.045  13.633  64.989  1.00  0.00    -0.562 NA 
HETATM   19  H   UNL     1      -9.822  14.224  64.187  1.00  0.00     0.000 HD 
BRANCH  18  20
HETATM   20  O   UNL     1     -10.483  12.307  64.897  1.00  0.00    -0.271 OA 
BRANCH  20  21
HETATM   21  C   UNL     1     -10.865  12.000  63.557  1.00  0.00    -0.444 C  
BRANCH  21  22
HETATM   22  C   UNL     1     -12.392  12.131  63.498  1.00  0.00    -0.574 C  
HETATM   23  H2  UNL     1     -12.560  13.565  64.959  1.00  0.00     0.000 HD 
HETATM   24  H1  UNL     1     -14.003  12.759  64.677  1.00  0.00     0.000 HD 
HETATM   25  N   UNL     1     -12.987  12.672  64.717  1.00  0.00    -0.867 NA 
ENDBRANCH  21  22
ENDBRANCH  20  21
ENDBRANCH  18  20
ENDBRANCH   7  18
ENDBRANCH   6   7
ENDBRANCH   5   6
ENDBRANCH   4   5
ENDBRANCH   3   4
ENDBRANCH   2   3
TORSDOF 10
ENDMDL
MODEL       38
REMARK 921   NORMALIZED FREE ENERGY PREDICTED BY IDOCK:   -5.07 KCAL/MOL
REMARK 922        TOTAL FREE ENERGY PREDICTED BY IDOCK:   -9.14 KCAL/MOL
REMARK 923 INTER-LIGAND FREE ENERGY PREDICTED BY IDOCK:   -8.19 KCAL/MOL
REMARK 924 INTRA-LIGAND FREE ENERGY PREDICTED BY IDOCK:   -0.95 KCAL/MOL
REMARK 927      BINDING AFFINITY PREDICTED BY RF-SCORE:    0.00 PKD
ROOT
HETATM    1  C   UNL     1     -12.302  14.996  64.322  1.00  0.00    -0.226 C  
HETATM    2  O   UNL     1     -12.523  13.900  63.440  1.00  0.00    -0.833 OA 
ENDROOT
BRANCH   2   3
HETATM    3  C   UNL     1     -12.347  12.662  64.122  1.00  0.00    -0.436 C  
BRANCH   3   4
HETATM    4  C   UNL     1     -12.163  12.913  65.615  1.00  0.00    -0.519 C  
BRANCH   4   5
HETATM    5  C   UNL     1     -11.402  11.746  66.246  1.00  0.00    -0.350 C  
BRANCH   5   6
HETATM    6  C   UNL     1     -10.037  12.164  66.795  1.00  0.00    -0.218 C  
BRANCH   6   7
HETATM    7  C   UNL     1     -10.081  12.416  68.314  1.00  0.00    -0.227 C  
BRANCH   7   8
HETATM    8  C   UNL     1     -10.805  11.444  69.216  1.00  0.00    -0.242 A  
HETATM    9  C   UNL     1     -10.296  10.142  69.358  1.00  0.00    -0.251 A  
HETATM   10  C   UNL     1     -11.933  11.795  69.970  1.00  0.00    -0.421 A  
HETATM   11  F   UNL     1     -13.567   9.191  72.790  1.00  0.00    -0.477 F  
HETATM   12  F   UNL     1     -13.024   7.520  71.510  1.00  0.00    -0.334 F  
HETATM   13  C   UNL     1     -12.496  10.894  70.882  1.00  0.00    -0.507 A  
HETATM   14  F   UNL     1     -11.614   8.261  72.993  1.00  0.00    -0.439 F  
HETATM   15  C   UNL     1     -11.963   9.612  71.053  1.00  0.00    -0.427 A  
HETATM   16  C   UNL     1     -12.537   8.660  72.074  1.00  0.00    -0.378 C  
HETATM   17  C   UNL     1     -10.864   9.238  70.265  1.00  0.00    -0.286 A  
ENDBRANCH   7   8
BRANCH   7  18
HETATM   18  N   UNL     1      -9.547  13.480  68.855  1.00  0.00    -0.412 NA 
HETATM   19  H   UNL     1      -8.658  13.488  69.355  1.00  0.00     0.000 HD 
BRANCH  18  20
HETATM   20  O   UNL     1     -10.354  14.606  68.657  1.00  0.00    -0.232 OA 
BRANCH  20  21
HETATM   21  C   UNL     1      -9.969  15.656  69.543  1.00  0.00    -0.285 C  
BRANCH  21  22
HETATM   22  C   UNL     1     -11.228  16.056  70.321  1.00  0.00    -0.389 C  
HETATM   23  H2  UNL     1     -12.317  14.370  69.884  1.00  0.00     0.000 HD 
HETATM   24  H1  UNL     1     -13.280  15.648  70.386  1.00  0.00     0.000 HD 
HETATM   25  N   UNL     1     -12.442  15.382  69.869  1.00  0.00    -0.296 NA 
ENDBRANCH  21  22
ENDBRANCH  20  21
ENDBRANCH  18  20
ENDBRANCH   7  18
ENDBRANCH   6   7
ENDBRANCH   5   6
ENDBRANCH   4   5
ENDBRANCH   3   4
ENDBRANCH   2   3
TORSDOF 10
ENDMDL
MODEL       39
REMARK 921   NORMALIZED FREE ENERGY PREDICTED BY IDOCK:   -5.06 KCAL/MOL
REMARK 922        TOTAL FREE ENERGY PREDICTED BY IDOCK:   -9.12 KCAL/MOL
REMARK 923 INTER-LIGAND FREE ENERGY PREDICTED BY IDOCK:   -8.14 KCAL/MOL
REMARK 924 INTRA-LIGAND FREE ENERGY PREDICTED BY IDOCK:   -0.98 KCAL/MOL
REMARK 927      BINDING AFFINITY PREDICTED BY RF-SCORE:    0.00 PKD
ROOT
HETATM    1  C   UNL     1     -12.275  14.623  64.227  1.00  0.00    -0.408 C  
HETATM    2  O   UNL     1     -12.697  13.629  63.299  1.00  0.00    -0.765 OA 
ENDROOT
BRANCH   2   3
HETATM    3  C   UNL     1     -12.135  12.362  63.629  1.00  0.00    -0.556 C  
BRANCH   3   4
HETATM    4  C   UNL     1     -10.781  12.556  64.306  1.00  0.00    -0.399 C  
BRANCH   4   5
HETATM    5  C   UNL     1     -10.751  11.791  65.629  1.00  0.00    -0.328 C  
BRANCH   5   6
HETATM    6  C   UNL     1      -9.446  12.000  66.400  1.00  0.00    -0.238 C  
BRANCH   6   7
HETATM    7  C   UNL     1      -9.641  12.912  67.625  1.00  0.00    -0.196 C  
BRANCH   7   8
HETATM    8  C   UNL     1      -9.763  14.406  67.437  1.00  0.00    -0.220 A  
HETATM    9  C   UNL     1      -9.045  15.020  66.397  1.00  0.00    -0.312 A  
HETATM   10  C   UNL     1     -10.608  15.209  68.215  1.00  0.00    -0.243 A  
HETATM   11  F   UNL     1     -11.240  19.231  67.308  1.00  0.00    -0.553 F  
HETATM   12  F   UNL     1      -9.181  19.364  66.624  1.00  0.00    -0.295 F  
HETATM   13  C   UNL     1     -10.777  16.568  67.924  1.00  0.00    -0.337 A  
HETATM   14  F   UNL     1     -10.755  18.790  65.236  1.00  0.00    -0.421 F  
HETATM   15  C   UNL     1     -10.094  17.168  66.861  1.00  0.00    -0.298 A  
HETATM   16  C   UNL     1     -10.316  18.620  66.515  1.00  0.00    -0.421 C  
HETATM   17  C   UNL     1      -9.209  16.381  66.110  1.00  0.00    -0.365 A  
ENDBRANCH   7   8
BRANCH   7  18
HETATM   18  N   UNL     1      -9.658  12.440  68.844  1.00  0.00    -0.403 NA 
HETATM   19  H   UNL     1      -9.020  12.733  69.584  1.00  0.00     0.000 HD 
BRANCH  18  20
HETATM   20  O   UNL     1     -10.664  11.479  68.999  1.00  0.00    -0.208 OA 
BRANCH  20  21
HETATM   21  C   UNL     1     -11.795  12.046  69.660  1.00  0.00    -0.333 C  
BRANCH  21  22
HETATM   22  C   UNL     1     -12.388  10.939  70.540  1.00  0.00    -0.374 C  
HETATM   23  H2  UNL     1     -13.769  12.119  71.500  1.00  0.00     0.000 HD 
HETATM   24  H1  UNL     1     -13.449  10.696  72.327  1.00  0.00     0.000 HD 
HETATM   25  N   UNL     1     -13.055  11.432  71.742  1.00  0.00    -0.471 NA 
ENDBRANCH  21  22
ENDBRANCH  20  21
ENDBRANCH  18  20
ENDBRANCH   7  18
ENDBRANCH   6   7
ENDBRANCH   5   6
ENDBRANCH   4   5
ENDBRANCH   3   4
ENDBRANCH   2   3
TORSDOF 10
ENDMDL
MODEL       40
REMARK 921   NORMALIZED FREE ENERGY PREDICTED BY IDOCK:   -5.04 KCAL/MOL
REMARK 922        TOTAL FREE ENERGY PREDICTED BY IDOCK:   -9.09 KCAL/MOL
REMARK 923 INTER-LIGAND FREE ENERGY PREDICTED BY IDOCK:   -8.33 KCAL/MOL
REMARK 924 INTRA-LIGAND FREE ENERGY PREDICTED BY IDOCK:   -0.76 KCAL/MOL
REMARK 927      BINDING AFFINITY PREDICTED BY RF-SCORE:    0.00 PKD
ROOT
HETATM    1  C   UNL     1      -9.849  10.491  64.294  1.00  0.00    -0.338 C  
HETATM    2  O   UNL     1     -11.019  11.302  64.271  1.00  0.00    -0.354 OA 
ENDROOT
BRANCH   2   3
HETATM    3  C   UNL     1     -10.687  12.656  63.981  1.00  0.00    -0.425 C  
BRANCH   3   4
HETATM    4  C   UNL     1     -11.713  13.590  64.615  1.00  0.00    -0.412 C  
BRANCH   4   5
HETATM    5  C   UNL     1     -12.087  13.078  66.006  1.00  0.00    -0.493 C  
BRANCH   5   6
HETATM    6  C   UNL     1     -11.096  13.524  67.083  1.00  0.00    -0.308 C  
BRANCH   6   7
HETATM    7  C   UNL     1     -11.732  13.525  68.486  1.00  0.00    -0.357 C  
BRANCH   7   8
HETATM    8  C   UNL     1     -11.746  12.256  69.305  1.00  0.00    -0.388 A  
HETATM    9  C   UNL     1     -10.784  11.267  69.040  1.00  0.00    -0.257 A  
HETATM   10  C   UNL     1     -12.639  12.038  70.363  1.00  0.00    -0.128 A  
HETATM   11  F   UNL     1     -12.284   8.721  72.867  1.00  0.00    -0.392 F  
HETATM   12  F   UNL     1     -11.588   7.557  71.169  1.00  0.00    -0.268 F  
HETATM   13  C   UNL     1     -12.534  10.898  71.168  1.00  0.00    -0.511 A  
HETATM   14  F   UNL     1     -10.164   8.652  72.396  1.00  0.00    -0.352 F  
HETATM   15  C   UNL     1     -11.548   9.934  70.930  1.00  0.00    -0.456 A  
HETATM   16  C   UNL     1     -11.401   8.732  71.830  1.00  0.00    -0.361 C  
HETATM   17  C   UNL     1     -10.682  10.123  69.842  1.00  0.00    -0.340 A  
ENDBRANCH   7   8
BRANCH   7  18
HETATM   18  N   UNL     1     -12.311  14.587  68.982  1.00  0.00    -0.579 NA 
HETATM   19  H   UNL     1     -13.267  14.610  69.336  1.00  0.00     0.000 HD 
BRANCH  18  20
HETATM   20  O   UNL     1     -11.447  15.688  68.963  1.00  0.00    -0.315 OA 
BRANCH  20  21
HETATM   21  C   UNL     1     -11.270  16.204  70.282  1.00  0.00    -0.381 C  
BRANCH  21  22
HETATM   22  C   UNL     1     -12.422  15.649  71.127  1.00  0.00    -0.448 C  
HETATM   23  H2  UNL     1     -12.281  17.024  72.646  1.00  0.00     0.000 HD 
HETATM   24  H1  UNL     1     -13.115  15.643  73.102  1.00  0.00     0.000 HD 
HETATM   25  N   UNL     1     -12.349  16.013  72.540  1.00  0.00    -0.469 NA 
ENDBRANCH  21  22
ENDBRANCH  20  21
ENDBRANCH  18  20
ENDBRANCH   7  18
ENDBRANCH   6   7
ENDBRANCH   5   6
ENDBRANCH   4   5
ENDBRANCH   3   4
ENDBRANCH   2   3
TORSDOF 10
ENDMDL
MODEL       41
REMARK 921   NORMALIZED FREE ENERGY PREDICTED BY IDOCK:   -5.03 KCAL/MOL
REMARK 922        TOTAL FREE ENERGY PREDICTED BY IDOCK:   -9.07 KCAL/MOL
REMARK 923 INTER-LIGAND FREE ENERGY PREDICTED BY IDOCK:   -8.29 KCAL/MOL
REMARK 924 INTRA-LIGAND FREE ENERGY PREDICTED BY IDOCK:   -0.78 KCAL/MOL
REMARK 927      BINDING AFFINITY PREDICTED BY RF-SCORE:    0.00 PKD
ROOT
HETATM    1  C   UNL     1     -13.601  13.817  72.273  1.00  0.00    -0.559 C  
HETATM    2  O   UNL     1     -13.094  12.667  71.603  1.00  0.00    -0.402 OA 
ENDROOT
BRANCH   2   3
HETATM    3  C   UNL     1     -12.464  13.036  70.380  1.00  0.00    -0.194 C  
BRANCH   3   4
HETATM    4  C   UNL     1     -11.909  11.795  69.688  1.00  0.00    -0.407 C  
BRANCH   4   5
HETATM    5  C   UNL     1     -11.572  12.122  68.233  1.00  0.00    -0.382 C  
BRANCH   5   6
HETATM    6  C   UNL     1     -10.097  12.476  68.035  1.00  0.00    -0.220 C  
BRANCH   6   7
HETATM    7  C   UNL     1      -9.869  13.302  66.755  1.00  0.00    -0.264 C  
BRANCH   7   8
HETATM    8  C   UNL     1     -10.109  14.793  66.772  1.00  0.00    -0.258 A  
HETATM    9  C   UNL     1     -10.103  15.468  68.005  1.00  0.00    -0.223 A  
HETATM   10  C   UNL     1     -10.279  15.554  65.608  1.00  0.00    -0.403 A  
HETATM   11  F   UNL     1     -10.449  19.721  65.730  1.00  0.00    -0.526 F  
HETATM   12  F   UNL     1     -11.460  19.588  67.650  1.00  0.00    -0.388 F  
HETATM   13  C   UNL     1     -10.377  16.950  65.669  1.00  0.00    -0.254 A  
HETATM   14  F   UNL     1      -9.288  19.666  67.565  1.00  0.00    -0.344 F  
HETATM   15  C   UNL     1     -10.329  17.623  66.894  1.00  0.00    -0.329 A  
HETATM   16  C   UNL     1     -10.382  19.130  66.956  1.00  0.00    -0.414 C  
HETATM   17  C   UNL     1     -10.208  16.863  68.067  1.00  0.00    -0.310 A  
ENDBRANCH   7   8
BRANCH   7  18
HETATM   18  N   UNL     1      -9.517  12.746  65.626  1.00  0.00    -0.464 NA 
HETATM   19  H   UNL     1      -8.617  12.891  65.168  1.00  0.00     0.000 HD 
BRANCH  18  20
HETATM   20  O   UNL     1     -10.536  11.925  65.128  1.00  0.00    -0.265 OA 
BRANCH  20  21
HETATM   21  C   UNL     1     -10.718  12.151  63.731  1.00  0.00    -0.437 C  
BRANCH  21  22
HETATM   22  C   UNL     1     -12.035  12.921  63.581  1.00  0.00    -0.541 C  
HETATM   23  H2  UNL     1     -13.099  11.833  64.960  1.00  0.00     0.000 HD 
HETATM   24  H1  UNL     1     -14.089  12.678  63.904  1.00  0.00     0.000 HD 
HETATM   25  N   UNL     1     -13.213  12.167  64.004  1.00  0.00    -0.705 NA 
ENDBRANCH  21  22
ENDBRANCH  20  21
ENDBRANCH  18  20
ENDBRANCH   7  18
ENDBRANCH   6   7
ENDBRANCH   5   6
ENDBRANCH   4   5
ENDBRANCH   3   4
ENDBRANCH   2   3
TORSDOF 10
ENDMDL
MODEL       42
REMARK 921   NORMALIZED FREE ENERGY PREDICTED BY IDOCK:   -5.02 KCAL/MOL
REMARK 922        TOTAL FREE ENERGY PREDICTED BY IDOCK:   -9.06 KCAL/MOL
REMARK 923 INTER-LIGAND FREE ENERGY PREDICTED BY IDOCK:   -7.79 KCAL/MOL
REMARK 924 INTRA-LIGAND FREE ENERGY PREDICTED BY IDOCK:   -1.28 KCAL/MOL
REMARK 927      BINDING AFFINITY PREDICTED BY RF-SCORE:    0.00 PKD
ROOT
HETATM    1  C   UNL     1      -7.553   9.532  68.548  1.00  0.00    -0.081 C  
HETATM    2  O   UNL     1      -8.601   8.624  68.226  1.00  0.00    -0.136 OA 
ENDROOT
BRANCH   2   3
HETATM    3  C   UNL     1      -9.473   8.448  69.339  1.00  0.00    -0.158 C  
BRANCH   3   4
HETATM    4  C   UNL     1      -9.265   9.574  70.346  1.00  0.00    -0.305 C  
BRANCH   4   5
HETATM    5  C   UNL     1     -10.575   9.860  71.080  1.00  0.00    -0.173 C  
BRANCH   5   6
HETATM    6  C   UNL     1     -11.740  10.122  70.123  1.00  0.00    -0.330 C  
BRANCH   6   7
HETATM    7  C   UNL     1     -11.835  11.606  69.724  1.00  0.00    -0.357 C  
BRANCH   7   8
HETATM    8  C   UNL     1     -11.741  12.001  68.269  1.00  0.00    -0.396 A  
HETATM    9  C   UNL     1     -11.279  11.055  67.338  1.00  0.00    -0.355 A  
HETATM   10  C   UNL     1     -12.149  13.252  67.788  1.00  0.00    -0.281 A  
HETATM   11  F   UNL     1     -12.301  14.072  63.700  1.00  0.00    -0.516 F  
HETATM   12  F   UNL     1     -10.562  12.800  63.416  1.00  0.00    -0.401 F  
HETATM   13  C   UNL     1     -12.154  13.527  66.415  1.00  0.00    -0.467 A  
HETATM   14  F   UNL     1     -12.561  11.947  63.332  1.00  0.00    -0.620 F  
HETATM   15  C   UNL     1     -11.734  12.569  65.486  1.00  0.00    -0.457 A  
HETATM   16  C   UNL     1     -11.789  12.846  64.003  1.00  0.00    -0.443 C  
HETATM   17  C   UNL     1     -11.278  11.332  65.965  1.00  0.00    -0.108 A  
ENDBRANCH   7   8
BRANCH   7  18
HETATM   18  N   UNL     1     -11.950  12.556  70.615  1.00  0.00    -0.513 NA 
HETATM   19  H   UNL     1     -11.273  13.308  70.746  1.00  0.00     0.000 HD 
BRANCH  18  20
HETATM   20  O   UNL     1     -13.121  12.405  71.367  1.00  0.00    -0.334 OA 
BRANCH  20  21
HETATM   21  C   UNL     1     -13.292  13.513  72.249  1.00  0.00    -0.531 C  
BRANCH  21  22
HETATM   22  C   UNL     1     -12.384  14.632  71.727  1.00  0.00    -0.346 C  
HETATM   23  H2  UNL     1     -13.890  15.894  71.128  1.00  0.00     0.000 HD 
HETATM   24  H1  UNL     1     -12.422  16.253  70.402  1.00  0.00     0.000 HD 
HETATM   25  N   UNL     1     -13.026  15.508  70.750  1.00  0.00    -0.477 NA 
ENDBRANCH  21  22
ENDBRANCH  20  21
ENDBRANCH  18  20
ENDBRANCH   7  18
ENDBRANCH   6   7
ENDBRANCH   5   6
ENDBRANCH   4   5
ENDBRANCH   3   4
ENDBRANCH   2   3
TORSDOF 10
ENDMDL
MODEL       43
REMARK 921   NORMALIZED FREE ENERGY PREDICTED BY IDOCK:   -5.01 KCAL/MOL
REMARK 922        TOTAL FREE ENERGY PREDICTED BY IDOCK:   -9.05 KCAL/MOL
REMARK 923 INTER-LIGAND FREE ENERGY PREDICTED BY IDOCK:   -8.32 KCAL/MOL
REMARK 924 INTRA-LIGAND FREE ENERGY PREDICTED BY IDOCK:   -0.74 KCAL/MOL
REMARK 927      BINDING AFFINITY PREDICTED BY RF-SCORE:    0.00 PKD
ROOT
HETATM    1  C   UNL     1      -7.109  19.343  68.308  1.00  0.00    -0.284 C  
HETATM    2  O   UNL     1      -7.028  18.019  67.791  1.00  0.00    -0.202 OA 
ENDROOT
BRANCH   2   3
HETATM    3  C   UNL     1      -8.095  17.217  68.291  1.00  0.00    -0.246 C  
BRANCH   3   4
HETATM    4  C   UNL     1      -7.991  15.804  67.726  1.00  0.00    -0.155 C  
BRANCH   4   5
HETATM    5  C   UNL     1      -8.841  15.690  66.460  1.00  0.00    -0.345 C  
BRANCH   5   6
HETATM    6  C   UNL     1     -10.337  15.845  66.741  1.00  0.00    -0.298 C  
BRANCH   6   7
HETATM    7  C   UNL     1     -10.868  14.732  67.663  1.00  0.00    -0.285 C  
BRANCH   7   8
HETATM    8  C   UNL     1     -11.417  15.084  69.025  1.00  0.00    -0.322 A  
HETATM    9  C   UNL     1     -12.383  14.245  69.606  1.00  0.00    -0.312 A  
HETATM   10  C   UNL     1     -10.966  16.181  69.772  1.00  0.00    -0.349 A  
HETATM   11  F   UNL     1     -12.193  16.791  73.712  1.00  0.00    -0.532 F  
HETATM   12  F   UNL     1     -14.137  15.968  73.197  1.00  0.00    -0.661 F  
HETATM   13  C   UNL     1     -11.420  16.397  71.079  1.00  0.00    -0.232 A  
HETATM   14  F   UNL     1     -12.544  14.654  73.883  1.00  0.00    -0.593 F  
HETATM   15  C   UNL     1     -12.350  15.536  71.671  1.00  0.00    -0.471 A  
HETATM   16  C   UNL     1     -12.799  15.737  73.097  1.00  0.00    -0.522 C  
HETATM   17  C   UNL     1     -12.842  14.464  70.911  1.00  0.00    -0.419 A  
ENDBRANCH   7   8
BRANCH   7  18
HETATM   18  N   UNL     1     -10.817  13.470  67.325  1.00  0.00    -0.274 NA 
HETATM   19  H   UNL     1     -10.249  12.769  67.801  1.00  0.00     0.000 HD 
BRANCH  18  20
HETATM   20  O   UNL     1     -11.642  13.208  66.225  1.00  0.00    -0.324 OA 
BRANCH  20  21
HETATM   21  C   UNL     1     -11.271  11.977  65.607  1.00  0.00    -0.327 C  
BRANCH  21  22
HETATM   22  C   UNL     1     -11.333  12.211  64.094  1.00  0.00    -0.380 C  
HETATM   23  H2  UNL     1     -13.261  12.920  64.047  1.00  0.00     0.000 HD 
HETATM   24  H1  UNL     1     -12.732  12.389  62.547  1.00  0.00     0.000 HD 
HETATM   25  N   UNL     1     -12.690  12.233  63.554  1.00  0.00    -0.784 NA 
ENDBRANCH  21  22
ENDBRANCH  20  21
ENDBRANCH  18  20
ENDBRANCH   7  18
ENDBRANCH   6   7
ENDBRANCH   5   6
ENDBRANCH   4   5
ENDBRANCH   3   4
ENDBRANCH   2   3
TORSDOF 10
ENDMDL
MODEL       44
REMARK 921   NORMALIZED FREE ENERGY PREDICTED BY IDOCK:   -5.01 KCAL/MOL
REMARK 922        TOTAL FREE ENERGY PREDICTED BY IDOCK:   -9.05 KCAL/MOL
REMARK 923 INTER-LIGAND FREE ENERGY PREDICTED BY IDOCK:   -8.02 KCAL/MOL
REMARK 924 INTRA-LIGAND FREE ENERGY PREDICTED BY IDOCK:   -1.03 KCAL/MOL
REMARK 927      BINDING AFFINITY PREDICTED BY RF-SCORE:    0.00 PKD
ROOT
HETATM    1  C   UNL     1      -7.638  12.722  67.215  1.00  0.00    -0.112 C  
HETATM    2  O   UNL     1      -7.925  13.124  68.551  1.00  0.00    -0.139 OA 
ENDROOT
BRANCH   2   3
HETATM    3  C   UNL     1      -7.535  14.478  68.762  1.00  0.00    -0.132 C  
BRANCH   3   4
HETATM    4  C   UNL     1      -8.653  15.416  68.317  1.00  0.00    -0.158 C  
BRANCH   4   5
HETATM    5  C   UNL     1      -9.559  15.741  69.505  1.00  0.00    -0.262 C  
BRANCH   5   6
HETATM    6  C   UNL     1     -11.000  16.036  69.082  1.00  0.00    -0.297 C  
BRANCH   6   7
HETATM    7  C   UNL     1     -11.840  14.750  68.965  1.00  0.00    -0.302 C  
BRANCH   7   8
HETATM    8  C   UNL     1     -11.788  13.931  67.697  1.00  0.00    -0.422 A  
HETATM    9  C   UNL     1     -11.996  14.574  66.465  1.00  0.00    -0.358 A  
HETATM   10  C   UNL     1     -11.481  12.564  67.681  1.00  0.00    -0.392 A  
HETATM   11  F   UNL     1     -10.886  10.503  64.103  1.00  0.00    -0.312 F  
HETATM   12  F   UNL     1     -12.395  11.758  63.170  1.00  0.00    -0.603 F  
HETATM   13  C   UNL     1     -11.326  11.876  66.472  1.00  0.00    -0.403 A  
HETATM   14  F   UNL     1     -10.310  12.380  63.173  1.00  0.00    -0.407 F  
HETATM   15  C   UNL     1     -11.492  12.527  65.245  1.00  0.00    -0.374 A  
HETATM   16  C   UNL     1     -11.274  11.799  63.941  1.00  0.00    -0.414 C  
HETATM   17  C   UNL     1     -11.848  13.884  65.255  1.00  0.00    -0.365 A  
ENDBRANCH   7   8
BRANCH   7  18
HETATM   18  N   UNL     1     -12.645  14.361  69.919  1.00  0.00    -0.507 NA 
HETATM   19  H   UNL     1     -12.915  13.391  70.085  1.00  0.00     0.000 HD 
BRANCH  18  20
HETATM   20  O   UNL     1     -13.088  15.448  70.681  1.00  0.00    -0.426 OA 
BRANCH  20  21
HETATM   21  C   UNL     1     -13.813  14.993  71.823  1.00  0.00    -0.479 C  
BRANCH  21  22
HETATM   22  C   UNL     1     -12.834  15.025  73.003  1.00  0.00    -0.471 C  
HETATM   23  H2  UNL     1     -13.988  16.200  74.231  1.00  0.00     0.000 HD 
HETATM   24  H1  UNL     1     -12.374  16.183  74.684  1.00  0.00     0.000 HD 
HETATM   25  N   UNL     1     -13.025  16.162  73.899  1.00  0.00    -0.686 NA 
ENDBRANCH  21  22
ENDBRANCH  20  21
ENDBRANCH  18  20
ENDBRANCH   7  18
ENDBRANCH   6   7
ENDBRANCH   5   6
ENDBRANCH   4   5
ENDBRANCH   3   4
ENDBRANCH   2   3
TORSDOF 10
ENDMDL
MODEL       45
REMARK 921   NORMALIZED FREE ENERGY PREDICTED BY IDOCK:   -5.00 KCAL/MOL
REMARK 922        TOTAL FREE ENERGY PREDICTED BY IDOCK:   -9.03 KCAL/MOL
REMARK 923 INTER-LIGAND FREE ENERGY PREDICTED BY IDOCK:   -8.03 KCAL/MOL
REMARK 924 INTRA-LIGAND FREE ENERGY PREDICTED BY IDOCK:   -0.99 KCAL/MOL
REMARK 927      BINDING AFFINITY PREDICTED BY RF-SCORE:    0.00 PKD
ROOT
HETATM    1  C   UNL     1     -12.660  14.004  65.396  1.00  0.00    -0.505 C  
HETATM    2  O   UNL     1     -11.860  13.885  64.224  1.00  0.00    -0.408 OA 
ENDROOT
BRANCH   2   3
HETATM    3  C   UNL     1     -10.686  13.124  64.491  1.00  0.00    -0.398 C  
BRANCH   3   4
HETATM    4  C   UNL     1     -10.941  11.652  64.186  1.00  0.00    -0.442 C  
BRANCH   4   5
HETATM    5  C   UNL     1     -10.368  10.785  65.307  1.00  0.00    -0.327 C  
BRANCH   5   6
HETATM    6  C   UNL     1     -10.144  11.570  66.601  1.00  0.00    -0.242 C  
BRANCH   6   7
HETATM    7  C   UNL     1     -10.933  10.972  67.781  1.00  0.00    -0.269 C  
BRANCH   7   8
HETATM    8  C   UNL     1     -11.421  11.873  68.891  1.00  0.00    -0.358 A  
HETATM    9  C   UNL     1     -11.237  13.260  68.770  1.00  0.00    -0.317 A  
HETATM   10  C   UNL     1     -12.106  11.397  70.018  1.00  0.00    -0.417 A  
HETATM   11  F   UNL     1     -13.832  14.000  72.782  1.00  0.00    -0.553 F  
HETATM   12  F   UNL     1     -12.195  15.390  72.443  1.00  0.00    -0.357 F  
HETATM   13  C   UNL     1     -12.643  12.282  70.960  1.00  0.00    -0.352 A  
HETATM   14  F   UNL     1     -13.985  15.492  71.210  1.00  0.00    -0.536 F  
HETATM   15  C   UNL     1     -12.495  13.666  70.815  1.00  0.00    -0.432 A  
HETATM   16  C   UNL     1     -13.119  14.622  71.802  1.00  0.00    -0.341 C  
HETATM   17  C   UNL     1     -11.768  14.146  69.716  1.00  0.00    -0.370 A  
ENDBRANCH   7   8
BRANCH   7  18
HETATM   18  N   UNL     1     -11.159   9.689  67.883  1.00  0.00    -0.508 NA 
HETATM   19  H   UNL     1     -12.066   9.249  67.725  1.00  0.00     0.000 HD 
BRANCH  18  20
HETATM   20  O   UNL     1      -9.994   8.997  68.236  1.00  0.00    -0.161 OA 
BRANCH  20  21
HETATM   21  C   UNL     1     -10.236   8.161  69.367  1.00  0.00    -0.211 C  
BRANCH  21  22
HETATM   22  C   UNL     1      -9.410   8.738  70.522  1.00  0.00    -0.187 C  
HETATM   23  H2  UNL     1     -10.762   8.317  72.010  1.00  0.00     0.000 HD 
HETATM   24  H1  UNL     1      -9.655   9.492  72.460  1.00  0.00     0.000 HD 
HETATM   25  N   UNL     1     -10.204   9.108  71.691  1.00  0.00    -0.341 NA 
ENDBRANCH  21  22
ENDBRANCH  20  21
ENDBRANCH  18  20
ENDBRANCH   7  18
ENDBRANCH   6   7
ENDBRANCH   5   6
ENDBRANCH   4   5
ENDBRANCH   3   4
ENDBRANCH   2   3
TORSDOF 10
ENDMDL
MODEL       46
REMARK 921   NORMALIZED FREE ENERGY PREDICTED BY IDOCK:   -4.99 KCAL/MOL
REMARK 922        TOTAL FREE ENERGY PREDICTED BY IDOCK:   -9.02 KCAL/MOL
REMARK 923 INTER-LIGAND FREE ENERGY PREDICTED BY IDOCK:   -8.20 KCAL/MOL
REMARK 924 INTRA-LIGAND FREE ENERGY PREDICTED BY IDOCK:   -0.82 KCAL/MOL
REMARK 927      BINDING AFFINITY PREDICTED BY RF-SCORE:    0.00 PKD
ROOT
HETATM    1  C   UNL     1     -12.608   9.109  71.549  1.00  0.00    -0.343 C  
HETATM    2  O   UNL     1     -13.036  10.391  71.998  1.00  0.00    -0.445 OA 
ENDROOT
BRANCH   2   3
HETATM    3  C   UNL     1     -12.699  11.396  71.045  1.00  0.00    -0.349 C  
BRANCH   3   4
HETATM    4  C   UNL     1     -12.798  12.775  71.688  1.00  0.00    -0.363 C  
BRANCH   4   5
HETATM    5  C   UNL     1     -12.859  13.849  70.601  1.00  0.00    -0.291 C  
BRANCH   5   6
HETATM    6  C   UNL     1     -11.470  14.293  70.136  1.00  0.00    -0.254 C  
BRANCH   6   7
HETATM    7  C   UNL     1     -11.417  14.512  68.612  1.00  0.00    -0.293 C  
BRANCH   7   8
HETATM    8  C   UNL     1     -10.928  15.830  68.060  1.00  0.00    -0.330 A  
HETATM    9  C   UNL     1     -10.710  15.948  66.677  1.00  0.00    -0.270 A  
HETATM   10  C   UNL     1     -10.737  16.969  68.855  1.00  0.00    -0.300 A  
HETATM   11  F   UNL     1      -9.855  20.682  67.169  1.00  0.00    -0.562 F  
HETATM   12  F   UNL     1      -8.713  19.669  65.622  1.00  0.00    -0.271 F  
HETATM   13  C   UNL     1     -10.399  18.199  68.278  1.00  0.00    -0.377 A  
HETATM   14  F   UNL     1     -10.840  20.034  65.344  1.00  0.00    -0.583 F  
HETATM   15  C   UNL     1     -10.224  18.324  66.896  1.00  0.00    -0.390 A  
HETATM   16  C   UNL     1      -9.912  19.661  66.269  1.00  0.00    -0.466 C  
HETATM   17  C   UNL     1     -10.365  17.177  66.101  1.00  0.00    -0.327 A  
ENDBRANCH   7   8
BRANCH   7  18
HETATM   18  N   UNL     1     -11.828  13.603  67.768  1.00  0.00    -0.360 NA 
HETATM   19  H   UNL     1     -12.798  13.487  67.473  1.00  0.00     0.000 HD 
BRANCH  18  20
HETATM   20  O   UNL     1     -10.765  12.810  67.321  1.00  0.00    -0.234 OA 
BRANCH  20  21
HETATM   21  C   UNL     1     -11.221  11.866  66.353  1.00  0.00    -0.331 C  
BRANCH  21  22
HETATM   22  C   UNL     1     -11.486  12.654  65.065  1.00  0.00    -0.329 C  
HETATM   23  H2  UNL     1     -12.950  13.872  65.835  1.00  0.00     0.000 HD 
HETATM   24  H1  UNL     1     -12.981  13.806  64.160  1.00  0.00     0.000 HD 
HETATM   25  N   UNL     1     -12.804  13.282  65.017  1.00  0.00    -0.727 NA 
ENDBRANCH  21  22
ENDBRANCH  20  21
ENDBRANCH  18  20
ENDBRANCH   7  18
ENDBRANCH   6   7
ENDBRANCH   5   6
ENDBRANCH   4   5
ENDBRANCH   3   4
ENDBRANCH   2   3
TORSDOF 10
ENDMDL
MODEL       47
REMARK 921   NORMALIZED FREE ENERGY PREDICTED BY IDOCK:   -4.97 KCAL/MOL
REMARK 922        TOTAL FREE ENERGY PREDICTED BY IDOCK:   -8.99 KCAL/MOL
REMARK 923 INTER-LIGAND FREE ENERGY PREDICTED BY IDOCK:   -8.36 KCAL/MOL
REMARK 924 INTRA-LIGAND FREE ENERGY PREDICTED BY IDOCK:   -0.62 KCAL/MOL
REMARK 927      BINDING AFFINITY PREDICTED BY RF-SCORE:    0.00 PKD
ROOT
HETATM    1  C   UNL     1     -10.934   9.190  71.546  1.00  0.00    -0.364 C  
HETATM    2  O   UNL     1     -11.522  10.327  70.924  1.00  0.00    -0.338 OA 
ENDROOT
BRANCH   2   3
HETATM    3  C   UNL     1     -10.983  10.523  69.620  1.00  0.00    -0.283 C  
BRANCH   3   4
HETATM    4  C   UNL     1     -12.037  11.145  68.709  1.00  0.00    -0.232 C  
BRANCH   4   5
HETATM    5  C   UNL     1     -11.411  12.275  67.892  1.00  0.00    -0.390 C  
BRANCH   5   6
HETATM    6  C   UNL     1     -10.710  13.315  68.768  1.00  0.00    -0.253 C  
BRANCH   6   7
HETATM    7  C   UNL     1     -11.492  14.641  68.826  1.00  0.00    -0.296 C  
BRANCH   7   8
HETATM    8  C   UNL     1     -10.884  15.897  68.248  1.00  0.00    -0.315 A  
HETATM    9  C   UNL     1     -10.638  15.957  66.866  1.00  0.00    -0.309 A  
HETATM   10  C   UNL     1     -10.605  17.036  69.016  1.00  0.00    -0.314 A  
HETATM   11  F   UNL     1      -9.382  20.612  67.249  1.00  0.00    -0.486 F  
HETATM   12  F   UNL     1      -8.313  19.462  65.745  1.00  0.00    -0.307 F  
HETATM   13  C   UNL     1     -10.154  18.216  68.413  1.00  0.00    -0.401 A  
HETATM   14  F   UNL     1     -10.396  20.002  65.426  1.00  0.00    -0.488 F  
HETATM   15  C   UNL     1      -9.950  18.288  67.030  1.00  0.00    -0.349 A  
HETATM   16  C   UNL     1      -9.516  19.575  66.374  1.00  0.00    -0.386 C  
HETATM   17  C   UNL     1     -10.181  17.136  66.263  1.00  0.00    -0.340 A  
ENDBRANCH   7   8
BRANCH   7  18
HETATM   18  N   UNL     1     -12.659  14.731  69.408  1.00  0.00    -0.575 NA 
HETATM   19  H   UNL     1     -13.538  14.433  68.985  1.00  0.00     0.000 HD 
BRANCH  18  20
HETATM   20  O   UNL     1     -12.545  15.289  70.686  1.00  0.00    -0.363 OA 
BRANCH  20  21
HETATM   21  C   UNL     1     -13.792  15.215  71.375  1.00  0.00    -0.502 C  
BRANCH  21  22
HETATM   22  C   UNL     1     -13.583  14.260  72.556  1.00  0.00    -0.520 C  
HETATM   23  H2  UNL     1     -12.716  12.741  71.477  1.00  0.00     0.000 HD 
HETATM   24  H1  UNL     1     -13.318  12.221  72.953  1.00  0.00     0.000 HD 
HETATM   25  N   UNL     1     -13.457  12.857  72.168  1.00  0.00    -0.549 NA 
ENDBRANCH  21  22
ENDBRANCH  20  21
ENDBRANCH  18  20
ENDBRANCH   7  18
ENDBRANCH   6   7
ENDBRANCH   5   6
ENDBRANCH   4   5
ENDBRANCH   3   4
ENDBRANCH   2   3
TORSDOF 10
ENDMDL
MODEL       48
REMARK 921   NORMALIZED FREE ENERGY PREDICTED BY IDOCK:   -4.97 KCAL/MOL
REMARK 922        TOTAL FREE ENERGY PREDICTED BY IDOCK:   -8.98 KCAL/MOL
REMARK 923 INTER-LIGAND FREE ENERGY PREDICTED BY IDOCK:   -7.47 KCAL/MOL
REMARK 924 INTRA-LIGAND FREE ENERGY PREDICTED BY IDOCK:   -1.51 KCAL/MOL
REMARK 927      BINDING AFFINITY PREDICTED BY RF-SCORE:    0.00 PKD
ROOT
HETATM    1  C   UNL     1     -11.977   6.516  72.061  1.00  0.00    -0.326 C  
HETATM    2  O   UNL     1     -12.877   7.016  71.077  1.00  0.00    -0.349 OA 
ENDROOT
BRANCH   2   3
HETATM    3  C   UNL     1     -13.862   7.853  71.676  1.00  0.00    -0.379 C  
BRANCH   3   4
HETATM    4  C   UNL     1     -13.192   9.056  72.333  1.00  0.00    -0.507 C  
BRANCH   4   5
HETATM    5  C   UNL     1     -13.155  10.227  71.350  1.00  0.00    -0.512 C  
BRANCH   5   6
HETATM    6  C   UNL     1     -11.734  10.570  70.897  1.00  0.00    -0.431 C  
BRANCH   6   7
HETATM    7  C   UNL     1     -11.408   9.967  69.518  1.00  0.00    -0.169 C  
BRANCH   7   8
HETATM    8  C   UNL     1     -11.377  10.858  68.298  1.00  0.00    -0.374 A  
HETATM    9  C   UNL     1     -11.943  12.141  68.380  1.00  0.00    -0.257 A  
HETATM   10  C   UNL     1     -10.754  10.489  67.098  1.00  0.00    -0.323 A  
HETATM   11  F   UNL     1     -10.300  13.196  63.956  1.00  0.00    -0.424 F  
HETATM   12  F   UNL     1     -12.207  14.090  64.497  1.00  0.00    -0.400 F  
HETATM   13  C   UNL     1     -10.648  11.395  66.036  1.00  0.00    -0.319 A  
HETATM   14  F   UNL     1     -10.367  14.814  65.404  1.00  0.00    -0.300 F  
HETATM   15  C   UNL     1     -11.175  12.688  66.134  1.00  0.00    -0.350 A  
HETATM   16  C   UNL     1     -11.013  13.682  65.011  1.00  0.00    -0.346 C  
HETATM   17  C   UNL     1     -11.842  13.045  67.315  1.00  0.00    -0.419 A  
ENDBRANCH   7   8
BRANCH   7  18
HETATM   18  N   UNL     1     -11.201   8.687  69.354  1.00  0.00    -0.428 NA 
HETATM   19  H   UNL     1     -11.882   8.039  68.956  1.00  0.00     0.000 HD 
BRANCH  18  20
HETATM   20  O   UNL     1      -9.924   8.322  69.794  1.00  0.00    -0.185 OA 
BRANCH  20  21
HETATM   21  C   UNL     1      -9.211   7.652  68.755  1.00  0.00    -0.142 C  
BRANCH  21  22
HETATM   22  C   UNL     1     -10.126   6.529  68.251  1.00  0.00    -0.159 C  
HETATM   23  H2  UNL     1     -10.222   7.165  66.300  1.00  0.00     0.000 HD 
HETATM   24  H1  UNL     1     -11.470   6.119  66.700  1.00  0.00     0.000 HD 
HETATM   25  N   UNL     1     -10.862   6.866  67.036  1.00  0.00    -0.375 NA 
ENDBRANCH  21  22
ENDBRANCH  20  21
ENDBRANCH  18  20
ENDBRANCH   7  18
ENDBRANCH   6   7
ENDBRANCH   5   6
ENDBRANCH   4   5
ENDBRANCH   3   4
ENDBRANCH   2   3
TORSDOF 10
ENDMDL
MODEL       49
REMARK 921   NORMALIZED FREE ENERGY PREDICTED BY IDOCK:   -4.93 KCAL/MOL
REMARK 922        TOTAL FREE ENERGY PREDICTED BY IDOCK:   -8.92 KCAL/MOL
REMARK 923 INTER-LIGAND FREE ENERGY PREDICTED BY IDOCK:   -8.24 KCAL/MOL
REMARK 924 INTRA-LIGAND FREE ENERGY PREDICTED BY IDOCK:   -0.68 KCAL/MOL
REMARK 927      BINDING AFFINITY PREDICTED BY RF-SCORE:    0.00 PKD
ROOT
HETATM    1  C   UNL     1     -10.222  11.602  64.410  1.00  0.00    -0.300 C  
HETATM    2  O   UNL     1     -10.861  12.116  63.246  1.00  0.00    -0.415 OA 
ENDROOT
BRANCH   2   3
HETATM    3  C   UNL     1     -11.858  13.071  63.600  1.00  0.00    -0.516 C  
BRANCH   3   4
HETATM    4  C   UNL     1     -12.491  12.690  64.935  1.00  0.00    -0.564 C  
BRANCH   4   5
HETATM    5  C   UNL     1     -12.592  13.925  65.830  1.00  0.00    -0.533 C  
BRANCH   5   6
HETATM    6  C   UNL     1     -11.845  13.755  67.154  1.00  0.00    -0.441 C  
BRANCH   6   7
HETATM    7  C   UNL     1     -11.636  15.100  67.874  1.00  0.00    -0.311 C  
BRANCH   7   8
HETATM    8  C   UNL     1     -10.615  16.082  67.351  1.00  0.00    -0.316 A  
HETATM    9  C   UNL     1     -10.638  17.404  67.826  1.00  0.00    -0.371 A  
HETATM   10  C   UNL     1      -9.600  15.724  66.453  1.00  0.00    -0.311 A  
HETATM   11  F   UNL     1      -6.545  18.379  65.443  1.00  0.00    -0.281 F  
HETATM   12  F   UNL     1      -7.966  20.017  65.595  1.00  0.00    -0.342 F  
HETATM   13  C   UNL     1      -8.605  16.640  66.090  1.00  0.00    -0.324 A  
HETATM   14  F   UNL     1      -6.848  19.378  67.349  1.00  0.00    -0.209 F  
HETATM   15  C   UNL     1      -8.606  17.944  66.597  1.00  0.00    -0.283 A  
HETATM   16  C   UNL     1      -7.505  18.915  66.248  1.00  0.00    -0.265 C  
HETATM   17  C   UNL     1      -9.647  18.322  67.458  1.00  0.00    -0.282 A  
ENDBRANCH   7   8
BRANCH   7  18
HETATM   18  N   UNL     1     -12.287  15.409  68.965  1.00  0.00    -0.612 NA 
HETATM   19  H   UNL     1     -12.737  16.309  69.133  1.00  0.00     0.000 HD 
BRANCH  18  20
HETATM   20  O   UNL     1     -12.285  14.343  69.873  1.00  0.00    -0.318 OA 
BRANCH  20  21
HETATM   21  C   UNL     1     -11.965  14.808  71.184  1.00  0.00    -0.335 C  
BRANCH  21  22
HETATM   22  C   UNL     1     -13.165  14.463  72.074  1.00  0.00    -0.369 C  
HETATM   23  H2  UNL     1     -12.669  12.493  72.381  1.00  0.00     0.000 HD 
HETATM   24  H1  UNL     1     -14.284  12.809  72.701  1.00  0.00     0.000 HD 
HETATM   25  N   UNL     1     -13.486  13.038  72.109  1.00  0.00    -0.545 NA 
ENDBRANCH  21  22
ENDBRANCH  20  21
ENDBRANCH  18  20
ENDBRANCH   7  18
ENDBRANCH   6   7
ENDBRANCH   5   6
ENDBRANCH   4   5
ENDBRANCH   3   4
ENDBRANCH   2   3
TORSDOF 10
ENDMDL
MODEL       50
REMARK 921   NORMALIZED FREE ENERGY PREDICTED BY IDOCK:   -4.92 KCAL/MOL
REMARK 922        TOTAL FREE ENERGY PREDICTED BY IDOCK:   -8.90 KCAL/MOL
REMARK 923 INTER-LIGAND FREE ENERGY PREDICTED BY IDOCK:   -8.15 KCAL/MOL
REMARK 924 INTRA-LIGAND FREE ENERGY PREDICTED BY IDOCK:   -0.75 KCAL/MOL
REMARK 927      BINDING AFFINITY PREDICTED BY RF-SCORE:    0.00 PKD
ROOT
HETATM    1  C   UNL     1      -9.306   8.836  66.627  1.00  0.00    -0.189 C  
HETATM    2  O   UNL     1     -10.232   9.751  66.051  1.00  0.00    -0.259 OA 
ENDROOT
BRANCH   2   3
HETATM    3  C   UNL     1     -10.080  11.047  66.624  1.00  0.00    -0.220 C  
BRANCH   3   4
HETATM    4  C   UNL     1     -11.369  11.844  66.455  1.00  0.00    -0.400 C  
BRANCH   4   5
HETATM    5  C   UNL     1     -11.702  12.571  67.758  1.00  0.00    -0.419 C  
BRANCH   5   6
HETATM    6  C   UNL     1     -10.476  13.229  68.394  1.00  0.00    -0.261 C  
BRANCH   6   7
HETATM    7  C   UNL     1     -10.831  14.554  69.094  1.00  0.00    -0.263 C  
BRANCH   7   8
HETATM    8  C   UNL     1     -10.502  15.868  68.427  1.00  0.00    -0.254 A  
HETATM    9  C   UNL     1     -10.326  15.896  67.033  1.00  0.00    -0.297 A  
HETATM   10  C   UNL     1     -10.421  17.081  69.124  1.00  0.00    -0.323 A  
HETATM   11  F   UNL     1      -9.986  20.719  67.129  1.00  0.00    -0.593 F  
HETATM   12  F   UNL     1      -8.772  19.713  65.632  1.00  0.00    -0.271 F  
HETATM   13  C   UNL     1     -10.232  18.290  68.444  1.00  0.00    -0.402 A  
HETATM   14  F   UNL     1     -10.931  19.823  65.390  1.00  0.00    -0.584 F  
HETATM   15  C   UNL     1     -10.099  18.321  67.051  1.00  0.00    -0.370 A  
HETATM   16  C   UNL     1      -9.949  19.628  66.313  1.00  0.00    -0.466 C  
HETATM   17  C   UNL     1     -10.131  17.105  66.353  1.00  0.00    -0.326 A  
ENDBRANCH   7   8
BRANCH   7  18
HETATM   18  N   UNL     1     -11.373  14.583  70.284  1.00  0.00    -0.431 NA 
HETATM   19  H   UNL     1     -10.868  14.404  71.152  1.00  0.00     0.000 HD 
BRANCH  18  20
HETATM   20  O   UNL     1     -12.736  14.893  70.211  1.00  0.00    -0.328 OA 
BRANCH  20  21
HETATM   21  C   UNL     1     -13.239  15.232  71.502  1.00  0.00    -0.459 C  
BRANCH  21  22
HETATM   22  C   UNL     1     -12.096  15.930  72.248  1.00  0.00    -0.503 C  
HETATM   23  H2  UNL     1     -12.659  15.347  74.135  1.00  0.00     0.000 HD 
HETATM   24  H1  UNL     1     -11.625  16.666  74.150  1.00  0.00     0.000 HD 
HETATM   25  N   UNL     1     -12.385  16.202  73.653  1.00  0.00    -0.531 NA 
ENDBRANCH  21  22
ENDBRANCH  20  21
ENDBRANCH  18  20
ENDBRANCH   7  18
ENDBRANCH   6   7
ENDBRANCH   5   6
ENDBRANCH   4   5
ENDBRANCH   3   4
ENDBRANCH   2   3
TORSDOF 10
ENDMDL
MODEL       51
REMARK 921   NORMALIZED FREE ENERGY PREDICTED BY IDOCK:   -4.91 KCAL/MOL
REMARK 922        TOTAL FREE ENERGY PREDICTED BY IDOCK:   -8.89 KCAL/MOL
REMARK 923 INTER-LIGAND FREE ENERGY PREDICTED BY IDOCK:   -8.05 KCAL/MOL
REMARK 924 INTRA-LIGAND FREE ENERGY PREDICTED BY IDOCK:   -0.84 KCAL/MOL
REMARK 927      BINDING AFFINITY PREDICTED BY RF-SCORE:    0.00 PKD
ROOT
HETATM    1  C   UNL     1     -13.370  12.425  72.223  1.00  0.00    -0.321 C  
HETATM    2  O   UNL     1     -14.143  13.602  72.434  1.00  0.00    -0.637 OA 
ENDROOT
BRANCH   2   3
HETATM    3  C   UNL     1     -13.631  14.684  71.661  1.00  0.00    -0.393 C  
BRANCH   3   4
HETATM    4  C   UNL     1     -12.306  14.285  71.021  1.00  0.00    -0.431 C  
BRANCH   4   5
HETATM    5  C   UNL     1     -11.352  15.480  71.020  1.00  0.00    -0.421 C  
BRANCH   5   6
HETATM    6  C   UNL     1     -11.129  16.052  69.619  1.00  0.00    -0.331 C  
BRANCH   6   7
HETATM    7  C   UNL     1     -10.220  15.148  68.765  1.00  0.00    -0.235 C  
BRANCH   7   8
HETATM    8  C   UNL     1     -10.748  14.548  67.484  1.00  0.00    -0.276 A  
HETATM    9  C   UNL     1     -10.026  14.743  66.295  1.00  0.00    -0.308 A  
HETATM   10  C   UNL     1     -11.899  13.750  67.431  1.00  0.00    -0.431 A  
HETATM   11  F   UNL     1     -13.003  11.746  63.943  1.00  0.00    -0.526 F  
HETATM   12  F   UNL     1     -12.221  13.408  62.781  1.00  0.00    -0.498 F  
HETATM   13  C   UNL     1     -12.281  13.118  66.241  1.00  0.00    -0.423 A  
HETATM   14  F   UNL     1     -10.918  11.756  63.334  1.00  0.00    -0.396 F  
HETATM   15  C   UNL     1     -11.536  13.279  65.068  1.00  0.00    -0.342 A  
HETATM   16  C   UNL     1     -11.917  12.556  63.799  1.00  0.00    -0.517 C  
HETATM   17  C   UNL     1     -10.411  14.116  65.103  1.00  0.00    -0.422 A  
ENDBRANCH   7   8
BRANCH   7  18
HETATM   18  N   UNL     1      -9.006  14.839  69.138  1.00  0.00    -0.349 NA 
HETATM   19  H   UNL     1      -8.658  13.885  69.234  1.00  0.00     0.000 HD 
BRANCH  18  20
HETATM   20  O   UNL     1      -8.246  15.987  69.389  1.00  0.00    -0.235 OA 
BRANCH  20  21
HETATM   21  C   UNL     1      -7.439  16.308  68.257  1.00  0.00    -0.157 C  
BRANCH  21  22
HETATM   22  C   UNL     1      -6.709  17.613  68.596  1.00  0.00    -0.217 C  
HETATM   23  H2  UNL     1      -8.077  18.297  69.967  1.00  0.00     0.000 HD 
HETATM   24  H1  UNL     1      -7.090  19.517  69.378  1.00  0.00     0.000 HD 
HETATM   25  N   UNL     1      -7.576  18.649  69.152  1.00  0.00    -0.179 NA 
ENDBRANCH  21  22
ENDBRANCH  20  21
ENDBRANCH  18  20
ENDBRANCH   7  18
ENDBRANCH   6   7
ENDBRANCH   5   6
ENDBRANCH   4   5
ENDBRANCH   3   4
ENDBRANCH   2   3
TORSDOF 10
ENDMDL
MODEL       52
REMARK 921   NORMALIZED FREE ENERGY PREDICTED BY IDOCK:   -4.91 KCAL/MOL
REMARK 922        TOTAL FREE ENERGY PREDICTED BY IDOCK:   -8.89 KCAL/MOL
REMARK 923 INTER-LIGAND FREE ENERGY PREDICTED BY IDOCK:   -8.21 KCAL/MOL
REMARK 924 INTRA-LIGAND FREE ENERGY PREDICTED BY IDOCK:   -0.68 KCAL/MOL
REMARK 927      BINDING AFFINITY PREDICTED BY RF-SCORE:    0.00 PKD
ROOT
HETATM    1  C   UNL     1      -9.672  17.936  68.668  1.00  0.00    -0.353 C  
HETATM    2  O   UNL     1     -10.590  17.489  67.676  1.00  0.00    -0.364 OA 
ENDROOT
BRANCH   2   3
HETATM    3  C   UNL     1     -10.986  16.143  67.927  1.00  0.00    -0.318 C  
BRANCH   3   4
HETATM    4  C   UNL     1     -11.412  15.991  69.384  1.00  0.00    -0.336 C  
BRANCH   4   5
HETATM    5  C   UNL     1     -11.580  14.509  69.720  1.00  0.00    -0.345 C  
BRANCH   5   6
HETATM    6  C   UNL     1     -10.729  13.603  68.828  1.00  0.00    -0.265 C  
BRANCH   6   7
HETATM    7  C   UNL     1     -11.458  12.294  68.474  1.00  0.00    -0.303 C  
BRANCH   7   8
HETATM    8  C   UNL     1     -11.399  11.121  69.423  1.00  0.00    -0.352 A  
HETATM    9  C   UNL     1     -12.302  11.071  70.499  1.00  0.00    -0.462 A  
HETATM   10  C   UNL     1     -10.522  10.041  69.252  1.00  0.00    -0.245 A  
HETATM   11  F   UNL     1     -10.766   6.631  71.644  1.00  0.00    -0.235 F  
HETATM   12  F   UNL     1     -11.360   7.889  73.314  1.00  0.00    -0.456 F  
HETATM   13  C   UNL     1     -10.588   8.921  70.090  1.00  0.00    -0.243 A  
HETATM   14  F   UNL     1     -12.868   7.073  71.975  1.00  0.00    -0.339 F  
HETATM   15  C   UNL     1     -11.517   8.855  71.134  1.00  0.00    -0.364 A  
HETATM   16  C   UNL     1     -11.624   7.627  72.004  1.00  0.00    -0.291 C  
HETATM   17  C   UNL     1     -12.364   9.954  71.342  1.00  0.00    -0.498 A  
ENDBRANCH   7   8
BRANCH   7  18
HETATM   18  N   UNL     1     -12.097  12.142  67.344  1.00  0.00    -0.515 NA 
HETATM   19  H   UNL     1     -12.727  11.366  67.137  1.00  0.00     0.000 HD 
BRANCH  18  20
HETATM   20  O   UNL     1     -11.805  13.182  66.454  1.00  0.00    -0.363 OA 
BRANCH  20  21
HETATM   21  C   UNL     1     -11.169  12.672  65.283  1.00  0.00    -0.300 C  
BRANCH  21  22
HETATM   22  C   UNL     1     -12.265  12.515  64.223  1.00  0.00    -0.452 C  
HETATM   23  H2  UNL     1     -11.701  14.115  63.065  1.00  0.00     0.000 HD 
HETATM   24  H1  UNL     1     -13.281  13.636  62.777  1.00  0.00     0.000 HD 
HETATM   25  N   UNL     1     -12.552  13.741  63.483  1.00  0.00    -0.808 NA 
ENDBRANCH  21  22
ENDBRANCH  20  21
ENDBRANCH  18  20
ENDBRANCH   7  18
ENDBRANCH   6   7
ENDBRANCH   5   6
ENDBRANCH   4   5
ENDBRANCH   3   4
ENDBRANCH   2   3
TORSDOF 10
ENDMDL
MODEL       53
REMARK 921   NORMALIZED FREE ENERGY PREDICTED BY IDOCK:   -4.90 KCAL/MOL
REMARK 922        TOTAL FREE ENERGY PREDICTED BY IDOCK:   -8.88 KCAL/MOL
REMARK 923 INTER-LIGAND FREE ENERGY PREDICTED BY IDOCK:   -7.68 KCAL/MOL
REMARK 924 INTRA-LIGAND FREE ENERGY PREDICTED BY IDOCK:   -1.20 KCAL/MOL
REMARK 927      BINDING AFFINITY PREDICTED BY RF-SCORE:    0.00 PKD
ROOT
HETATM    1  C   UNL     1      -9.743  10.637  62.888  1.00  0.00    -0.293 C  
HETATM    2  O   UNL     1     -10.216  11.920  63.287  1.00  0.00    -0.427 OA 
ENDROOT
BRANCH   2   3
HETATM    3  C   UNL     1     -11.605  11.869  63.598  1.00  0.00    -0.464 C  
BRANCH   3   4
HETATM    4  C   UNL     1     -12.108  13.263  63.960  1.00  0.00    -0.508 C  
BRANCH   4   5
HETATM    5  C   UNL     1     -12.579  13.281  65.414  1.00  0.00    -0.526 C  
BRANCH   5   6
HETATM    6  C   UNL     1     -11.554  12.669  66.371  1.00  0.00    -0.441 C  
BRANCH   6   7
HETATM    7  C   UNL     1     -10.230  13.456  66.377  1.00  0.00    -0.293 C  
BRANCH   7   8
HETATM    8  C   UNL     1     -10.241  14.941  66.653  1.00  0.00    -0.264 A  
HETATM    9  C   UNL     1     -11.050  15.433  67.690  1.00  0.00    -0.316 A  
HETATM   10  C   UNL     1      -9.433  15.854  65.960  1.00  0.00    -0.389 A  
HETATM   11  F   UNL     1      -9.177  19.854  67.116  1.00  0.00    -0.356 F  
HETATM   12  F   UNL     1     -11.267  19.780  67.708  1.00  0.00    -0.430 F  
HETATM   13  C   UNL     1      -9.390  17.203  66.333  1.00  0.00    -0.286 A  
HETATM   14  F   UNL     1      -9.711  19.255  69.135  1.00  0.00    -0.419 F  
HETATM   15  C   UNL     1     -10.165  17.683  67.394  1.00  0.00    -0.345 A  
HETATM   16  C   UNL     1     -10.079  19.125  67.830  1.00  0.00    -0.386 C  
HETATM   17  C   UNL     1     -11.012  16.784  68.059  1.00  0.00    -0.296 A  
ENDBRANCH   7   8
BRANCH   7  18
HETATM   18  N   UNL     1      -9.086  12.887  66.103  1.00  0.00    -0.449 NA 
HETATM   19  H   UNL     1      -8.728  12.738  65.159  1.00  0.00     0.000 HD 
BRANCH  18  20
HETATM   20  O   UNL     1      -8.416  12.508  67.272  1.00  0.00    -0.170 OA 
BRANCH  20  21
HETATM   21  C   UNL     1      -7.302  11.674  66.959  1.00  0.00    -0.143 C  
BRANCH  21  22
HETATM   22  C   UNL     1      -6.060  12.370  67.529  1.00  0.00    -0.148 C  
HETATM   23  H2  UNL     1      -6.937  14.204  67.826  1.00  0.00     0.000 HD 
HETATM   24  H1  UNL     1      -5.263  14.288  67.786  1.00  0.00     0.000 HD 
HETATM   25  N   UNL     1      -6.089  13.825  67.406  1.00  0.00    -0.331 NA 
ENDBRANCH  21  22
ENDBRANCH  20  21
ENDBRANCH  18  20
ENDBRANCH   7  18
ENDBRANCH   6   7
ENDBRANCH   5   6
ENDBRANCH   4   5
ENDBRANCH   3   4
ENDBRANCH   2   3
TORSDOF 10
ENDMDL
MODEL       54
REMARK 921   NORMALIZED FREE ENERGY PREDICTED BY IDOCK:   -4.90 KCAL/MOL
REMARK 922        TOTAL FREE ENERGY PREDICTED BY IDOCK:   -8.87 KCAL/MOL
REMARK 923 INTER-LIGAND FREE ENERGY PREDICTED BY IDOCK:   -7.92 KCAL/MOL
REMARK 924 INTRA-LIGAND FREE ENERGY PREDICTED BY IDOCK:   -0.95 KCAL/MOL
REMARK 927      BINDING AFFINITY PREDICTED BY RF-SCORE:    0.00 PKD
ROOT
HETATM    1  C   UNL     1     -12.242  14.556  64.486  1.00  0.00    -0.465 C  
HETATM    2  O   UNL     1     -12.492  13.721  63.360  1.00  0.00    -0.817 OA 
ENDROOT
BRANCH   2   3
HETATM    3  C   UNL     1     -12.298  12.350  63.697  1.00  0.00    -0.548 C  
BRANCH   3   4
HETATM    4  C   UNL     1     -10.827  12.098  64.015  1.00  0.00    -0.436 C  
BRANCH   4   5
HETATM    5  C   UNL     1     -10.708  10.996  65.068  1.00  0.00    -0.264 C  
BRANCH   5   6
HETATM    6  C   UNL     1      -9.895  11.435  66.288  1.00  0.00    -0.250 C  
BRANCH   6   7
HETATM    7  C   UNL     1     -10.476  10.873  67.599  1.00  0.00    -0.209 C  
BRANCH   7   8
HETATM    8  C   UNL     1     -11.256  11.778  68.523  1.00  0.00    -0.306 A  
HETATM    9  C   UNL     1     -11.594  11.312  69.804  1.00  0.00    -0.408 A  
HETATM   10  C   UNL     1     -11.612  13.091  68.186  1.00  0.00    -0.379 A  
HETATM   11  F   UNL     1     -13.338  15.666  70.978  1.00  0.00    -0.511 F  
HETATM   12  F   UNL     1     -14.364  13.965  71.860  1.00  0.00    -0.484 F  
HETATM   13  C   UNL     1     -12.230  13.930  69.121  1.00  0.00    -0.305 A  
HETATM   14  F   UNL     1     -12.379  14.521  72.556  1.00  0.00    -0.379 F  
HETATM   15  C   UNL     1     -12.527  13.478  70.411  1.00  0.00    -0.345 A  
HETATM   16  C   UNL     1     -13.145  14.398  71.436  1.00  0.00    -0.346 C  
HETATM   17  C   UNL     1     -12.218  12.149  70.738  1.00  0.00    -0.367 A  
ENDBRANCH   7   8
BRANCH   7  18
HETATM   18  N   UNL     1     -10.275   9.636  67.970  1.00  0.00    -0.182 NA 
HETATM   19  H   UNL     1     -10.934   9.086  68.522  1.00  0.00     0.000 HD 
BRANCH  18  20
HETATM   20  O   UNL     1      -9.040   9.165  67.512  1.00  0.00    -0.125 OA 
BRANCH  20  21
HETATM   21  C   UNL     1      -9.113   7.768  67.230  1.00  0.00    -0.131 C  
BRANCH  21  22
HETATM   22  C   UNL     1     -10.591   7.450  66.976  1.00  0.00    -0.344 C  
HETATM   23  H2  UNL     1     -10.989   6.683  68.840  1.00  0.00     0.000 HD 
HETATM   24  H1  UNL     1     -12.121   6.216  67.696  1.00  0.00     0.000 HD 
HETATM   25  N   UNL     1     -11.138   6.428  67.865  1.00  0.00    -0.318 NA 
ENDBRANCH  21  22
ENDBRANCH  20  21
ENDBRANCH  18  20
ENDBRANCH   7  18
ENDBRANCH   6   7
ENDBRANCH   5   6
ENDBRANCH   4   5
ENDBRANCH   3   4
ENDBRANCH   2   3
TORSDOF 10
ENDMDL
MODEL       55
REMARK 921   NORMALIZED FREE ENERGY PREDICTED BY IDOCK:   -4.88 KCAL/MOL
REMARK 922        TOTAL FREE ENERGY PREDICTED BY IDOCK:   -8.84 KCAL/MOL
REMARK 923 INTER-LIGAND FREE ENERGY PREDICTED BY IDOCK:   -7.69 KCAL/MOL
REMARK 924 INTRA-LIGAND FREE ENERGY PREDICTED BY IDOCK:   -1.15 KCAL/MOL
REMARK 927      BINDING AFFINITY PREDICTED BY RF-SCORE:    0.00 PKD
ROOT
HETATM    1  C   UNL     1     -10.017  11.569  63.157  1.00  0.00    -0.377 C  
HETATM    2  O   UNL     1     -10.589  12.735  63.738  1.00  0.00    -0.412 OA 
ENDROOT
BRANCH   2   3
HETATM    3  C   UNL     1     -12.011  12.636  63.768  1.00  0.00    -0.510 C  
BRANCH   3   4
HETATM    4  C   UNL     1     -12.542  13.197  65.083  1.00  0.00    -0.525 C  
BRANCH   4   5
HETATM    5  C   UNL     1     -11.842  12.513  66.258  1.00  0.00    -0.453 C  
BRANCH   5   6
HETATM    6  C   UNL     1     -12.002  13.286  67.568  1.00  0.00    -0.371 C  
BRANCH   6   7
HETATM    7  C   UNL     1     -10.694  13.984  67.988  1.00  0.00    -0.246 C  
BRANCH   7   8
HETATM    8  C   UNL     1     -10.464  15.430  67.620  1.00  0.00    -0.272 A  
HETATM    9  C   UNL     1     -10.168  15.752  66.285  1.00  0.00    -0.317 A  
HETATM   10  C   UNL     1     -10.589  16.482  68.537  1.00  0.00    -0.318 A  
HETATM   11  F   UNL     1     -10.408  20.469  67.321  1.00  0.00    -0.526 F  
HETATM   12  F   UNL     1      -8.955  19.904  65.806  1.00  0.00    -0.370 F  
HETATM   13  C   UNL     1     -10.483  17.815  68.121  1.00  0.00    -0.382 A  
HETATM   14  F   UNL     1     -11.082  19.848  65.351  1.00  0.00    -0.529 F  
HETATM   15  C   UNL     1     -10.231  18.135  66.782  1.00  0.00    -0.379 A  
HETATM   16  C   UNL     1     -10.170  19.571  66.324  1.00  0.00    -0.488 C  
HETATM   17  C   UNL     1     -10.056  17.085  65.869  1.00  0.00    -0.281 A  
ENDBRANCH   7   8
BRANCH   7  18
HETATM   18  N   UNL     1      -9.743  13.347  68.619  1.00  0.00    -0.390 NA 
HETATM   19  H   UNL     1      -9.750  13.144  69.619  1.00  0.00     0.000 HD 
BRANCH  18  20
HETATM   20  O   UNL     1      -8.713  12.982  67.745  1.00  0.00    -0.166 OA 
BRANCH  20  21
HETATM   21  C   UNL     1      -7.650  12.355  68.462  1.00  0.00    -0.122 C  
BRANCH  21  22
HETATM   22  C   UNL     1      -7.863  10.843  68.324  1.00  0.00    -0.118 C  
HETATM   23  H2  UNL     1      -9.336  10.944  66.896  1.00  0.00     0.000 HD 
HETATM   24  H1  UNL     1      -9.312   9.470  67.694  1.00  0.00     0.000 HD 
HETATM   25  N   UNL     1      -9.170  10.476  67.786  1.00  0.00    -0.145 NA 
ENDBRANCH  21  22
ENDBRANCH  20  21
ENDBRANCH  18  20
ENDBRANCH   7  18
ENDBRANCH   6   7
ENDBRANCH   5   6
ENDBRANCH   4   5
ENDBRANCH   3   4
ENDBRANCH   2   3
TORSDOF 10
ENDMDL
MODEL       56
REMARK 921   NORMALIZED FREE ENERGY PREDICTED BY IDOCK:   -4.85 KCAL/MOL
REMARK 922        TOTAL FREE ENERGY PREDICTED BY IDOCK:   -8.79 KCAL/MOL
REMARK 923 INTER-LIGAND FREE ENERGY PREDICTED BY IDOCK:   -7.86 KCAL/MOL
REMARK 924 INTRA-LIGAND FREE ENERGY PREDICTED BY IDOCK:   -0.93 KCAL/MOL
REMARK 927      BINDING AFFINITY PREDICTED BY RF-SCORE:    0.00 PKD
ROOT
HETATM    1  C   UNL     1      -8.713   9.889  69.621  1.00  0.00    -0.204 C  
HETATM    2  O   UNL     1      -9.633   8.964  69.050  1.00  0.00    -0.155 OA 
ENDROOT
BRANCH   2   3
HETATM    3  C   UNL     1     -10.804   9.637  68.596  1.00  0.00    -0.167 C  
BRANCH   3   4
HETATM    4  C   UNL     1     -11.192  10.730  69.587  1.00  0.00    -0.355 C  
BRANCH   4   5
HETATM    5  C   UNL     1     -11.803  11.914  68.837  1.00  0.00    -0.366 C  
BRANCH   5   6
HETATM    6  C   UNL     1     -11.096  12.198  67.510  1.00  0.00    -0.328 C  
BRANCH   6   7
HETATM    7  C   UNL     1     -11.747  13.369  66.750  1.00  0.00    -0.385 C  
BRANCH   7   8
HETATM    8  C   UNL     1     -11.252  14.778  66.975  1.00  0.00    -0.347 A  
HETATM    9  C   UNL     1     -10.674  15.474  65.900  1.00  0.00    -0.346 A  
HETATM   10  C   UNL     1     -11.393  15.453  68.195  1.00  0.00    -0.353 A  
HETATM   11  F   UNL     1     -10.433  19.495  68.575  1.00  0.00    -0.470 F  
HETATM   12  F   UNL     1      -8.821  19.210  67.145  1.00  0.00    -0.282 F  
HETATM   13  C   UNL     1     -11.026  16.798  68.319  1.00  0.00    -0.327 A  
HETATM   14  F   UNL     1     -10.815  19.736  66.450  1.00  0.00    -0.540 F  
HETATM   15  C   UNL     1     -10.490  17.503  67.235  1.00  0.00    -0.327 A  
HETATM   16  C   UNL     1     -10.145  18.967  67.353  1.00  0.00    -0.361 C  
HETATM   17  C   UNL     1     -10.301  16.818  66.025  1.00  0.00    -0.346 A  
ENDBRANCH   7   8
BRANCH   7  18
HETATM   18  N   UNL     1     -12.759  13.192  65.941  1.00  0.00    -0.389 NA 
HETATM   19  H   UNL     1     -13.612  13.751  65.955  1.00  0.00     0.000 HD 
BRANCH  18  20
HETATM   20  O   UNL     1     -12.518  12.135  65.055  1.00  0.00    -0.490 OA 
BRANCH  20  21
HETATM   21  C   UNL     1     -12.136  12.636  63.775  1.00  0.00    -0.522 C  
BRANCH  21  22
HETATM   22  C   UNL     1     -10.752  12.051  63.472  1.00  0.00    -0.455 C  
HETATM   23  H2  UNL     1     -11.178  10.128  64.055  1.00  0.00     0.000 HD 
HETATM   24  H1  UNL     1      -9.531  10.437  64.008  1.00  0.00     0.000 HD 
HETATM   25  N   UNL     1     -10.452  10.827  64.210  1.00  0.00    -0.341 NA 
ENDBRANCH  21  22
ENDBRANCH  20  21
ENDBRANCH  18  20
ENDBRANCH   7  18
ENDBRANCH   6   7
ENDBRANCH   5   6
ENDBRANCH   4   5
ENDBRANCH   3   4
ENDBRANCH   2   3
TORSDOF 10
ENDMDL
MODEL       57
REMARK 921   NORMALIZED FREE ENERGY PREDICTED BY IDOCK:   -4.83 KCAL/MOL
REMARK 922        TOTAL FREE ENERGY PREDICTED BY IDOCK:   -8.77 KCAL/MOL
REMARK 923 INTER-LIGAND FREE ENERGY PREDICTED BY IDOCK:   -7.40 KCAL/MOL
REMARK 924 INTRA-LIGAND FREE ENERGY PREDICTED BY IDOCK:   -1.37 KCAL/MOL
REMARK 927      BINDING AFFINITY PREDICTED BY RF-SCORE:    0.00 PKD
ROOT
HETATM    1  C   UNL     1     -12.256  14.921  64.356  1.00  0.00    -0.381 C  
HETATM    2  O   UNL     1     -12.628  13.914  63.421  1.00  0.00    -0.853 OA 
ENDROOT
BRANCH   2   3
HETATM    3  C   UNL     1     -12.261  12.623  63.900  1.00  0.00    -0.481 C  
BRANCH   3   4
HETATM    4  C   UNL     1     -12.280  12.611  65.425  1.00  0.00    -0.517 C  
BRANCH   4   5
HETATM    5  C   UNL     1     -11.123  11.759  65.949  1.00  0.00    -0.355 C  
BRANCH   5   6
HETATM    6  C   UNL     1      -9.791  12.510  65.946  1.00  0.00    -0.257 C  
BRANCH   6   7
HETATM    7  C   UNL     1      -9.590  13.332  67.233  1.00  0.00    -0.234 C  
BRANCH   7   8
HETATM    8  C   UNL     1      -9.784  14.829  67.206  1.00  0.00    -0.230 A  
HETATM    9  C   UNL     1     -10.678  15.415  68.118  1.00  0.00    -0.271 A  
HETATM   10  C   UNL     1      -9.069  15.678  66.350  1.00  0.00    -0.355 A  
HETATM   11  F   UNL     1      -9.321  19.829  66.683  1.00  0.00    -0.352 F  
HETATM   12  F   UNL     1     -11.405  19.620  67.264  1.00  0.00    -0.524 F  
HETATM   13  C   UNL     1      -9.196  17.069  66.445  1.00  0.00    -0.298 A  
HETATM   14  F   UNL     1      -9.843  19.581  68.778  1.00  0.00    -0.417 F  
HETATM   15  C   UNL     1     -10.055  17.652  67.384  1.00  0.00    -0.331 A  
HETATM   16  C   UNL     1     -10.153  19.151  67.523  1.00  0.00    -0.376 C  
HETATM   17  C   UNL     1     -10.810  16.806  68.209  1.00  0.00    -0.366 A  
ENDBRANCH   7   8
BRANCH   7  18
HETATM   18  N   UNL     1      -9.207  12.779  68.354  1.00  0.00    -0.327 NA 
HETATM   19  H   UNL     1      -9.807  12.209  68.950  1.00  0.00     0.000 HD 
BRANCH  18  20
HETATM   20  O   UNL     1      -7.866  13.071  68.629  1.00  0.00    -0.124 OA 
BRANCH  20  21
HETATM   21  C   UNL     1      -7.078  11.882  68.584  1.00  0.00    -0.102 C  
BRANCH  21  22
HETATM   22  C   UNL     1      -7.948  10.759  69.161  1.00  0.00    -0.134 C  
HETATM   23  H2  UNL     1      -7.666   9.430  67.620  1.00  0.00     0.000 HD 
HETATM   24  H1  UNL     1      -9.018   9.070  68.543  1.00  0.00     0.000 HD 
HETATM   25  N   UNL     1      -8.440   9.817  68.159  1.00  0.00    -0.114 NA 
ENDBRANCH  21  22
ENDBRANCH  20  21
ENDBRANCH  18  20
ENDBRANCH   7  18
ENDBRANCH   6   7
ENDBRANCH   5   6
ENDBRANCH   4   5
ENDBRANCH   3   4
ENDBRANCH   2   3
TORSDOF 10
ENDMDL
MODEL       58
REMARK 921   NORMALIZED FREE ENERGY PREDICTED BY IDOCK:   -4.83 KCAL/MOL
REMARK 922        TOTAL FREE ENERGY PREDICTED BY IDOCK:   -8.76 KCAL/MOL
REMARK 923 INTER-LIGAND FREE ENERGY PREDICTED BY IDOCK:   -8.11 KCAL/MOL
REMARK 924 INTRA-LIGAND FREE ENERGY PREDICTED BY IDOCK:   -0.65 KCAL/MOL
REMARK 927      BINDING AFFINITY PREDICTED BY RF-SCORE:    0.00 PKD
ROOT
HETATM    1  C   UNL     1      -9.595  10.667  63.860  1.00  0.00    -0.306 C  
HETATM    2  O   UNL     1     -10.382  11.687  63.255  1.00  0.00    -0.390 OA 
ENDROOT
BRANCH   2   3
HETATM    3  C   UNL     1     -11.582  11.901  63.994  1.00  0.00    -0.389 C  
BRANCH   3   4
HETATM    4  C   UNL     1     -12.172  13.263  63.643  1.00  0.00    -0.522 C  
BRANCH   4   5
HETATM    5  C   UNL     1     -12.271  14.123  64.904  1.00  0.00    -0.451 C  
BRANCH   5   6
HETATM    6  C   UNL     1     -12.188  13.295  66.188  1.00  0.00    -0.466 C  
BRANCH   6   7
HETATM    7  C   UNL     1     -11.070  13.794  67.123  1.00  0.00    -0.302 C  
BRANCH   7   8
HETATM    8  C   UNL     1     -11.423  14.379  68.470  1.00  0.00    -0.326 A  
HETATM    9  C   UNL     1     -12.006  13.546  69.439  1.00  0.00    -0.383 A  
HETATM   10  C   UNL     1     -11.143  15.705  68.825  1.00  0.00    -0.307 A  
HETATM   11  F   UNL     1     -11.715  17.087  72.720  1.00  0.00    -0.560 F  
HETATM   12  F   UNL     1     -13.436  15.770  72.897  1.00  0.00    -0.494 F  
HETATM   13  C   UNL     1     -11.381  16.166  70.126  1.00  0.00    -0.347 A  
HETATM   14  F   UNL     1     -11.454  15.050  73.429  1.00  0.00    -0.450 F  
HETATM   15  C   UNL     1     -11.922  15.323  71.102  1.00  0.00    -0.400 A  
HETATM   16  C   UNL     1     -12.128  15.804  72.518  1.00  0.00    -0.489 C  
HETATM   17  C   UNL     1     -12.250  14.009  70.739  1.00  0.00    -0.438 A  
ENDBRANCH   7   8
BRANCH   7  18
HETATM   18  N   UNL     1      -9.812  13.773  66.769  1.00  0.00    -0.267 NA 
HETATM   19  H   UNL     1      -9.217  12.945  66.802  1.00  0.00     0.000 HD 
BRANCH  18  20
HETATM   20  O   UNL     1      -9.386  15.036  66.340  1.00  0.00    -0.267 OA 
BRANCH  20  21
HETATM   21  C   UNL     1      -8.053  15.289  66.783  1.00  0.00    -0.131 C  
BRANCH  21  22
HETATM   22  C   UNL     1      -7.724  14.209  67.820  1.00  0.00    -0.168 C  
HETATM   23  H2  UNL     1      -5.711  14.111  67.423  1.00  0.00     0.000 HD 
HETATM   24  H1  UNL     1      -6.277  12.752  68.226  1.00  0.00     0.000 HD 
HETATM   25  N   UNL     1      -6.496  13.471  67.536  1.00  0.00    -0.256 NA 
ENDBRANCH  21  22
ENDBRANCH  20  21
ENDBRANCH  18  20
ENDBRANCH   7  18
ENDBRANCH   6   7
ENDBRANCH   5   6
ENDBRANCH   4   5
ENDBRANCH   3   4
ENDBRANCH   2   3
TORSDOF 10
ENDMDL
MODEL       59
REMARK 921   NORMALIZED FREE ENERGY PREDICTED BY IDOCK:   -4.80 KCAL/MOL
REMARK 922        TOTAL FREE ENERGY PREDICTED BY IDOCK:   -8.71 KCAL/MOL
REMARK 923 INTER-LIGAND FREE ENERGY PREDICTED BY IDOCK:   -7.69 KCAL/MOL
REMARK 924 INTRA-LIGAND FREE ENERGY PREDICTED BY IDOCK:   -1.03 KCAL/MOL
REMARK 927      BINDING AFFINITY PREDICTED BY RF-SCORE:    0.00 PKD
ROOT
HETATM    1  C   UNL     1     -12.307  15.465  74.322  1.00  0.00    -0.664 C  
HETATM    2  O   UNL     1     -12.553  14.946  73.019  1.00  0.00    -0.387 OA 
ENDROOT
BRANCH   2   3
HETATM    3  C   UNL     1     -12.077  15.845  72.021  1.00  0.00    -0.506 C  
BRANCH   3   4
HETATM    4  C   UNL     1     -12.713  15.510  70.675  1.00  0.00    -0.487 C  
BRANCH   4   5
HETATM    5  C   UNL     1     -11.757  14.644  69.854  1.00  0.00    -0.349 C  
BRANCH   5   6
HETATM    6  C   UNL     1     -10.365  15.265  69.724  1.00  0.00    -0.266 C  
BRANCH   6   7
HETATM    7  C   UNL     1     -10.032  15.631  68.265  1.00  0.00    -0.213 C  
BRANCH   7   8
HETATM    8  C   UNL     1     -10.030  14.556  67.204  1.00  0.00    -0.252 A  
HETATM    9  C   UNL     1      -9.182  13.447  67.362  1.00  0.00    -0.213 A  
HETATM   10  C   UNL     1     -10.881  14.579  66.091  1.00  0.00    -0.317 A  
HETATM   11  F   UNL     1     -11.143  11.337  63.479  1.00  0.00    -0.449 F  
HETATM   12  F   UNL     1      -9.028  10.953  63.798  1.00  0.00    -0.179 F  
HETATM   13  C   UNL     1     -10.927  13.501  65.199  1.00  0.00    -0.328 A  
HETATM   14  F   UNL     1     -10.510  10.039  65.102  1.00  0.00    -0.355 F  
HETATM   15  C   UNL     1     -10.112  12.379  65.381  1.00  0.00    -0.289 A  
HETATM   16  C   UNL     1     -10.199  11.194  64.450  1.00  0.00    -0.330 C  
HETATM   17  C   UNL     1      -9.223  12.371  66.466  1.00  0.00    -0.215 A  
ENDBRANCH   7   8
BRANCH   7  18
HETATM   18  N   UNL     1      -9.699  16.845  67.915  1.00  0.00    -0.249 NA 
HETATM   19  H   UNL     1      -8.813  17.096  67.475  1.00  0.00     0.000 HD 
BRANCH  18  20
HETATM   20  O   UNL     1     -10.716  17.757  68.224  1.00  0.00    -0.343 OA 
BRANCH  20  21
HETATM   21  C   UNL     1     -10.173  19.062  68.414  1.00  0.00    -0.377 C  
BRANCH  21  22
HETATM   22  C   UNL     1     -10.536  19.873  67.165  1.00  0.00    -0.433 C  
HETATM   23  H2  UNL     1     -10.525  18.294  65.851  1.00  0.00     0.000 HD 
HETATM   24  H1  UNL     1     -10.383  19.776  65.079  1.00  0.00     0.000 HD 
HETATM   25  N   UNL     1     -10.141  19.237  65.911  1.00  0.00    -0.483 NA 
ENDBRANCH  21  22
ENDBRANCH  20  21
ENDBRANCH  18  20
ENDBRANCH   7  18
ENDBRANCH   6   7
ENDBRANCH   5   6
ENDBRANCH   4   5
ENDBRANCH   3   4
ENDBRANCH   2   3
TORSDOF 10
ENDMDL
MODEL       60
REMARK 921   NORMALIZED FREE ENERGY PREDICTED BY IDOCK:   -4.79 KCAL/MOL
REMARK 922        TOTAL FREE ENERGY PREDICTED BY IDOCK:   -8.70 KCAL/MOL
REMARK 923 INTER-LIGAND FREE ENERGY PREDICTED BY IDOCK:   -7.26 KCAL/MOL
REMARK 924 INTRA-LIGAND FREE ENERGY PREDICTED BY IDOCK:   -1.45 KCAL/MOL
REMARK 927      BINDING AFFINITY PREDICTED BY RF-SCORE:    0.00 PKD
ROOT
HETATM    1  C   UNL     1     -11.775   6.466  72.052  1.00  0.00    -0.329 C  
HETATM    2  O   UNL     1     -12.606   6.968  71.010  1.00  0.00    -0.375 OA 
ENDROOT
BRANCH   2   3
HETATM    3  C   UNL     1     -13.675   7.741  71.548  1.00  0.00    -0.346 C  
BRANCH   3   4
HETATM    4  C   UNL     1     -13.142   9.068  72.079  1.00  0.00    -0.474 C  
BRANCH   4   5
HETATM    5  C   UNL     1     -13.286  10.148  71.007  1.00  0.00    -0.412 C  
BRANCH   5   6
HETATM    6  C   UNL     1     -11.965  10.861  70.710  1.00  0.00    -0.449 C  
BRANCH   6   7
HETATM    7  C   UNL     1     -11.195  10.189  69.558  1.00  0.00    -0.238 C  
BRANCH   7   8
HETATM    8  C   UNL     1     -11.165  10.839  68.195  1.00  0.00    -0.365 A  
HETATM    9  C   UNL     1     -11.780  12.091  68.027  1.00  0.00    -0.398 A  
HETATM   10  C   UNL     1     -10.500  10.281  67.095  1.00  0.00    -0.311 A  
HETATM   11  F   UNL     1     -10.065  12.377  63.514  1.00  0.00    -0.395 F  
HETATM   12  F   UNL     1     -12.016  13.278  63.846  1.00  0.00    -0.424 F  
HETATM   13  C   UNL     1     -10.399  10.979  65.885  1.00  0.00    -0.315 A  
HETATM   14  F   UNL     1     -10.227  14.231  64.636  1.00  0.00    -0.441 F  
HETATM   15  C   UNL     1     -10.975  12.245  65.733  1.00  0.00    -0.338 A  
HETATM   16  C   UNL     1     -10.822  13.020  64.448  1.00  0.00    -0.388 C  
HETATM   17  C   UNL     1     -11.685  12.787  66.815  1.00  0.00    -0.459 A  
ENDBRANCH   7   8
BRANCH   7  18
HETATM   18  N   UNL     1     -10.597   9.036  69.705  1.00  0.00    -0.225 NA 
HETATM   19  H   UNL     1     -10.868   8.180  69.220  1.00  0.00     0.000 HD 
BRANCH  18  20
HETATM   20  O   UNL     1      -9.537   9.129  70.615  1.00  0.00    -0.214 OA 
BRANCH  20  21
HETATM   21  C   UNL     1      -8.736   7.949  70.569  1.00  0.00    -0.136 C  
BRANCH  21  22
HETATM   22  C   UNL     1      -8.403   7.705  69.092  1.00  0.00    -0.131 C  
HETATM   23  H2  UNL     1      -6.773   8.954  69.011  1.00  0.00     0.000 HD 
HETATM   24  H1  UNL     1      -7.401   8.614  67.495  1.00  0.00     0.000 HD 
HETATM   25  N   UNL     1      -7.623   8.776  68.477  1.00  0.00    -0.096 NA 
ENDBRANCH  21  22
ENDBRANCH  20  21
ENDBRANCH  18  20
ENDBRANCH   7  18
ENDBRANCH   6   7
ENDBRANCH   5   6
ENDBRANCH   4   5
ENDBRANCH   3   4
ENDBRANCH   2   3
TORSDOF 10
ENDMDL
MODEL       61
REMARK 921   NORMALIZED FREE ENERGY PREDICTED BY IDOCK:   -4.79 KCAL/MOL
REMARK 922        TOTAL FREE ENERGY PREDICTED BY IDOCK:   -8.70 KCAL/MOL
REMARK 923 INTER-LIGAND FREE ENERGY PREDICTED BY IDOCK:   -7.43 KCAL/MOL
REMARK 924 INTRA-LIGAND FREE ENERGY PREDICTED BY IDOCK:   -1.26 KCAL/MOL
REMARK 927      BINDING AFFINITY PREDICTED BY RF-SCORE:    0.00 PKD
ROOT
HETATM    1  C   UNL     1      -9.073  10.393  64.237  1.00  0.00    -0.238 C  
HETATM    2  O   UNL     1     -10.433  10.788  64.089  1.00  0.00    -0.364 OA 
ENDROOT
BRANCH   2   3
HETATM    3  C   UNL     1     -10.518  12.092  63.521  1.00  0.00    -0.464 C  
BRANCH   3   4
HETATM    4  C   UNL     1     -11.972  12.553  63.497  1.00  0.00    -0.629 C  
BRANCH   4   5
HETATM    5  C   UNL     1     -12.164  13.707  64.482  1.00  0.00    -0.444 C  
BRANCH   5   6
HETATM    6  C   UNL     1     -10.837  14.266  64.999  1.00  0.00    -0.414 C  
BRANCH   6   7
HETATM    7  C   UNL     1     -10.868  14.509  66.520  1.00  0.00    -0.314 C  
BRANCH   7   8
HETATM    8  C   UNL     1     -11.008  13.339  67.464  1.00  0.00    -0.281 A  
HETATM    9  C   UNL     1     -10.193  12.210  67.272  1.00  0.00    -0.216 A  
HETATM   10  C   UNL     1     -11.874  13.344  68.566  1.00  0.00    -0.401 A  
HETATM   11  F   UNL     1     -11.836  10.268  71.385  1.00  0.00    -0.413 F  
HETATM   12  F   UNL     1     -11.370   8.863  69.793  1.00  0.00    -0.203 F  
HETATM   13  C   UNL     1     -11.880  12.283  69.481  1.00  0.00    -0.380 A  
HETATM   14  F   UNL     1      -9.765   9.875  70.857  1.00  0.00    -0.275 F  
HETATM   15  C   UNL     1     -11.037  11.180  69.311  1.00  0.00    -0.318 A  
HETATM   16  C   UNL     1     -11.005  10.062  70.325  1.00  0.00    -0.316 C  
HETATM   17  C   UNL     1     -10.204  11.146  68.183  1.00  0.00    -0.198 A  
ENDBRANCH   7   8
BRANCH   7  18
HETATM   18  N   UNL     1     -10.825  15.712  67.029  1.00  0.00    -0.315 NA 
HETATM   19  H   UNL     1     -11.554  16.415  66.908  1.00  0.00     0.000 HD 
BRANCH  18  20
HETATM   20  O   UNL     1      -9.649  15.909  67.761  1.00  0.00    -0.216 OA 
BRANCH  20  21
HETATM   21  C   UNL     1      -9.674  17.178  68.412  1.00  0.00    -0.284 C  
BRANCH  21  22
HETATM   22  C   UNL     1      -9.656  18.238  67.305  1.00  0.00    -0.281 C  
HETATM   23  H2  UNL     1     -11.122  19.435  68.105  1.00  0.00     0.000 HD 
HETATM   24  H1  UNL     1     -10.880  19.717  66.470  1.00  0.00     0.000 HD 
HETATM   25  N   UNL     1     -10.891  19.011  67.206  1.00  0.00    -0.468 NA 
ENDBRANCH  21  22
ENDBRANCH  20  21
ENDBRANCH  18  20
ENDBRANCH   7  18
ENDBRANCH   6   7
ENDBRANCH   5   6
ENDBRANCH   4   5
ENDBRANCH   3   4
ENDBRANCH   2   3
TORSDOF 10
ENDMDL
MODEL       62
REMARK 921   NORMALIZED FREE ENERGY PREDICTED BY IDOCK:   -4.78 KCAL/MOL
REMARK 922        TOTAL FREE ENERGY PREDICTED BY IDOCK:   -8.69 KCAL/MOL
REMARK 923 INTER-LIGAND FREE ENERGY PREDICTED BY IDOCK:   -7.59 KCAL/MOL
REMARK 924 INTRA-LIGAND FREE ENERGY PREDICTED BY IDOCK:   -1.10 KCAL/MOL
REMARK 927      BINDING AFFINITY PREDICTED BY RF-SCORE:    0.00 PKD
ROOT
HETATM    1  C   UNL     1     -12.481  12.257  63.520  1.00  0.00    -0.534 C  
HETATM    2  O   UNL     1     -12.936  12.935  64.686  1.00  0.00    -0.734 OA 
ENDROOT
BRANCH   2   3
HETATM    3  C   UNL     1     -12.457  14.276  64.708  1.00  0.00    -0.374 C  
BRANCH   3   4
HETATM    4  C   UNL     1     -11.396  14.431  65.792  1.00  0.00    -0.330 C  
BRANCH   4   5
HETATM    5  C   UNL     1     -11.946  13.930  67.128  1.00  0.00    -0.455 C  
BRANCH   5   6
HETATM    6  C   UNL     1     -10.840  13.603  68.133  1.00  0.00    -0.262 C  
BRANCH   6   7
HETATM    7  C   UNL     1     -10.457  12.111  68.103  1.00  0.00    -0.211 C  
BRANCH   7   8
HETATM    8  C   UNL     1     -11.062  11.160  69.108  1.00  0.00    -0.306 A  
HETATM    9  C   UNL     1     -10.463   9.904  69.301  1.00  0.00    -0.240 A  
HETATM   10  C   UNL     1     -12.165  11.492  69.908  1.00  0.00    -0.328 A  
HETATM   11  F   UNL     1     -13.460   8.990  72.984  1.00  0.00    -0.465 F  
HETATM   12  F   UNL     1     -12.884   7.272  71.783  1.00  0.00    -0.336 F  
HETATM   13  C   UNL     1     -12.615  10.622  70.909  1.00  0.00    -0.503 A  
HETATM   14  F   UNL     1     -11.442   8.196  73.124  1.00  0.00    -0.440 F  
HETATM   15  C   UNL     1     -11.990   9.390  71.127  1.00  0.00    -0.413 A  
HETATM   16  C   UNL     1     -12.441   8.476  72.240  1.00  0.00    -0.387 C  
HETATM   17  C   UNL     1     -10.917   9.031  70.298  1.00  0.00    -0.274 A  
ENDBRANCH   7   8
BRANCH   7  18
HETATM   18  N   UNL     1      -9.579  11.639  67.258  1.00  0.00    -0.173 NA 
HETATM   19  H   UNL     1      -8.570  11.646  67.411  1.00  0.00     0.000 HD 
BRANCH  18  20
HETATM   20  O   UNL     1     -10.203  11.125  66.115  1.00  0.00    -0.229 OA 
BRANCH  20  21
HETATM   21  C   UNL     1      -9.284  11.077  65.025  1.00  0.00    -0.197 C  
BRANCH  21  22
HETATM   22  C   UNL     1      -9.035   9.594  64.728  1.00  0.00    -0.225 C  
HETATM   23  H2  UNL     1     -10.524   8.860  65.937  1.00  0.00     0.000 HD 
HETATM   24  H1  UNL     1      -9.369   7.704  65.564  1.00  0.00     0.000 HD 
HETATM   25  N   UNL     1      -9.534   8.691  65.761  1.00  0.00    -0.174 NA 
ENDBRANCH  21  22
ENDBRANCH  20  21
ENDBRANCH  18  20
ENDBRANCH   7  18
ENDBRANCH   6   7
ENDBRANCH   5   6
ENDBRANCH   4   5
ENDBRANCH   3   4
ENDBRANCH   2   3
TORSDOF 10
ENDMDL
MODEL       63
REMARK 921   NORMALIZED FREE ENERGY PREDICTED BY IDOCK:   -4.76 KCAL/MOL
REMARK 922        TOTAL FREE ENERGY PREDICTED BY IDOCK:   -8.64 KCAL/MOL
REMARK 923 INTER-LIGAND FREE ENERGY PREDICTED BY IDOCK:   -7.65 KCAL/MOL
REMARK 924 INTRA-LIGAND FREE ENERGY PREDICTED BY IDOCK:   -0.99 KCAL/MOL
REMARK 927      BINDING AFFINITY PREDICTED BY RF-SCORE:    0.00 PKD
ROOT
HETATM    1  C   UNL     1      -8.091  17.848  66.260  1.00  0.00    -0.231 C  
HETATM    2  O   UNL     1      -9.402  17.749  65.712  1.00  0.00    -0.512 OA 
ENDROOT
BRANCH   2   3
HETATM    3  C   UNL     1     -10.284  17.112  66.632  1.00  0.00    -0.319 C  
BRANCH   3   4
HETATM    4  C   UNL     1     -10.082  17.689  68.029  1.00  0.00    -0.343 C  
BRANCH   4   5
HETATM    5  C   UNL     1     -10.102  16.561  69.061  1.00  0.00    -0.279 C  
BRANCH   5   6
HETATM    6  C   UNL     1     -11.465  15.872  69.153  1.00  0.00    -0.377 C  
BRANCH   6   7
HETATM    7  C   UNL     1     -11.351  14.345  68.988  1.00  0.00    -0.269 C  
BRANCH   7   8
HETATM    8  C   UNL     1     -11.252  13.745  67.606  1.00  0.00    -0.316 A  
HETATM    9  C   UNL     1     -10.057  13.113  67.223  1.00  0.00    -0.233 A  
HETATM   10  C   UNL     1     -12.321  13.733  66.699  1.00  0.00    -0.403 A  
HETATM   11  F   UNL     1     -12.106  11.631  63.101  1.00  0.00    -0.536 F  
HETATM   12  F   UNL     1      -9.989  12.111  62.988  1.00  0.00    -0.404 F  
HETATM   13  C   UNL     1     -12.219  13.058  65.476  1.00  0.00    -0.521 A  
HETATM   14  F   UNL     1     -10.644  10.309  64.017  1.00  0.00    -0.246 F  
HETATM   15  C   UNL     1     -11.042  12.394  65.115  1.00  0.00    -0.348 A  
HETATM   16  C   UNL     1     -10.949  11.622  63.821  1.00  0.00    -0.422 C  
HETATM   17  C   UNL     1      -9.952  12.444  65.997  1.00  0.00    -0.270 A  
ENDBRANCH   7   8
BRANCH   7  18
HETATM   18  N   UNL     1     -11.383  13.534  70.013  1.00  0.00    -0.490 NA 
HETATM   19  H   UNL     1     -10.754  13.593  70.814  1.00  0.00     0.000 HD 
BRANCH  18  20
HETATM   20  O   UNL     1     -12.393  12.576  69.867  1.00  0.00    -0.178 OA 
BRANCH  20  21
HETATM   21  C   UNL     1     -12.130  11.447  70.699  1.00  0.00    -0.372 C  
BRANCH  21  22
HETATM   22  C   UNL     1     -11.039  10.630  69.996  1.00  0.00    -0.289 C  
HETATM   23  H2  UNL     1     -11.315   8.900  71.069  1.00  0.00     0.000 HD 
HETATM   24  H1  UNL     1      -9.819   8.960  70.315  1.00  0.00     0.000 HD 
HETATM   25  N   UNL     1     -10.544   9.503  70.782  1.00  0.00    -0.295 NA 
ENDBRANCH  21  22
ENDBRANCH  20  21
ENDBRANCH  18  20
ENDBRANCH   7  18
ENDBRANCH   6   7
ENDBRANCH   5   6
ENDBRANCH   4   5
ENDBRANCH   3   4
ENDBRANCH   2   3
TORSDOF 10
ENDMDL
MODEL       64
REMARK 921   NORMALIZED FREE ENERGY PREDICTED BY IDOCK:   -4.73 KCAL/MOL
REMARK 922        TOTAL FREE ENERGY PREDICTED BY IDOCK:   -8.60 KCAL/MOL
REMARK 923 INTER-LIGAND FREE ENERGY PREDICTED BY IDOCK:   -7.77 KCAL/MOL
REMARK 924 INTRA-LIGAND FREE ENERGY PREDICTED BY IDOCK:   -0.83 KCAL/MOL
REMARK 927      BINDING AFFINITY PREDICTED BY RF-SCORE:    0.00 PKD
ROOT
HETATM    1  C   UNL     1      -8.082  16.836  68.382  1.00  0.00    -0.219 C  
HETATM    2  O   UNL     1      -9.004  17.871  68.708  1.00  0.00    -0.275 OA 
ENDROOT
BRANCH   2   3
HETATM    3  C   UNL     1     -10.314  17.536  68.259  1.00  0.00    -0.379 C  
BRANCH   3   4
HETATM    4  C   UNL     1     -10.868  16.380  69.085  1.00  0.00    -0.329 C  
BRANCH   4   5
HETATM    5  C   UNL     1     -11.814  15.539  68.228  1.00  0.00    -0.189 C  
BRANCH   5   6
HETATM    6  C   UNL     1     -11.071  14.674  67.208  1.00  0.00    -0.331 C  
BRANCH   6   7
HETATM    7  C   UNL     1     -11.764  13.315  66.993  1.00  0.00    -0.389 C  
BRANCH   7   8
HETATM    8  C   UNL     1     -11.595  12.216  68.015  1.00  0.00    -0.411 A  
HETATM    9  C   UNL     1     -11.990  12.457  69.342  1.00  0.00    -0.319 A  
HETATM   10  C   UNL     1     -11.116  10.939  67.694  1.00  0.00    -0.376 A  
HETATM   11  F   UNL     1     -11.141   7.834  70.481  1.00  0.00    -0.243 F  
HETATM   12  F   UNL     1     -10.740   9.286  72.048  1.00  0.00    -0.421 F  
HETATM   13  C   UNL     1     -11.090   9.918  68.652  1.00  0.00    -0.182 A  
HETATM   14  F   UNL     1     -12.791   8.821  71.493  1.00  0.00    -0.316 F  
HETATM   15  C   UNL     1     -11.524  10.148  69.962  1.00  0.00    -0.344 A  
HETATM   16  C   UNL     1     -11.547   9.035  70.981  1.00  0.00    -0.300 C  
HETATM   17  C   UNL     1     -11.959  11.438  70.303  1.00  0.00    -0.460 A  
ENDBRANCH   7   8
BRANCH   7  18
HETATM   18  N   UNL     1     -12.464  13.058  65.920  1.00  0.00    -0.498 NA 
HETATM   19  H   UNL     1     -12.966  12.185  65.754  1.00  0.00     0.000 HD 
BRANCH  18  20
HETATM   20  O   UNL     1     -12.434  14.135  65.027  1.00  0.00    -0.466 OA 
BRANCH  20  21
HETATM   21  C   UNL     1     -11.979  13.706  63.744  1.00  0.00    -0.377 C  
BRANCH  21  22
HETATM   22  C   UNL     1     -12.207  12.192  63.683  1.00  0.00    -0.562 C  
HETATM   23  H2  UNL     1     -10.504  11.659  64.702  1.00  0.00     0.000 HD 
HETATM   24  H1  UNL     1     -11.139  10.395  63.801  1.00  0.00     0.000 HD 
HETATM   25  N   UNL     1     -10.988  11.403  63.841  1.00  0.00    -0.386 NA 
ENDBRANCH  21  22
ENDBRANCH  20  21
ENDBRANCH  18  20
ENDBRANCH   7  18
ENDBRANCH   6   7
ENDBRANCH   5   6
ENDBRANCH   4   5
ENDBRANCH   3   4
ENDBRANCH   2   3
TORSDOF 10
ENDMDL
MODEL       65
REMARK 921   NORMALIZED FREE ENERGY PREDICTED BY IDOCK:   -4.71 KCAL/MOL
REMARK 922        TOTAL FREE ENERGY PREDICTED BY IDOCK:   -8.57 KCAL/MOL
REMARK 923 INTER-LIGAND FREE ENERGY PREDICTED BY IDOCK:   -7.76 KCAL/MOL
REMARK 924 INTRA-LIGAND FREE ENERGY PREDICTED BY IDOCK:   -0.81 KCAL/MOL
REMARK 927      BINDING AFFINITY PREDICTED BY RF-SCORE:    0.00 PKD
ROOT
HETATM    1  C   UNL     1     -11.171  15.811  64.609  1.00  0.00    -0.363 C  
HETATM    2  O   UNL     1     -10.706  14.465  64.587  1.00  0.00    -0.405 OA 
ENDROOT
BRANCH   2   3
HETATM    3  C   UNL     1     -11.715  13.593  64.086  1.00  0.00    -0.386 C  
BRANCH   3   4
HETATM    4  C   UNL     1     -12.650  13.177  65.216  1.00  0.00    -0.531 C  
BRANCH   4   5
HETATM    5  C   UNL     1     -11.833  12.825  66.460  1.00  0.00    -0.471 C  
BRANCH   5   6
HETATM    6  C   UNL     1     -12.116  13.763  67.634  1.00  0.00    -0.333 C  
BRANCH   6   7
HETATM    7  C   UNL     1     -11.291  13.391  68.880  1.00  0.00    -0.287 C  
BRANCH   7   8
HETATM    8  C   UNL     1     -11.633  12.145  69.662  1.00  0.00    -0.361 A  
HETATM    9  C   UNL     1     -10.866  10.985  69.462  1.00  0.00    -0.267 A  
HETATM   10  C   UNL     1     -12.647  12.103  70.629  1.00  0.00    -0.255 A  
HETATM   11  F   UNL     1     -13.196   8.765  73.071  1.00  0.00    -0.406 F  
HETATM   12  F   UNL     1     -12.587   7.497  71.414  1.00  0.00    -0.328 F  
HETATM   13  C   UNL     1     -12.847  10.959  71.412  1.00  0.00    -0.554 A  
HETATM   14  F   UNL     1     -11.097   8.277  72.794  1.00  0.00    -0.404 F  
HETATM   15  C   UNL     1     -12.054   9.820  71.240  1.00  0.00    -0.470 A  
HETATM   16  C   UNL     1     -12.233   8.607  72.119  1.00  0.00    -0.386 C  
HETATM   17  C   UNL     1     -11.069   9.839  70.241  1.00  0.00    -0.349 A  
ENDBRANCH   7   8
BRANCH   7  18
HETATM   18  N   UNL     1     -10.321  14.149  69.320  1.00  0.00    -0.427 NA 
HETATM   19  H   UNL     1     -10.183  14.398  70.299  1.00  0.00     0.000 HD 
BRANCH  18  20
HETATM   20  O   UNL     1      -9.497  14.574  68.271  1.00  0.00    -0.195 OA 
BRANCH  20  21
HETATM   21  C   UNL     1      -8.131  14.284  68.562  1.00  0.00    -0.147 C  
BRANCH  21  22
HETATM   22  C   UNL     1      -7.536  15.555  69.180  1.00  0.00    -0.191 C  
HETATM   23  H2  UNL     1      -9.178  16.751  68.877  1.00  0.00     0.000 HD 
HETATM   24  H1  UNL     1      -7.776  17.634  69.133  1.00  0.00     0.000 HD 
HETATM   25  N   UNL     1      -8.171  16.788  68.722  1.00  0.00    -0.248 NA 
ENDBRANCH  21  22
ENDBRANCH  20  21
ENDBRANCH  18  20
ENDBRANCH   7  18
ENDBRANCH   6   7
ENDBRANCH   5   6
ENDBRANCH   4   5
ENDBRANCH   3   4
ENDBRANCH   2   3
TORSDOF 10
ENDMDL
MODEL       66
REMARK 921   NORMALIZED FREE ENERGY PREDICTED BY IDOCK:   -4.71 KCAL/MOL
REMARK 922        TOTAL FREE ENERGY PREDICTED BY IDOCK:   -8.57 KCAL/MOL
REMARK 923 INTER-LIGAND FREE ENERGY PREDICTED BY IDOCK:   -7.81 KCAL/MOL
REMARK 924 INTRA-LIGAND FREE ENERGY PREDICTED BY IDOCK:   -0.76 KCAL/MOL
REMARK 927      BINDING AFFINITY PREDICTED BY RF-SCORE:    0.00 PKD
ROOT
HETATM    1  C   UNL     1     -11.484   8.204  72.317  1.00  0.00    -0.371 C  
HETATM    2  O   UNL     1     -11.735   9.397  71.581  1.00  0.00    -0.358 OA 
ENDROOT
BRANCH   2   3
HETATM    3  C   UNL     1     -13.054   9.875  71.830  1.00  0.00    -0.459 C  
BRANCH   3   4
HETATM    4  C   UNL     1     -13.098  11.390  71.662  1.00  0.00    -0.498 C  
BRANCH   4   5
HETATM    5  C   UNL     1     -12.180  11.809  70.514  1.00  0.00    -0.438 C  
BRANCH   5   6
HETATM    6  C   UNL     1     -12.096  13.328  70.352  1.00  0.00    -0.401 C  
BRANCH   6   7
HETATM    7  C   UNL     1     -11.663  13.733  68.931  1.00  0.00    -0.336 C  
BRANCH   7   8
HETATM    8  C   UNL     1     -10.735  14.909  68.735  1.00  0.00    -0.252 A  
HETATM    9  C   UNL     1     -11.249  16.094  68.183  1.00  0.00    -0.311 A  
HETATM   10  C   UNL     1      -9.392  14.898  69.134  1.00  0.00    -0.145 A  
HETATM   11  F   UNL     1      -7.048  18.347  68.995  1.00  0.00    -0.265 F  
HETATM   12  F   UNL     1      -8.125  18.964  67.210  1.00  0.00    -0.253 F  
HETATM   13  C   UNL     1      -8.605  16.053  69.041  1.00  0.00    -0.244 A  
HETATM   14  F   UNL     1      -8.862  19.529  69.178  1.00  0.00    -0.393 F  
HETATM   15  C   UNL     1      -9.131  17.245  68.531  1.00  0.00    -0.269 A  
HETATM   16  C   UNL     1      -8.300  18.503  68.480  1.00  0.00    -0.334 C  
HETATM   17  C   UNL     1     -10.461  17.248  68.084  1.00  0.00    -0.382 A  
ENDBRANCH   7   8
BRANCH   7  18
HETATM   18  N   UNL     1     -12.111  13.117  67.869  1.00  0.00    -0.280 NA 
HETATM   19  H   UNL     1     -13.060  12.754  67.771  1.00  0.00     0.000 HD 
BRANCH  18  20
HETATM   20  O   UNL     1     -11.121  13.020  66.884  1.00  0.00    -0.264 OA 
BRANCH  20  21
HETATM   21  C   UNL     1     -11.429  11.969  65.970  1.00  0.00    -0.338 C  
BRANCH  21  22
HETATM   22  C   UNL     1     -12.304  12.586  64.873  1.00  0.00    -0.470 C  
HETATM   23  H2  UNL     1     -12.040  14.543  65.437  1.00  0.00     0.000 HD 
HETATM   24  H1  UNL     1     -13.390  14.329  64.467  1.00  0.00     0.000 HD 
HETATM   25  N   UNL     1     -12.808  13.918  65.197  1.00  0.00    -0.748 NA 
ENDBRANCH  21  22
ENDBRANCH  20  21
ENDBRANCH  18  20
ENDBRANCH   7  18
ENDBRANCH   6   7
ENDBRANCH   5   6
ENDBRANCH   4   5
ENDBRANCH   3   4
ENDBRANCH   2   3
TORSDOF 10
ENDMDL
MODEL       67
REMARK 921   NORMALIZED FREE ENERGY PREDICTED BY IDOCK:   -4.68 KCAL/MOL
REMARK 922        TOTAL FREE ENERGY PREDICTED BY IDOCK:   -8.53 KCAL/MOL
REMARK 923 INTER-LIGAND FREE ENERGY PREDICTED BY IDOCK:   -7.52 KCAL/MOL
REMARK 924 INTRA-LIGAND FREE ENERGY PREDICTED BY IDOCK:   -1.01 KCAL/MOL
REMARK 927      BINDING AFFINITY PREDICTED BY RF-SCORE:    0.00 PKD
ROOT
HETATM    1  C   UNL     1      -7.423  10.391  65.753  1.00  0.00    -0.147 C  
HETATM    2  O   UNL     1      -8.837  10.227  65.733  1.00  0.00    -0.151 OA 
ENDROOT
BRANCH   2   3
HETATM    3  C   UNL     1      -9.429  10.814  66.888  1.00  0.00    -0.168 C  
BRANCH   3   4
HETATM    4  C   UNL     1     -10.781  11.422  66.527  1.00  0.00    -0.325 C  
BRANCH   4   5
HETATM    5  C   UNL     1     -10.608  12.905  66.197  1.00  0.00    -0.287 C  
BRANCH   5   6
HETATM    6  C   UNL     1      -9.661  13.617  67.165  1.00  0.00    -0.241 C  
BRANCH   6   7
HETATM    7  C   UNL     1     -10.313  14.858  67.801  1.00  0.00    -0.244 C  
BRANCH   7   8
HETATM    8  C   UNL     1     -10.937  14.759  69.172  1.00  0.00    -0.277 A  
HETATM    9  C   UNL     1     -10.793  15.836  70.064  1.00  0.00    -0.348 A  
HETATM   10  C   UNL     1     -11.710  13.664  69.584  1.00  0.00    -0.383 A  
HETATM   11  F   UNL     1     -13.786  13.697  73.203  1.00  0.00    -0.400 F  
HETATM   12  F   UNL     1     -12.175  14.867  74.076  1.00  0.00    -0.607 F  
HETATM   13  C   UNL     1     -12.366  13.672  70.821  1.00  0.00    -0.446 A  
HETATM   14  F   UNL     1     -13.841  15.866  73.096  1.00  0.00    -0.625 F  
HETATM   15  C   UNL     1     -12.255  14.763  71.689  1.00  0.00    -0.413 A  
HETATM   16  C   UNL     1     -13.005  14.795  72.999  1.00  0.00    -0.510 C  
HETATM   17  C   UNL     1     -11.444  15.841  71.304  1.00  0.00    -0.481 A  
ENDBRANCH   7   8
BRANCH   7  18
HETATM   18  N   UNL     1     -10.390  16.000  67.168  1.00  0.00    -0.290 NA 
HETATM   19  H   UNL     1     -11.253  16.392  66.790  1.00  0.00     0.000 HD 
BRANCH  18  20
HETATM   20  O   UNL     1      -9.135  16.613  67.079  1.00  0.00    -0.206 OA 
BRANCH  20  21
HETATM   21  C   UNL     1      -9.205  17.771  66.248  1.00  0.00    -0.182 C  
BRANCH  21  22
HETATM   22  C   UNL     1      -9.477  18.960  67.177  1.00  0.00    -0.304 C  
HETATM   23  H2  UNL     1     -11.357  18.375  67.762  1.00  0.00     0.000 HD 
HETATM   24  H1  UNL     1     -11.076  20.005  68.032  1.00  0.00     0.000 HD 
HETATM   25  N   UNL     1     -10.895  19.215  67.414  1.00  0.00    -0.481 NA 
ENDBRANCH  21  22
ENDBRANCH  20  21
ENDBRANCH  18  20
ENDBRANCH   7  18
ENDBRANCH   6   7
ENDBRANCH   5   6
ENDBRANCH   4   5
ENDBRANCH   3   4
ENDBRANCH   2   3
TORSDOF 10
ENDMDL
MODEL       68
REMARK 921   NORMALIZED FREE ENERGY PREDICTED BY IDOCK:   -4.63 KCAL/MOL
REMARK 922        TOTAL FREE ENERGY PREDICTED BY IDOCK:   -8.45 KCAL/MOL
REMARK 923 INTER-LIGAND FREE ENERGY PREDICTED BY IDOCK:   -7.60 KCAL/MOL
REMARK 924 INTRA-LIGAND FREE ENERGY PREDICTED BY IDOCK:   -0.85 KCAL/MOL
REMARK 927      BINDING AFFINITY PREDICTED BY RF-SCORE:    0.00 PKD
ROOT
HETATM    1  C   UNL     1     -11.616   6.040  72.098  1.00  0.00    -0.293 C  
HETATM    2  O   UNL     1     -12.471   7.076  71.626  1.00  0.00    -0.341 OA 
ENDROOT
BRANCH   2   3
HETATM    3  C   UNL     1     -12.285   8.267  72.386  1.00  0.00    -0.352 C  
BRANCH   3   4
HETATM    4  C   UNL     1     -13.487   9.190  72.209  1.00  0.00    -0.546 C  
BRANCH   4   5
HETATM    5  C   UNL     1     -13.282  10.073  70.977  1.00  0.00    -0.399 C  
BRANCH   5   6
HETATM    6  C   UNL     1     -11.912  10.752  70.962  1.00  0.00    -0.409 C  
BRANCH   6   7
HETATM    7  C   UNL     1     -11.096  10.376  69.711  1.00  0.00    -0.295 C  
BRANCH   7   8
HETATM    8  C   UNL     1     -11.220  11.208  68.456  1.00  0.00    -0.318 A  
HETATM    9  C   UNL     1     -10.785  10.664  67.236  1.00  0.00    -0.338 A  
HETATM   10  C   UNL     1     -11.807  12.481  68.437  1.00  0.00    -0.353 A  
HETATM   11  F   UNL     1     -12.539  14.490  64.855  1.00  0.00    -0.429 F  
HETATM   12  F   UNL     1     -10.730  13.610  64.032  1.00  0.00    -0.377 F  
HETATM   13  C   UNL     1     -12.007  13.161  67.230  1.00  0.00    -0.389 A  
HETATM   14  F   UNL     1     -12.630  12.566  63.850  1.00  0.00    -0.483 F  
HETATM   15  C   UNL     1     -11.611  12.600  66.011  1.00  0.00    -0.443 A  
HETATM   16  C   UNL     1     -11.875  13.310  64.705  1.00  0.00    -0.371 C  
HETATM   17  C   UNL     1     -10.979  11.348  66.029  1.00  0.00    -0.286 A  
ENDBRANCH   7   8
BRANCH   7  18
HETATM   18  N   UNL     1     -10.325   9.321  69.679  1.00  0.00    -0.207 NA 
HETATM   19  H   UNL     1     -10.529   8.474  69.147  1.00  0.00     0.000 HD 
BRANCH  18  20
HETATM   20  O   UNL     1      -9.185   9.504  70.469  1.00  0.00    -0.248 OA 
BRANCH  20  21
HETATM   21  C   UNL     1      -8.717   8.251  70.966  1.00  0.00    -0.146 C  
BRANCH  21  22
HETATM   22  C   UNL     1      -8.738   8.352  72.496  1.00  0.00    -0.206 C  
HETATM   23  H2  UNL     1      -7.076   9.546  72.674  1.00  0.00     0.000 HD 
HETATM   24  H1  UNL     1      -7.459   8.756  74.102  1.00  0.00     0.000 HD 
HETATM   25  N   UNL     1      -7.445   8.689  73.085  1.00  0.00    -0.366 NA 
ENDBRANCH  21  22
ENDBRANCH  20  21
ENDBRANCH  18  20
ENDBRANCH   7  18
ENDBRANCH   6   7
ENDBRANCH   5   6
ENDBRANCH   4   5
ENDBRANCH   3   4
ENDBRANCH   2   3
TORSDOF 10
ENDMDL
MODEL       69
REMARK 921   NORMALIZED FREE ENERGY PREDICTED BY IDOCK:   -4.63 KCAL/MOL
REMARK 922        TOTAL FREE ENERGY PREDICTED BY IDOCK:   -8.44 KCAL/MOL
REMARK 923 INTER-LIGAND FREE ENERGY PREDICTED BY IDOCK:   -7.73 KCAL/MOL
REMARK 924 INTRA-LIGAND FREE ENERGY PREDICTED BY IDOCK:   -0.72 KCAL/MOL
REMARK 927      BINDING AFFINITY PREDICTED BY RF-SCORE:    0.00 PKD
ROOT
HETATM    1  C   UNL     1     -11.289   6.237  70.652  1.00  0.00    -0.343 C  
HETATM    2  O   UNL     1     -12.340   7.172  70.875  1.00  0.00    -0.344 OA 
ENDROOT
BRANCH   2   3
HETATM    3  C   UNL     1     -12.106   7.917  72.066  1.00  0.00    -0.320 C  
BRANCH   3   4
HETATM    4  C   UNL     1     -11.641   9.327  71.713  1.00  0.00    -0.458 C  
BRANCH   4   5
HETATM    5  C   UNL     1     -12.797  10.112  71.092  1.00  0.00    -0.494 C  
BRANCH   5   6
HETATM    6  C   UNL     1     -12.401  11.540  70.713  1.00  0.00    -0.472 C  
BRANCH   6   7
HETATM    7  C   UNL     1     -12.022  11.657  69.225  1.00  0.00    -0.317 C  
BRANCH   7   8
HETATM    8  C   UNL     1     -11.732  13.014  68.628  1.00  0.00    -0.359 A  
HETATM    9  C   UNL     1     -11.209  14.021  69.456  1.00  0.00    -0.249 A  
HETATM   10  C   UNL     1     -11.904  13.304  67.268  1.00  0.00    -0.421 A  
HETATM   11  F   UNL     1     -10.623  16.921  65.631  1.00  0.00    -0.349 F  
HETATM   12  F   UNL     1     -11.137  17.908  67.498  1.00  0.00    -0.345 F  
HETATM   13  C   UNL     1     -11.508  14.539  66.741  1.00  0.00    -0.376 A  
HETATM   14  F   UNL     1      -9.151  17.065  67.222  1.00  0.00    -0.213 F  
HETATM   15  C   UNL     1     -10.947  15.526  67.559  1.00  0.00    -0.316 A  
HETATM   16  C   UNL     1     -10.472  16.837  66.982  1.00  0.00    -0.285 C  
HETATM   17  C   UNL     1     -10.819  15.260  68.930  1.00  0.00    -0.247 A  
ENDBRANCH   7   8
BRANCH   7  18
HETATM   18  N   UNL     1     -11.987  10.615  68.436  1.00  0.00    -0.811 NA 
HETATM   19  H   UNL     1     -12.809  10.192  68.004  1.00  0.00     0.000 HD 
BRANCH  18  20
HETATM   20  O   UNL     1     -10.677  10.155  68.263  1.00  0.00    -0.208 OA 
BRANCH  20  21
HETATM   21  C   UNL     1     -10.590   9.321  67.109  1.00  0.00    -0.216 C  
BRANCH  21  22
HETATM   22  C   UNL     1     -10.230   7.918  67.609  1.00  0.00    -0.226 C  
HETATM   23  H2  UNL     1     -11.098   6.887  66.059  1.00  0.00     0.000 HD 
HETATM   24  H1  UNL     1     -10.848   5.928  67.411  1.00  0.00     0.000 HD 
HETATM   25  N   UNL     1     -11.087   6.861  67.078  1.00  0.00    -0.357 NA 
ENDBRANCH  21  22
ENDBRANCH  20  21
ENDBRANCH  18  20
ENDBRANCH   7  18
ENDBRANCH   6   7
ENDBRANCH   5   6
ENDBRANCH   4   5
ENDBRANCH   3   4
ENDBRANCH   2   3
TORSDOF 10
ENDMDL
MODEL       70
REMARK 921   NORMALIZED FREE ENERGY PREDICTED BY IDOCK:   -4.63 KCAL/MOL
REMARK 922        TOTAL FREE ENERGY PREDICTED BY IDOCK:   -8.44 KCAL/MOL
REMARK 923 INTER-LIGAND FREE ENERGY PREDICTED BY IDOCK:   -7.80 KCAL/MOL
REMARK 924 INTRA-LIGAND FREE ENERGY PREDICTED BY IDOCK:   -0.63 KCAL/MOL
REMARK 927      BINDING AFFINITY PREDICTED BY RF-SCORE:    0.00 PKD
ROOT
HETATM    1  C   UNL     1     -12.603  10.334  70.991  1.00  0.00    -0.390 C  
HETATM    2  O   UNL     1     -12.190  11.697  70.999  1.00  0.00    -0.335 OA 
ENDROOT
BRANCH   2   3
HETATM    3  C   UNL     1     -13.165  12.514  71.641  1.00  0.00    -0.284 C  
BRANCH   3   4
HETATM    4  C   UNL     1     -12.762  13.982  71.536  1.00  0.00    -0.443 C  
BRANCH   4   5
HETATM    5  C   UNL     1     -12.135  14.249  70.168  1.00  0.00    -0.403 C  
BRANCH   5   6
HETATM    6  C   UNL     1     -11.888  15.737  69.914  1.00  0.00    -0.355 C  
BRANCH   6   7
HETATM    7  C   UNL     1     -11.175  15.982  68.571  1.00  0.00    -0.374 C  
BRANCH   7   8
HETATM    8  C   UNL     1     -10.185  17.115  68.442  1.00  0.00    -0.340 A  
HETATM    9  C   UNL     1      -8.835  16.875  68.747  1.00  0.00    -0.255 A  
HETATM   10  C   UNL     1     -10.537  18.389  67.974  1.00  0.00    -0.346 A  
HETATM   11  F   UNL     1      -7.653  21.301  67.197  1.00  0.00    -0.376 F  
HETATM   12  F   UNL     1      -6.483  20.536  68.862  1.00  0.00    -0.339 F  
HETATM   13  C   UNL     1      -9.562  19.370  67.759  1.00  0.00    -0.422 A  
HETATM   14  F   UNL     1      -6.207  19.712  66.867  1.00  0.00    -0.183 F  
HETATM   15  C   UNL     1      -8.212  19.116  68.023  1.00  0.00    -0.339 A  
HETATM   16  C   UNL     1      -7.154  20.155  67.741  1.00  0.00    -0.295 C  
HETATM   17  C   UNL     1      -7.860  17.859  68.538  1.00  0.00    -0.301 A  
ENDBRANCH   7   8
BRANCH   7  18
HETATM   18  N   UNL     1     -11.433  15.264  67.510  1.00  0.00    -0.309 NA 
HETATM   19  H   UNL     1     -12.350  14.875  67.286  1.00  0.00     0.000 HD 
BRANCH  18  20
HETATM   20  O   UNL     1     -10.289  15.097  66.722  1.00  0.00    -0.263 OA 
BRANCH  20  21
HETATM   21  C   UNL     1     -10.477  14.032  65.791  1.00  0.00    -0.309 C  
BRANCH  21  22
HETATM   22  C   UNL     1     -11.670  14.425  64.912  1.00  0.00    -0.408 C  
HETATM   23  H2  UNL     1     -13.133  13.850  66.234  1.00  0.00     0.000 HD 
HETATM   24  H1  UNL     1     -13.702  13.988  64.663  1.00  0.00     0.000 HD 
HETATM   25  N   UNL     1     -12.908  13.727  65.247  1.00  0.00    -0.737 NA 
ENDBRANCH  21  22
ENDBRANCH  20  21
ENDBRANCH  18  20
ENDBRANCH   7  18
ENDBRANCH   6   7
ENDBRANCH   5   6
ENDBRANCH   4   5
ENDBRANCH   3   4
ENDBRANCH   2   3
TORSDOF 10
ENDMDL
MODEL       71
REMARK 921   NORMALIZED FREE ENERGY PREDICTED BY IDOCK:   -4.61 KCAL/MOL
REMARK 922        TOTAL FREE ENERGY PREDICTED BY IDOCK:   -8.41 KCAL/MOL
REMARK 923 INTER-LIGAND FREE ENERGY PREDICTED BY IDOCK:   -7.48 KCAL/MOL
REMARK 924 INTRA-LIGAND FREE ENERGY PREDICTED BY IDOCK:   -0.93 KCAL/MOL
REMARK 927      BINDING AFFINITY PREDICTED BY RF-SCORE:    0.00 PKD
ROOT
HETATM    1  C   UNL     1     -11.223   9.262  70.859  1.00  0.00    -0.306 C  
HETATM    2  O   UNL     1     -12.083  10.245  70.292  1.00  0.00    -0.272 OA 
ENDROOT
BRANCH   2   3
HETATM    3  C   UNL     1     -13.021  10.710  71.260  1.00  0.00    -0.414 C  
BRANCH   3   4
HETATM    4  C   UNL     1     -12.666  12.132  71.684  1.00  0.00    -0.314 C  
BRANCH   4   5
HETATM    5  C   UNL     1     -12.863  13.087  70.507  1.00  0.00     0.009 C  
BRANCH   5   6
HETATM    6  C   UNL     1     -11.952  14.314  70.586  1.00  0.00    -0.392 C  
BRANCH   6   7
HETATM    7  C   UNL     1     -10.944  14.358  69.422  1.00  0.00    -0.231 C  
BRANCH   7   8
HETATM    8  C   UNL     1     -11.278  13.679  68.115  1.00  0.00    -0.303 A  
HETATM    9  C   UNL     1     -12.150  14.321  67.220  1.00  0.00    -0.390 A  
HETATM   10  C   UNL     1     -10.711  12.460  67.719  1.00  0.00    -0.247 A  
HETATM   11  F   UNL     1     -11.320  10.910  63.894  1.00  0.00    -0.279 F  
HETATM   12  F   UNL     1     -13.326  11.747  63.913  1.00  0.00    -0.500 F  
HETATM   13  C   UNL     1     -10.959  11.931  66.447  1.00  0.00    -0.337 A  
HETATM   14  F   UNL     1     -11.657  12.934  63.180  1.00  0.00    -0.545 F  
HETATM   15  C   UNL     1     -11.794  12.593  65.541  1.00  0.00    -0.479 A  
HETATM   16  C   UNL     1     -12.020  12.050  64.151  1.00  0.00    -0.369 C  
HETATM   17  C   UNL     1     -12.404  13.789  65.949  1.00  0.00    -0.516 A  
ENDBRANCH   7   8
BRANCH   7  18
HETATM   18  N   UNL     1      -9.775  14.929  69.541  1.00  0.00    -0.419 NA 
HETATM   19  H   UNL     1      -8.912  14.434  69.767  1.00  0.00     0.000 HD 
BRANCH  18  20
HETATM   20  O   UNL     1      -9.861  16.308  69.317  1.00  0.00    -0.251 OA 
BRANCH  20  21
HETATM   21  C   UNL     1      -8.701  16.774  68.630  1.00  0.00    -0.255 C  
BRANCH  21  22
HETATM   22  C   UNL     1      -9.165  17.908  67.708  1.00  0.00    -0.258 C  
HETATM   23  H2  UNL     1     -11.013  18.165  68.567  1.00  0.00     0.000 HD 
HETATM   24  H1  UNL     1     -10.925  18.809  67.022  1.00  0.00     0.000 HD 
HETATM   25  N   UNL     1     -10.616  18.055  67.635  1.00  0.00    -0.413 NA 
ENDBRANCH  21  22
ENDBRANCH  20  21
ENDBRANCH  18  20
ENDBRANCH   7  18
ENDBRANCH   6   7
ENDBRANCH   5   6
ENDBRANCH   4   5
ENDBRANCH   3   4
ENDBRANCH   2   3
TORSDOF 10
ENDMDL
MODEL       72
REMARK 921   NORMALIZED FREE ENERGY PREDICTED BY IDOCK:   -4.58 KCAL/MOL
REMARK 922        TOTAL FREE ENERGY PREDICTED BY IDOCK:   -8.37 KCAL/MOL
REMARK 923 INTER-LIGAND FREE ENERGY PREDICTED BY IDOCK:   -7.21 KCAL/MOL
REMARK 924 INTRA-LIGAND FREE ENERGY PREDICTED BY IDOCK:   -1.16 KCAL/MOL
REMARK 927      BINDING AFFINITY PREDICTED BY RF-SCORE:    0.00 PKD
ROOT
HETATM    1  C   UNL     1     -10.623   9.622  68.946  1.00  0.00    -0.217 C  
HETATM    2  O   UNL     1     -11.300  10.692  68.296  1.00  0.00    -0.286 OA 
ENDROOT
BRANCH   2   3
HETATM    3  C   UNL     1     -12.114  11.408  69.221  1.00  0.00    -0.289 C  
BRANCH   3   4
HETATM    4  C   UNL     1     -11.353  12.618  69.754  1.00  0.00    -0.108 C  
BRANCH   4   5
HETATM    5  C   UNL     1     -12.239  13.861  69.676  1.00  0.00    -0.374 C  
BRANCH   5   6
HETATM    6  C   UNL     1     -11.428  15.157  69.607  1.00  0.00    -0.314 C  
BRANCH   6   7
HETATM    7  C   UNL     1     -11.341  15.705  68.170  1.00  0.00    -0.340 C  
BRANCH   7   8
HETATM    8  C   UNL     1     -11.287  14.748  67.003  1.00  0.00    -0.358 A  
HETATM    9  C   UNL     1     -10.079  14.085  66.724  1.00  0.00    -0.264 A  
HETATM   10  C   UNL     1     -12.403  14.438  66.214  1.00  0.00    -0.325 A  
HETATM   11  F   UNL     1     -12.269  11.428  63.329  1.00  0.00    -0.516 F  
HETATM   12  F   UNL     1     -10.195  11.946  62.936  1.00  0.00    -0.383 F  
HETATM   13  C   UNL     1     -12.331  13.455  65.220  1.00  0.00    -0.513 A  
HETATM   14  F   UNL     1     -10.680  10.477  64.465  1.00  0.00    -0.392 F  
HETATM   15  C   UNL     1     -11.138  12.766  64.973  1.00  0.00    -0.317 A  
HETATM   16  C   UNL     1     -11.074  11.669  63.938  1.00  0.00    -0.401 C  
HETATM   17  C   UNL     1     -10.005  13.106  65.726  1.00  0.00    -0.260 A  
ENDBRANCH   7   8
BRANCH   7  18
HETATM   18  N   UNL     1     -11.264  16.986  67.921  1.00  0.00    -0.119 NA 
HETATM   19  H   UNL     1     -12.058  17.572  67.662  1.00  0.00     0.000 HD 
BRANCH  18  20
HETATM   20  O   UNL     1      -9.950  17.449  68.058  1.00  0.00    -0.275 OA 
BRANCH  20  21
HETATM   21  C   UNL     1      -9.937  18.736  68.674  1.00  0.00    -0.394 C  
BRANCH  21  22
HETATM   22  C   UNL     1      -9.910  19.765  67.538  1.00  0.00    -0.389 C  
HETATM   23  H2  UNL     1     -11.779  19.344  66.798  1.00  0.00     0.000 HD 
HETATM   24  H1  UNL     1     -10.813  20.148  65.689  1.00  0.00     0.000 HD 
HETATM   25  N   UNL     1     -10.830  19.464  66.445  1.00  0.00    -0.381 NA 
ENDBRANCH  21  22
ENDBRANCH  20  21
ENDBRANCH  18  20
ENDBRANCH   7  18
ENDBRANCH   6   7
ENDBRANCH   5   6
ENDBRANCH   4   5
ENDBRANCH   3   4
ENDBRANCH   2   3
TORSDOF 10
ENDMDL
MODEL       73
REMARK 921   NORMALIZED FREE ENERGY PREDICTED BY IDOCK:   -4.58 KCAL/MOL
REMARK 922        TOTAL FREE ENERGY PREDICTED BY IDOCK:   -8.37 KCAL/MOL
REMARK 923 INTER-LIGAND FREE ENERGY PREDICTED BY IDOCK:   -7.33 KCAL/MOL
REMARK 924 INTRA-LIGAND FREE ENERGY PREDICTED BY IDOCK:   -1.05 KCAL/MOL
REMARK 927      BINDING AFFINITY PREDICTED BY RF-SCORE:    0.00 PKD
ROOT
HETATM    1  C   UNL     1      -9.622  10.392  63.086  1.00  0.00    -0.303 C  
HETATM    2  O   UNL     1      -9.988  10.511  64.457  1.00  0.00    -0.314 OA 
ENDROOT
BRANCH   2   3
HETATM    3  C   UNL     1      -8.847  10.801  65.259  1.00  0.00    -0.187 C  
BRANCH   3   4
HETATM    4  C   UNL     1      -8.607   9.666  66.249  1.00  0.00    -0.137 C  
BRANCH   4   5
HETATM    5  C   UNL     1      -9.211  10.028  67.606  1.00  0.00    -0.148 C  
BRANCH   5   6
HETATM    6  C   UNL     1     -10.696   9.674  67.702  1.00  0.00    -0.324 C  
BRANCH   6   7
HETATM    7  C   UNL     1     -11.535  10.851  68.234  1.00  0.00    -0.305 C  
BRANCH   7   8
HETATM    8  C   UNL     1     -11.361  12.228  67.637  1.00  0.00    -0.374 A  
HETATM    9  C   UNL     1     -10.491  13.135  68.265  1.00  0.00    -0.258 A  
HETATM   10  C   UNL     1     -11.982  12.630  66.446  1.00  0.00    -0.425 A  
HETATM   11  F   UNL     1     -11.061  16.269  64.627  1.00  0.00    -0.448 F  
HETATM   12  F   UNL     1     -10.786  17.144  66.598  1.00  0.00    -0.299 F  
HETATM   13  C   UNL     1     -11.694  13.873  65.870  1.00  0.00    -0.372 A  
HETATM   14  F   UNL     1      -9.110  16.198  65.582  1.00  0.00    -0.335 F  
HETATM   15  C   UNL     1     -10.795  14.758  66.475  1.00  0.00    -0.319 A  
HETATM   16  C   UNL     1     -10.445  16.075  65.827  1.00  0.00    -0.374 C  
HETATM   17  C   UNL     1     -10.208  14.381  67.692  1.00  0.00    -0.229 A  
ENDBRANCH   7   8
BRANCH   7  18
HETATM   18  N   UNL     1     -12.371  10.711  69.230  1.00  0.00    -0.717 NA 
HETATM   19  H   UNL     1     -13.359  10.482  69.124  1.00  0.00     0.000 HD 
BRANCH  18  20
HETATM   20  O   UNL     1     -11.732  10.917  70.458  1.00  0.00    -0.318 OA 
BRANCH  20  21
HETATM   21  C   UNL     1     -11.292   9.674  71.004  1.00  0.00    -0.374 C  
BRANCH  21  22
HETATM   22  C   UNL     1     -12.523   9.015  71.638  1.00  0.00    -0.351 C  
HETATM   23  H2  UNL     1     -13.812  10.584  71.331  1.00  0.00     0.000 HD 
HETATM   24  H1  UNL     1     -14.354   9.526  72.513  1.00  0.00     0.000 HD 
HETATM   25  N   UNL     1     -13.535   9.964  72.092  1.00  0.00    -0.415 NA 
ENDBRANCH  21  22
ENDBRANCH  20  21
ENDBRANCH  18  20
ENDBRANCH   7  18
ENDBRANCH   6   7
ENDBRANCH   5   6
ENDBRANCH   4   5
ENDBRANCH   3   4
ENDBRANCH   2   3
TORSDOF 10
ENDMDL
MODEL       74
REMARK 921   NORMALIZED FREE ENERGY PREDICTED BY IDOCK:   -4.58 KCAL/MOL
REMARK 922        TOTAL FREE ENERGY PREDICTED BY IDOCK:   -8.37 KCAL/MOL
REMARK 923 INTER-LIGAND FREE ENERGY PREDICTED BY IDOCK:   -7.00 KCAL/MOL
REMARK 924 INTRA-LIGAND FREE ENERGY PREDICTED BY IDOCK:   -1.37 KCAL/MOL
REMARK 927      BINDING AFFINITY PREDICTED BY RF-SCORE:    0.00 PKD
ROOT
HETATM    1  C   UNL     1      -8.580   9.314  66.148  1.00  0.00    -0.134 C  
HETATM    2  O   UNL     1      -9.906   9.270  65.630  1.00  0.00    -0.289 OA 
ENDROOT
BRANCH   2   3
HETATM    3  C   UNL     1     -10.225  10.486  64.960  1.00  0.00    -0.295 C  
BRANCH   3   4
HETATM    4  C   UNL     1      -9.522  11.655  65.644  1.00  0.00    -0.228 C  
BRANCH   4   5
HETATM    5  C   UNL     1     -10.523  12.782  65.900  1.00  0.00    -0.295 C  
BRANCH   5   6
HETATM    6  C   UNL     1     -11.794  12.292  66.597  1.00  0.00    -0.362 C  
BRANCH   6   7
HETATM    7  C   UNL     1     -11.767  12.577  68.110  1.00  0.00    -0.348 C  
BRANCH   7   8
HETATM    8  C   UNL     1     -11.660  11.431  69.088  1.00  0.00    -0.381 A  
HETATM    9  C   UNL     1     -12.481  11.433  70.229  1.00  0.00    -0.312 A  
HETATM   10  C   UNL     1     -10.820  10.327  68.885  1.00  0.00    -0.263 A  
HETATM   11  F   UNL     1     -10.952   6.995  71.392  1.00  0.00    -0.245 F  
HETATM   12  F   UNL     1     -11.394   8.313  73.063  1.00  0.00    -0.430 F  
HETATM   13  C   UNL     1     -10.845   9.234  69.760  1.00  0.00    -0.239 A  
HETATM   14  F   UNL     1     -13.014   7.493  71.865  1.00  0.00    -0.323 F  
HETATM   15  C   UNL     1     -11.694   9.219  70.872  1.00  0.00    -0.360 A  
HETATM   16  C   UNL     1     -11.760   8.020  71.785  1.00  0.00    -0.291 C  
HETATM   17  C   UNL     1     -12.501  10.342  71.108  1.00  0.00    -0.509 A  
ENDBRANCH   7   8
BRANCH   7  18
HETATM   18  N   UNL     1     -11.883  13.788  68.588  1.00  0.00    -0.357 NA 
HETATM   19  H   UNL     1     -12.747  14.330  68.582  1.00  0.00     0.000 HD 
BRANCH  18  20
HETATM   20  O   UNL     1     -10.666  14.244  69.109  1.00  0.00    -0.247 OA 
BRANCH  20  21
HETATM   21  C   UNL     1     -10.871  15.411  69.905  1.00  0.00    -0.293 C  
BRANCH  21  22
HETATM   22  C   UNL     1     -11.747  14.984  71.089  1.00  0.00    -0.337 C  
HETATM   23  H2  UNL     1     -13.527  14.954  70.064  1.00  0.00     0.000 HD 
HETATM   24  H1  UNL     1     -13.740  15.046  71.724  1.00  0.00     0.000 HD 
HETATM   25  N   UNL     1     -13.157  15.330  70.937  1.00  0.00    -0.460 NA 
ENDBRANCH  21  22
ENDBRANCH  20  21
ENDBRANCH  18  20
ENDBRANCH   7  18
ENDBRANCH   6   7
ENDBRANCH   5   6
ENDBRANCH   4   5
ENDBRANCH   3   4
ENDBRANCH   2   3
TORSDOF 10
ENDMDL
MODEL       75
REMARK 921   NORMALIZED FREE ENERGY PREDICTED BY IDOCK:   -4.57 KCAL/MOL
REMARK 922        TOTAL FREE ENERGY PREDICTED BY IDOCK:   -8.36 KCAL/MOL
REMARK 923 INTER-LIGAND FREE ENERGY PREDICTED BY IDOCK:   -7.51 KCAL/MOL
REMARK 924 INTRA-LIGAND FREE ENERGY PREDICTED BY IDOCK:   -0.84 KCAL/MOL
REMARK 927      BINDING AFFINITY PREDICTED BY RF-SCORE:    0.00 PKD
ROOT
HETATM    1  C   UNL     1      -9.375   9.649  69.476  1.00  0.00    -0.200 C  
HETATM    2  O   UNL     1     -10.504   9.281  68.690  1.00  0.00    -0.207 OA 
ENDROOT
BRANCH   2   3
HETATM    3  C   UNL     1     -11.353  10.405  68.473  1.00  0.00    -0.220 C  
BRANCH   3   4
HETATM    4  C   UNL     1     -11.629  11.110  69.797  1.00  0.00    -0.409 C  
BRANCH   4   5
HETATM    5  C   UNL     1     -11.732  12.618  69.568  1.00  0.00    -0.374 C  
BRANCH   5   6
HETATM    6  C   UNL     1     -10.703  13.131  68.558  1.00  0.00    -0.277 C  
BRANCH   6   7
HETATM    7  C   UNL     1     -11.329  14.106  67.544  1.00  0.00    -0.322 C  
BRANCH   7   8
HETATM    8  C   UNL     1     -10.974  15.573  67.595  1.00  0.00    -0.315 A  
HETATM    9  C   UNL     1     -10.797  16.185  68.847  1.00  0.00    -0.305 A  
HETATM   10  C   UNL     1     -10.751  16.347  66.447  1.00  0.00    -0.161 A  
HETATM   11  F   UNL     1      -9.306  20.252  66.698  1.00  0.00    -0.427 F  
HETATM   12  F   UNL     1     -10.426  20.511  68.542  1.00  0.00    -0.463 F  
HETATM   13  C   UNL     1     -10.307  17.671  66.549  1.00  0.00    -0.337 A  
HETATM   14  F   UNL     1      -8.392  19.741  68.602  1.00  0.00    -0.362 F  
HETATM   15  C   UNL     1     -10.090  18.266  67.796  1.00  0.00    -0.369 A  
HETATM   16  C   UNL     1      -9.561  19.674  67.905  1.00  0.00    -0.356 C  
HETATM   17  C   UNL     1     -10.359  17.512  68.948  1.00  0.00    -0.338 A  
ENDBRANCH   7   8
BRANCH   7  18
HETATM   18  N   UNL     1     -12.206  13.713  66.657  1.00  0.00    -0.410 NA 
HETATM   19  H   UNL     1     -13.170  14.044  66.614  1.00  0.00     0.000 HD 
BRANCH  18  20
HETATM   20  O   UNL     1     -11.649  12.779  65.775  1.00  0.00    -0.336 OA 
BRANCH  20  21
HETATM   21  C   UNL     1     -12.435  12.685  64.588  1.00  0.00    -0.466 C  
BRANCH  21  22
HETATM   22  C   UNL     1     -11.555  12.005  63.533  1.00  0.00    -0.461 C  
HETATM   23  H2  UNL     1      -9.798  12.110  64.593  1.00  0.00     0.000 HD 
HETATM   24  H1  UNL     1      -9.549  11.870  62.953  1.00  0.00     0.000 HD 
HETATM   25  N   UNL     1     -10.134  12.322  63.654  1.00  0.00    -0.396 NA 
ENDBRANCH  21  22
ENDBRANCH  20  21
ENDBRANCH  18  20
ENDBRANCH   7  18
ENDBRANCH   6   7
ENDBRANCH   5   6
ENDBRANCH   4   5
ENDBRANCH   3   4
ENDBRANCH   2   3
TORSDOF 10
ENDMDL
MODEL       76
REMARK 921   NORMALIZED FREE ENERGY PREDICTED BY IDOCK:   -4.54 KCAL/MOL
REMARK 922        TOTAL FREE ENERGY PREDICTED BY IDOCK:   -8.30 KCAL/MOL
REMARK 923 INTER-LIGAND FREE ENERGY PREDICTED BY IDOCK:   -7.18 KCAL/MOL
REMARK 924 INTRA-LIGAND FREE ENERGY PREDICTED BY IDOCK:   -1.12 KCAL/MOL
REMARK 927      BINDING AFFINITY PREDICTED BY RF-SCORE:    0.00 PKD
ROOT
HETATM    1  C   UNL     1     -11.991  12.975  63.832  1.00  0.00    -0.485 C  
HETATM    2  O   UNL     1     -11.376  12.403  64.981  1.00  0.00    -0.303 OA 
ENDROOT
BRANCH   2   3
HETATM    3  C   UNL     1     -10.853  11.112  64.681  1.00  0.00    -0.225 C  
BRANCH   3   4
HETATM    4  C   UNL     1     -10.120  10.552  65.897  1.00  0.00    -0.323 C  
BRANCH   4   5
HETATM    5  C   UNL     1      -9.039  11.536  66.346  1.00  0.00    -0.206 C  
BRANCH   5   6
HETATM    6  C   UNL     1      -9.085  11.814  67.849  1.00  0.00    -0.181 C  
BRANCH   6   7
HETATM    7  C   UNL     1     -10.525  12.039  68.349  1.00  0.00    -0.219 C  
BRANCH   7   8
HETATM    8  C   UNL     1     -11.160  11.037  69.284  1.00  0.00    -0.312 A  
HETATM    9  C   UNL     1     -10.577   9.766  69.414  1.00  0.00    -0.248 A  
HETATM   10  C   UNL     1     -12.277  11.332  70.078  1.00  0.00    -0.389 A  
HETATM   11  F   UNL     1     -13.660   8.667  72.974  1.00  0.00    -0.304 F  
HETATM   12  F   UNL     1     -13.074   7.017  71.685  1.00  0.00    -0.379 F  
HETATM   13  C   UNL     1     -12.756  10.410  71.016  1.00  0.00    -0.490 A  
HETATM   14  F   UNL     1     -11.653   7.846  73.108  1.00  0.00    -0.436 F  
HETATM   15  C   UNL     1     -12.147   9.160  71.175  1.00  0.00    -0.365 A  
HETATM   16  C   UNL     1     -12.630   8.187  72.222  1.00  0.00    -0.273 C  
HETATM   17  C   UNL     1     -11.060   8.840  70.348  1.00  0.00    -0.261 A  
ENDBRANCH   7   8
BRANCH   7  18
HETATM   18  N   UNL     1     -11.244  13.056  67.952  1.00  0.00    -0.257 NA 
HETATM   19  H   UNL     1     -12.248  13.018  67.776  1.00  0.00     0.000 HD 
BRANCH  18  20
HETATM   20  O   UNL     1     -10.456  14.203  67.799  1.00  0.00    -0.242 OA 
BRANCH  20  21
HETATM   21  C   UNL     1     -11.123  15.158  66.975  1.00  0.00    -0.328 C  
BRANCH  21  22
HETATM   22  C   UNL     1     -10.094  15.646  65.949  1.00  0.00    -0.353 C  
HETATM   23  H2  UNL     1     -10.152  17.628  66.484  1.00  0.00     0.000 HD 
HETATM   24  H1  UNL     1      -9.515  17.392  64.952  1.00  0.00     0.000 HD 
HETATM   25  N   UNL     1     -10.200  17.068  65.634  1.00  0.00    -0.599 NA 
ENDBRANCH  21  22
ENDBRANCH  20  21
ENDBRANCH  18  20
ENDBRANCH   7  18
ENDBRANCH   6   7
ENDBRANCH   5   6
ENDBRANCH   4   5
ENDBRANCH   3   4
ENDBRANCH   2   3
TORSDOF 10
ENDMDL
MODEL       77
REMARK 921   NORMALIZED FREE ENERGY PREDICTED BY IDOCK:   -4.52 KCAL/MOL
REMARK 922        TOTAL FREE ENERGY PREDICTED BY IDOCK:   -8.28 KCAL/MOL
REMARK 923 INTER-LIGAND FREE ENERGY PREDICTED BY IDOCK:   -7.97 KCAL/MOL
REMARK 924 INTRA-LIGAND FREE ENERGY PREDICTED BY IDOCK:   -0.31 KCAL/MOL
REMARK 927      BINDING AFFINITY PREDICTED BY RF-SCORE:    0.00 PKD
ROOT
HETATM    1  C   UNL     1     -10.936   6.163  67.884  1.00  0.00    -0.304 C  
HETATM    2  O   UNL     1     -10.828   5.701  69.227  1.00  0.00    -0.303 OA 
ENDROOT
BRANCH   2   3
HETATM    3  C   UNL     1     -11.484   6.597  70.121  1.00  0.00    -0.385 C  
BRANCH   3   4
HETATM    4  C   UNL     1     -10.590   7.803  70.395  1.00  0.00    -0.227 C  
BRANCH   4   5
HETATM    5  C   UNL     1     -11.450   9.007  70.779  1.00  0.00    -0.331 C  
BRANCH   5   6
HETATM    6  C   UNL     1     -10.813  10.338  70.376  1.00  0.00    -0.320 C  
BRANCH   6   7
HETATM    7  C   UNL     1     -11.870  11.391  69.995  1.00  0.00    -0.359 C  
BRANCH   7   8
HETATM    8  C   UNL     1     -11.823  12.044  68.634  1.00  0.00    -0.366 A  
HETATM    9  C   UNL     1     -12.055  13.426  68.536  1.00  0.00    -0.283 A  
HETATM   10  C   UNL     1     -11.499  11.347  67.462  1.00  0.00    -0.336 A  
HETATM   11  F   UNL     1     -10.922  13.329  63.836  1.00  0.00    -0.386 F  
HETATM   12  F   UNL     1     -12.459  14.754  64.411  1.00  0.00    -0.480 F  
HETATM   13  C   UNL     1     -11.351  12.021  66.243  1.00  0.00    -0.415 A  
HETATM   14  F   UNL     1     -10.382  15.113  64.952  1.00  0.00    -0.386 F  
HETATM   15  C   UNL     1     -11.540  13.404  66.156  1.00  0.00    -0.378 A  
HETATM   16  C   UNL     1     -11.328  14.138  64.854  1.00  0.00    -0.365 C  
HETATM   17  C   UNL     1     -11.913  14.099  67.316  1.00  0.00    -0.449 A  
ENDBRANCH   7   8
BRANCH   7  18
HETATM   18  N   UNL     1     -12.793  11.780  70.835  1.00  0.00    -0.215 NA 
HETATM   19  H   UNL     1     -13.650  11.262  71.030  1.00  0.00     0.000 HD 
BRANCH  18  20
HETATM   20  O   UNL     1     -12.452  12.999  71.431  1.00  0.00    -0.287 OA 
BRANCH  20  21
HETATM   21  C   UNL     1     -13.521  13.468  72.252  1.00  0.00    -0.571 C  
BRANCH  21  22
HETATM   22  C   UNL     1     -13.233  14.946  72.542  1.00  0.00    -0.408 C  
HETATM   23  H2  UNL     1     -11.466  15.048  71.500  1.00  0.00     0.000 HD 
HETATM   24  H1  UNL     1     -11.632  16.293  72.611  1.00  0.00     0.000 HD 
HETATM   25  N   UNL     1     -11.824  15.310  72.418  1.00  0.00    -0.417 NA 
ENDBRANCH  21  22
ENDBRANCH  20  21
ENDBRANCH  18  20
ENDBRANCH   7  18
ENDBRANCH   6   7
ENDBRANCH   5   6
ENDBRANCH   4   5
ENDBRANCH   3   4
ENDBRANCH   2   3
TORSDOF 10
ENDMDL
MODEL       78
REMARK 921   NORMALIZED FREE ENERGY PREDICTED BY IDOCK:   -4.50 KCAL/MOL
REMARK 922        TOTAL FREE ENERGY PREDICTED BY IDOCK:   -8.24 KCAL/MOL
REMARK 923 INTER-LIGAND FREE ENERGY PREDICTED BY IDOCK:   -7.30 KCAL/MOL
REMARK 924 INTRA-LIGAND FREE ENERGY PREDICTED BY IDOCK:   -0.94 KCAL/MOL
REMARK 927      BINDING AFFINITY PREDICTED BY RF-SCORE:    0.00 PKD
ROOT
HETATM    1  C   UNL     1     -13.643   7.760  71.498  1.00  0.00    -0.331 C  
HETATM    2  O   UNL     1     -13.797   9.069  72.037  1.00  0.00    -0.412 OA 
ENDROOT
BRANCH   2   3
HETATM    3  C   UNL     1     -12.766   9.931  71.564  1.00  0.00    -0.415 C  
BRANCH   3   4
HETATM    4  C   UNL     1     -13.154  11.386  71.805  1.00  0.00    -0.523 C  
BRANCH   4   5
HETATM    5  C   UNL     1     -12.468  12.282  70.774  1.00  0.00    -0.356 C  
BRANCH   5   6
HETATM    6  C   UNL     1     -11.593  11.493  69.799  1.00  0.00    -0.401 C  
BRANCH   6   7
HETATM    7  C   UNL     1     -11.485  12.189  68.429  1.00  0.00    -0.304 C  
BRANCH   7   8
HETATM    8  C   UNL     1     -11.014  13.621  68.350  1.00  0.00    -0.284 A  
HETATM    9  C   UNL     1      -9.677  13.878  68.000  1.00  0.00    -0.226 A  
HETATM   10  C   UNL     1     -11.862  14.718  68.551  1.00  0.00    -0.340 A  
HETATM   11  F   UNL     1     -10.583  18.625  67.838  1.00  0.00    -0.387 F  
HETATM   12  F   UNL     1      -8.598  18.062  68.520  1.00  0.00    -0.278 F  
HETATM   13  C   UNL     1     -11.406  16.027  68.349  1.00  0.00    -0.355 A  
HETATM   14  F   UNL     1      -9.133  17.841  66.423  1.00  0.00    -0.260 F  
HETATM   15  C   UNL     1     -10.086  16.278  67.960  1.00  0.00    -0.245 A  
HETATM   16  C   UNL     1      -9.609  17.684  67.690  1.00  0.00    -0.268 C  
HETATM   17  C   UNL     1      -9.219  15.187  67.804  1.00  0.00    -0.180 A  
ENDBRANCH   7   8
BRANCH   7  18
HETATM   18  N   UNL     1     -11.837  11.592  67.320  1.00  0.00    -0.626 NA 
HETATM   19  H   UNL     1     -12.613  11.888  66.728  1.00  0.00     0.000 HD 
BRANCH  18  20
HETATM   20  O   UNL     1     -11.011  10.494  67.053  1.00  0.00    -0.257 OA 
BRANCH  20  21
HETATM   21  C   UNL     1      -9.999  10.850  66.112  1.00  0.00    -0.233 C  
BRANCH  21  22
HETATM   22  C   UNL     1     -10.725  11.365  64.864  1.00  0.00    -0.286 C  
HETATM   23  H2  UNL     1      -9.634  13.093  64.657  1.00  0.00     0.000 HD 
HETATM   24  H1  UNL     1     -11.095  13.151  63.837  1.00  0.00     0.000 HD 
HETATM   25  N   UNL     1     -10.613  12.808  64.667  1.00  0.00    -0.330 NA 
ENDBRANCH  21  22
ENDBRANCH  20  21
ENDBRANCH  18  20
ENDBRANCH   7  18
ENDBRANCH   6   7
ENDBRANCH   5   6
ENDBRANCH   4   5
ENDBRANCH   3   4
ENDBRANCH   2   3
TORSDOF 10
ENDMDL
MODEL       79
REMARK 921   NORMALIZED FREE ENERGY PREDICTED BY IDOCK:   -4.48 KCAL/MOL
REMARK 922        TOTAL FREE ENERGY PREDICTED BY IDOCK:   -8.20 KCAL/MOL
REMARK 923 INTER-LIGAND FREE ENERGY PREDICTED BY IDOCK:   -7.30 KCAL/MOL
REMARK 924 INTRA-LIGAND FREE ENERGY PREDICTED BY IDOCK:   -0.90 KCAL/MOL
REMARK 927      BINDING AFFINITY PREDICTED BY RF-SCORE:    0.00 PKD
ROOT
HETATM    1  C   UNL     1      -8.184   7.537  66.352  1.00  0.00    -0.122 C  
HETATM    2  O   UNL     1      -8.984   8.186  67.334  1.00  0.00    -0.135 OA 
ENDROOT
BRANCH   2   3
HETATM    3  C   UNL     1      -9.019   9.592  67.107  1.00  0.00    -0.134 C  
BRANCH   3   4
HETATM    4  C   UNL     1      -8.717  10.336  68.404  1.00  0.00    -0.129 C  
BRANCH   4   5
HETATM    5  C   UNL     1      -8.618  11.836  68.128  1.00  0.00    -0.160 C  
BRANCH   5   6
HETATM    6  C   UNL     1      -9.959  12.450  67.722  1.00  0.00    -0.205 C  
BRANCH   6   7
HETATM    7  C   UNL     1      -9.851  13.254  66.413  1.00  0.00    -0.281 C  
BRANCH   7   8
HETATM    8  C   UNL     1     -10.113  14.741  66.422  1.00  0.00    -0.291 A  
HETATM    9  C   UNL     1      -9.763  15.485  67.562  1.00  0.00    -0.215 A  
HETATM   10  C   UNL     1     -10.636  15.433  65.321  1.00  0.00    -0.450 A  
HETATM   11  F   UNL     1     -10.870  19.598  65.272  1.00  0.00    -0.563 F  
HETATM   12  F   UNL     1     -11.270  19.566  67.408  1.00  0.00    -0.578 F  
HETATM   13  C   UNL     1     -10.748  16.829  65.336  1.00  0.00    -0.201 A  
HETATM   14  F   UNL     1      -9.220  19.659  66.685  1.00  0.00    -0.324 F  
HETATM   15  C   UNL     1     -10.360  17.572  66.456  1.00  0.00    -0.325 A  
HETATM   16  C   UNL     1     -10.431  19.079  66.453  1.00  0.00    -0.446 C  
HETATM   17  C   UNL     1      -9.881  16.881  67.579  1.00  0.00    -0.260 A  
ENDBRANCH   7   8
BRANCH   7  18
HETATM   18  N   UNL     1      -9.584  12.681  65.269  1.00  0.00    -0.464 NA 
HETATM   19  H   UNL     1      -8.744  12.859  64.718  1.00  0.00     0.000 HD 
BRANCH  18  20
HETATM   20  O   UNL     1     -10.600  11.792  64.899  1.00  0.00    -0.271 OA 
BRANCH  20  21
HETATM   21  C   UNL     1     -10.871  11.900  63.503  1.00  0.00    -0.434 C  
BRANCH  21  22
HETATM   22  C   UNL     1     -12.160  12.719  63.370  1.00  0.00    -0.534 C  
HETATM   23  H2  UNL     1     -12.795  12.471  65.308  1.00  0.00     0.000 HD 
HETATM   24  H1  UNL     1     -14.034  12.934  64.278  1.00  0.00     0.000 HD 
HETATM   25  N   UNL     1     -13.177  12.389  64.366  1.00  0.00    -0.778 NA 
ENDBRANCH  21  22
ENDBRANCH  20  21
ENDBRANCH  18  20
ENDBRANCH   7  18
ENDBRANCH   6   7
ENDBRANCH   5   6
ENDBRANCH   4   5
ENDBRANCH   3   4
ENDBRANCH   2   3
TORSDOF 10
ENDMDL
MODEL       80
REMARK 921   NORMALIZED FREE ENERGY PREDICTED BY IDOCK:   -4.47 KCAL/MOL
REMARK 922        TOTAL FREE ENERGY PREDICTED BY IDOCK:   -8.19 KCAL/MOL
REMARK 923 INTER-LIGAND FREE ENERGY PREDICTED BY IDOCK:   -6.96 KCAL/MOL
REMARK 924 INTRA-LIGAND FREE ENERGY PREDICTED BY IDOCK:   -1.23 KCAL/MOL
REMARK 927      BINDING AFFINITY PREDICTED BY RF-SCORE:    0.00 PKD
ROOT
HETATM    1  C   UNL     1      -6.590  10.152  70.403  1.00  0.00    -0.132 C  
HETATM    2  O   UNL     1      -6.595  10.328  68.990  1.00  0.00    -0.050 OA 
ENDROOT
BRANCH   2   3
HETATM    3  C   UNL     1      -6.971  11.660  68.651  1.00  0.00    -0.088 C  
BRANCH   3   4
HETATM    4  C   UNL     1      -7.276  11.749  67.159  1.00  0.00    -0.147 C  
BRANCH   4   5
HETATM    5  C   UNL     1      -8.630  12.428  66.948  1.00  0.00    -0.171 C  
BRANCH   5   6
HETATM    6  C   UNL     1      -9.277  12.870  68.262  1.00  0.00    -0.187 C  
BRANCH   6   7
HETATM    7  C   UNL     1     -10.788  12.573  68.287  1.00  0.00    -0.234 C  
BRANCH   7   8
HETATM    8  C   UNL     1     -11.332  11.529  69.234  1.00  0.00    -0.353 A  
HETATM    9  C   UNL     1     -10.729  10.260  69.264  1.00  0.00    -0.265 A  
HETATM   10  C   UNL     1     -12.377  11.782  70.133  1.00  0.00    -0.272 A  
HETATM   11  F   UNL     1     -13.481   8.993  73.033  1.00  0.00    -0.465 F  
HETATM   12  F   UNL     1     -12.997   7.400  71.635  1.00  0.00    -0.338 F  
HETATM   13  C   UNL     1     -12.765  10.819  71.073  1.00  0.00    -0.513 A  
HETATM   14  F   UNL     1     -11.463   8.190  72.960  1.00  0.00    -0.450 F  
HETATM   15  C   UNL     1     -12.135   9.571  71.130  1.00  0.00    -0.429 A  
HETATM   16  C   UNL     1     -12.516   8.553  72.176  1.00  0.00    -0.379 C  
HETATM   17  C   UNL     1     -11.121   9.294  70.200  1.00  0.00    -0.260 A  
ENDBRANCH   7   8
BRANCH   7  18
HETATM   18  N   UNL     1     -11.623  13.166  67.476  1.00  0.00    -0.331 NA 
HETATM   19  H   UNL     1     -11.782  14.173  67.447  1.00  0.00     0.000 HD 
BRANCH  18  20
HETATM   20  O   UNL     1     -12.271  12.238  66.651  1.00  0.00    -0.574 OA 
BRANCH  20  21
HETATM   21  C   UNL     1     -12.127  12.605  65.280  1.00  0.00    -0.467 C  
BRANCH  21  22
HETATM   22  C   UNL     1     -12.379  14.115  65.202  1.00  0.00    -0.451 C  
HETATM   23  H2  UNL     1     -10.722  14.570  64.077  1.00  0.00     0.000 HD 
HETATM   24  H1  UNL     1     -11.348  15.906  64.872  1.00  0.00     0.000 HD 
HETATM   25  N   UNL     1     -11.180  14.902  64.925  1.00  0.00    -0.399 NA 
ENDBRANCH  21  22
ENDBRANCH  20  21
ENDBRANCH  18  20
ENDBRANCH   7  18
ENDBRANCH   6   7
ENDBRANCH   5   6
ENDBRANCH   4   5
ENDBRANCH   3   4
ENDBRANCH   2   3
TORSDOF 10
ENDMDL
MODEL       81
REMARK 921   NORMALIZED FREE ENERGY PREDICTED BY IDOCK:   -4.45 KCAL/MOL
REMARK 922        TOTAL FREE ENERGY PREDICTED BY IDOCK:   -8.16 KCAL/MOL
REMARK 923 INTER-LIGAND FREE ENERGY PREDICTED BY IDOCK:   -7.35 KCAL/MOL
REMARK 924 INTRA-LIGAND FREE ENERGY PREDICTED BY IDOCK:   -0.81 KCAL/MOL
REMARK 927      BINDING AFFINITY PREDICTED BY RF-SCORE:    0.00 PKD
ROOT
HETATM    1  C   UNL     1     -11.909  15.570  63.964  1.00  0.00     0.044 C  
HETATM    2  O   UNL     1     -12.753  14.454  63.703  1.00  0.00    -0.773 OA 
ENDROOT
BRANCH   2   3
HETATM    3  C   UNL     1     -11.978  13.279  63.480  1.00  0.00    -0.474 C  
BRANCH   3   4
HETATM    4  C   UNL     1     -12.208  12.283  64.613  1.00  0.00    -0.454 C  
BRANCH   4   5
HETATM    5  C   UNL     1     -12.502  13.036  65.911  1.00  0.00    -0.323 C  
BRANCH   5   6
HETATM    6  C   UNL     1     -11.463  12.759  66.999  1.00  0.00    -0.397 C  
BRANCH   6   7
HETATM    7  C   UNL     1     -10.127  13.472  66.715  1.00  0.00    -0.268 C  
BRANCH   7   8
HETATM    8  C   UNL     1      -9.995  14.953  66.981  1.00  0.00    -0.240 A  
HETATM    9  C   UNL     1      -9.055  15.694  66.246  1.00  0.00    -0.376 A  
HETATM   10  C   UNL     1     -10.810  15.642  67.890  1.00  0.00    -0.306 A  
HETATM   11  F   UNL     1     -10.696  19.801  68.202  1.00  0.00    -0.520 F  
HETATM   12  F   UNL     1      -8.566  19.739  67.776  1.00  0.00    -0.332 F  
HETATM   13  C   UNL     1     -10.730  17.035  68.014  1.00  0.00    -0.365 A  
HETATM   14  F   UNL     1      -9.998  19.888  66.146  1.00  0.00    -0.446 F  
HETATM   15  C   UNL     1      -9.823  17.776  67.250  1.00  0.00    -0.312 A  
HETATM   16  C   UNL     1      -9.773  19.282  67.345  1.00  0.00    -0.323 C  
HETATM   17  C   UNL     1      -8.971  17.087  66.375  1.00  0.00    -0.308 A  
ENDBRANCH   7   8
BRANCH   7  18
HETATM   18  N   UNL     1      -9.104  12.844  66.199  1.00  0.00    -0.449 NA 
HETATM   19  H   UNL     1      -8.509  13.220  65.460  1.00  0.00     0.000 HD 
BRANCH  18  20
HETATM   20  O   UNL     1      -8.930  11.588  66.793  1.00  0.00    -0.169 OA 
BRANCH  20  21
HETATM   21  C   UNL     1      -8.131  10.750  65.959  1.00  0.00    -0.158 C  
BRANCH  21  22
HETATM   22  C   UNL     1      -9.038  10.274  64.819  1.00  0.00    -0.219 C  
HETATM   23  H2  UNL     1      -8.075   8.491  64.484  1.00  0.00     0.000 HD 
HETATM   24  H1  UNL     1      -9.020   8.967  63.184  1.00  0.00     0.000 HD 
HETATM   25  N   UNL     1      -8.417   9.284  63.942  1.00  0.00    -0.184 NA 
ENDBRANCH  21  22
ENDBRANCH  20  21
ENDBRANCH  18  20
ENDBRANCH   7  18
ENDBRANCH   6   7
ENDBRANCH   5   6
ENDBRANCH   4   5
ENDBRANCH   3   4
ENDBRANCH   2   3
TORSDOF 10
ENDMDL
MODEL       82
REMARK 921   NORMALIZED FREE ENERGY PREDICTED BY IDOCK:   -4.44 KCAL/MOL
REMARK 922        TOTAL FREE ENERGY PREDICTED BY IDOCK:   -8.15 KCAL/MOL
REMARK 923 INTER-LIGAND FREE ENERGY PREDICTED BY IDOCK:   -7.38 KCAL/MOL
REMARK 924 INTRA-LIGAND FREE ENERGY PREDICTED BY IDOCK:   -0.77 KCAL/MOL
REMARK 927      BINDING AFFINITY PREDICTED BY RF-SCORE:    0.00 PKD
ROOT
HETATM    1  C   UNL     1     -12.367  16.044  74.503  1.00  0.00    -0.556 C  
HETATM    2  O   UNL     1     -12.321  15.220  73.343  1.00  0.00    -0.416 OA 
ENDROOT
BRANCH   2   3
HETATM    3  C   UNL     1     -11.926  15.979  72.203  1.00  0.00    -0.538 C  
BRANCH   3   4
HETATM    4  C   UNL     1     -12.667  15.481  70.966  1.00  0.00    -0.526 C  
BRANCH   4   5
HETATM    5  C   UNL     1     -11.661  14.990  69.925  1.00  0.00    -0.343 C  
BRANCH   5   6
HETATM    6  C   UNL     1     -12.276  13.998  68.935  1.00  0.00    -0.261 C  
BRANCH   6   7
HETATM    7  C   UNL     1     -11.348  12.798  68.672  1.00  0.00    -0.294 C  
BRANCH   7   8
HETATM    8  C   UNL     1     -11.467  11.555  69.522  1.00  0.00    -0.378 A  
HETATM    9  C   UNL     1     -12.300  11.585  70.653  1.00  0.00    -0.457 A  
HETATM   10  C   UNL     1     -10.833  10.346  69.204  1.00  0.00    -0.274 A  
HETATM   11  F   UNL     1     -11.610   6.848  71.340  1.00  0.00    -0.277 F  
HETATM   12  F   UNL     1     -11.846   8.042  73.141  1.00  0.00    -0.401 F  
HETATM   13  C   UNL     1     -11.071   9.190  69.957  1.00  0.00    -0.208 A  
HETATM   14  F   UNL     1     -13.560   7.654  71.858  1.00  0.00    -0.340 F  
HETATM   15  C   UNL     1     -11.933   9.211  71.059  1.00  0.00    -0.344 A  
HETATM   16  C   UNL     1     -12.231   7.954  71.838  1.00  0.00    -0.314 C  
HETATM   17  C   UNL     1     -12.533  10.429  71.411  1.00  0.00    -0.521 A  
ENDBRANCH   7   8
BRANCH   7  18
HETATM   18  N   UNL     1     -10.415  12.833  67.757  1.00  0.00    -0.219 NA 
HETATM   19  H   UNL     1     -10.578  12.685  66.761  1.00  0.00     0.000 HD 
BRANCH  18  20
HETATM   20  O   UNL     1      -9.162  13.098  68.322  1.00  0.00    -0.207 OA 
BRANCH  20  21
HETATM   21  C   UNL     1      -8.140  12.387  67.625  1.00  0.00    -0.168 C  
BRANCH  21  22
HETATM   22  C   UNL     1      -8.797  11.792  66.375  1.00  0.00    -0.170 C  
HETATM   23  H2  UNL     1      -7.853   9.969  66.461  1.00  0.00     0.000 HD 
HETATM   24  H1  UNL     1      -8.477  10.301  64.941  1.00  0.00     0.000 HD 
HETATM   25  N   UNL     1      -8.040  10.697  65.772  1.00  0.00    -0.162 NA 
ENDBRANCH  21  22
ENDBRANCH  20  21
ENDBRANCH  18  20
ENDBRANCH   7  18
ENDBRANCH   6   7
ENDBRANCH   5   6
ENDBRANCH   4   5
ENDBRANCH   3   4
ENDBRANCH   2   3
TORSDOF 10
ENDMDL
MODEL       83
REMARK 921   NORMALIZED FREE ENERGY PREDICTED BY IDOCK:   -4.44 KCAL/MOL
REMARK 922        TOTAL FREE ENERGY PREDICTED BY IDOCK:   -8.13 KCAL/MOL
REMARK 923 INTER-LIGAND FREE ENERGY PREDICTED BY IDOCK:   -6.94 KCAL/MOL
REMARK 924 INTRA-LIGAND FREE ENERGY PREDICTED BY IDOCK:   -1.20 KCAL/MOL
REMARK 927      BINDING AFFINITY PREDICTED BY RF-SCORE:    0.00 PKD
ROOT
HETATM    1  C   UNL     1     -12.177  12.538  63.479  1.00  0.00    -0.558 C  
HETATM    2  O   UNL     1     -11.645  13.132  64.659  1.00  0.00    -0.320 OA 
ENDROOT
BRANCH   2   3
HETATM    3  C   UNL     1     -10.868  12.188  65.391  1.00  0.00    -0.294 C  
BRANCH   3   4
HETATM    4  C   UNL     1     -11.374  12.099  66.827  1.00  0.00    -0.398 C  
BRANCH   4   5
HETATM    5  C   UNL     1     -12.075  13.403  67.209  1.00  0.00    -0.352 C  
BRANCH   5   6
HETATM    6  C   UNL     1     -11.595  13.958  68.551  1.00  0.00    -0.367 C  
BRANCH   6   7
HETATM    7  C   UNL     1     -10.205  14.613  68.440  1.00  0.00    -0.235 C  
BRANCH   7   8
HETATM    8  C   UNL     1     -10.088  16.054  68.006  1.00  0.00    -0.240 A  
HETATM    9  C   UNL     1      -9.465  16.974  68.866  1.00  0.00    -0.235 A  
HETATM   10  C   UNL     1     -10.518  16.514  66.753  1.00  0.00    -0.269 A  
HETATM   11  F   UNL     1      -9.714  20.398  65.460  1.00  0.00    -0.409 F  
HETATM   12  F   UNL     1      -9.920  21.086  67.512  1.00  0.00    -0.588 F  
HETATM   13  C   UNL     1     -10.278  17.833  66.350  1.00  0.00    -0.365 A  
HETATM   14  F   UNL     1      -7.983  20.425  66.773  1.00  0.00    -0.318 F  
HETATM   15  C   UNL     1      -9.620  18.736  67.192  1.00  0.00    -0.328 A  
HETATM   16  C   UNL     1      -9.315  20.142  66.738  1.00  0.00    -0.386 C  
HETATM   17  C   UNL     1      -9.231  18.296  68.466  1.00  0.00    -0.335 A  
ENDBRANCH   7   8
BRANCH   7  18
HETATM   18  N   UNL     1      -9.105  13.944  68.666  1.00  0.00    -0.342 NA 
HETATM   19  H   UNL     1      -8.837  13.564  69.574  1.00  0.00     0.000 HD 
BRANCH  18  20
HETATM   20  O   UNL     1      -8.342  13.818  67.499  1.00  0.00    -0.167 OA 
BRANCH  20  21
HETATM   21  C   UNL     1      -7.031  13.349  67.810  1.00  0.00    -0.156 C  
BRANCH  21  22
HETATM   22  C   UNL     1      -6.156  14.593  68.004  1.00  0.00    -0.156 C  
HETATM   23  H2  UNL     1      -6.254  14.630  70.055  1.00  0.00     0.000 HD 
HETATM   24  H1  UNL     1      -5.791  16.104  69.406  1.00  0.00     0.000 HD 
HETATM   25  N   UNL     1      -6.373  15.277  69.276  1.00  0.00    -0.118 NA 
ENDBRANCH  21  22
ENDBRANCH  20  21
ENDBRANCH  18  20
ENDBRANCH   7  18
ENDBRANCH   6   7
ENDBRANCH   5   6
ENDBRANCH   4   5
ENDBRANCH   3   4
ENDBRANCH   2   3
TORSDOF 10
ENDMDL
MODEL       84
REMARK 921   NORMALIZED FREE ENERGY PREDICTED BY IDOCK:   -4.43 KCAL/MOL
REMARK 922        TOTAL FREE ENERGY PREDICTED BY IDOCK:   -8.12 KCAL/MOL
REMARK 923 INTER-LIGAND FREE ENERGY PREDICTED BY IDOCK:   -7.41 KCAL/MOL
REMARK 924 INTRA-LIGAND FREE ENERGY PREDICTED BY IDOCK:   -0.71 KCAL/MOL
REMARK 927      BINDING AFFINITY PREDICTED BY RF-SCORE:    0.00 PKD
ROOT
HETATM    1  C   UNL     1     -12.247  14.719  64.158  1.00  0.00    -0.295 C  
HETATM    2  O   UNL     1     -12.454  13.706  63.179  1.00  0.00    -0.786 OA 
ENDROOT
BRANCH   2   3
HETATM    3  C   UNL     1     -12.212  12.415  63.731  1.00  0.00    -0.533 C  
BRANCH   3   4
HETATM    4  C   UNL     1     -12.236  12.490  65.255  1.00  0.00    -0.493 C  
BRANCH   4   5
HETATM    5  C   UNL     1     -11.037  11.733  65.828  1.00  0.00    -0.351 C  
BRANCH   5   6
HETATM    6  C   UNL     1      -9.846  12.649  66.113  1.00  0.00    -0.265 C  
BRANCH   6   7
HETATM    7  C   UNL     1      -9.810  13.107  67.584  1.00  0.00    -0.219 C  
BRANCH   7   8
HETATM    8  C   UNL     1     -10.428  12.239  68.655  1.00  0.00    -0.228 A  
HETATM    9  C   UNL     1     -11.696  12.578  69.156  1.00  0.00    -0.375 A  
HETATM   10  C   UNL     1      -9.822  11.070  69.136  1.00  0.00    -0.117 A  
HETATM   11  F   UNL     1     -11.820   8.489  71.735  1.00  0.00    -0.305 F  
HETATM   12  F   UNL     1     -12.793  10.210  72.639  1.00  0.00    -0.322 F  
HETATM   13  C   UNL     1     -10.488  10.236  70.042  1.00  0.00    -0.293 A  
HETATM   14  F   UNL     1     -13.703   9.216  70.932  1.00  0.00    -0.285 F  
HETATM   15  C   UNL     1     -11.769  10.553  70.507  1.00  0.00    -0.443 A  
HETATM   16  C   UNL     1     -12.509   9.628  71.441  1.00  0.00    -0.373 C  
HETATM   17  C   UNL     1     -12.360  11.747  70.067  1.00  0.00    -0.233 A  
ENDBRANCH   7   8
BRANCH   7  18
HETATM   18  N   UNL     1      -9.300  14.257  67.939  1.00  0.00    -0.192 NA 
HETATM   19  H   UNL     1      -8.312  14.411  68.141  1.00  0.00     0.000 HD 
BRANCH  18  20
HETATM   20  O   UNL     1     -10.286  15.248  68.005  1.00  0.00    -0.239 OA 
BRANCH  20  21
HETATM   21  C   UNL     1     -10.029  16.271  67.043  1.00  0.00    -0.255 C  
BRANCH  21  22
HETATM   22  C   UNL     1      -8.544  16.166  66.680  1.00  0.00    -0.276 C  
HETATM   23  H2  UNL     1      -8.249  18.167  66.324  1.00  0.00     0.000 HD 
HETATM   24  H1  UNL     1      -7.065  17.207  65.627  1.00  0.00     0.000 HD 
HETATM   25  N   UNL     1      -8.053  17.277  65.868  1.00  0.00    -0.536 NA 
ENDBRANCH  21  22
ENDBRANCH  20  21
ENDBRANCH  18  20
ENDBRANCH   7  18
ENDBRANCH   6   7
ENDBRANCH   5   6
ENDBRANCH   4   5
ENDBRANCH   3   4
ENDBRANCH   2   3
TORSDOF 10
ENDMDL
MODEL       85
REMARK 921   NORMALIZED FREE ENERGY PREDICTED BY IDOCK:   -4.42 KCAL/MOL
REMARK 922        TOTAL FREE ENERGY PREDICTED BY IDOCK:   -8.11 KCAL/MOL
REMARK 923 INTER-LIGAND FREE ENERGY PREDICTED BY IDOCK:   -7.05 KCAL/MOL
REMARK 924 INTRA-LIGAND FREE ENERGY PREDICTED BY IDOCK:   -1.06 KCAL/MOL
REMARK 927      BINDING AFFINITY PREDICTED BY RF-SCORE:    0.00 PKD
ROOT
HETATM    1  C   UNL     1     -11.951  11.784  63.602  1.00  0.00    -0.385 C  
HETATM    2  O   UNL     1     -12.417  12.809  64.474  1.00  0.00    -0.499 OA 
ENDROOT
BRANCH   2   3
HETATM    3  C   UNL     1     -12.196  14.095  63.901  1.00  0.00    -0.247 C  
BRANCH   3   4
HETATM    4  C   UNL     1     -11.345  14.943  64.842  1.00  0.00    -0.415 C  
BRANCH   4   5
HETATM    5  C   UNL     1     -11.834  14.768  66.280  1.00  0.00    -0.215 C  
BRANCH   5   6
HETATM    6  C   UNL     1     -10.920  15.450  67.299  1.00  0.00    -0.317 C  
BRANCH   6   7
HETATM    7  C   UNL     1     -10.194  14.429  68.195  1.00  0.00    -0.232 C  
BRANCH   7   8
HETATM    8  C   UNL     1     -10.993  13.419  68.982  1.00  0.00    -0.265 A  
HETATM    9  C   UNL     1     -10.818  12.052  68.709  1.00  0.00    -0.267 A  
HETATM   10  C   UNL     1     -11.865  13.775  70.021  1.00  0.00    -0.377 A  
HETATM   11  F   UNL     1     -13.655  10.893  72.449  1.00  0.00    -0.466 F  
HETATM   12  F   UNL     1     -13.758   9.563  70.734  1.00  0.00    -0.326 F  
HETATM   13  C   UNL     1     -12.492  12.795  70.800  1.00  0.00    -0.357 A  
HETATM   14  F   UNL     1     -11.996   9.561  72.010  1.00  0.00    -0.428 F  
HETATM   15  C   UNL     1     -12.283  11.434  70.554  1.00  0.00    -0.478 A  
HETATM   16  C   UNL     1     -12.916  10.379  71.427  1.00  0.00    -0.443 C  
HETATM   17  C   UNL     1     -11.451  11.072  69.484  1.00  0.00    -0.370 A  
ENDBRANCH   7   8
BRANCH   7  18
HETATM   18  N   UNL     1      -8.894  14.436  68.338  1.00  0.00    -0.178 NA 
HETATM   19  H   UNL     1      -8.254  13.841  67.811  1.00  0.00     0.000 HD 
BRANCH  18  20
HETATM   20  O   UNL     1      -8.497  15.363  69.307  1.00  0.00    -0.229 OA 
BRANCH  20  21
HETATM   21  C   UNL     1      -7.099  15.631  69.197  1.00  0.00    -0.168 C  
BRANCH  21  22
HETATM   22  C   UNL     1      -6.721  15.382  67.732  1.00  0.00    -0.166 C  
HETATM   23  H2  UNL     1      -6.850  17.339  67.123  1.00  0.00     0.000 HD 
HETATM   24  H1  UNL     1      -6.927  16.259  65.843  1.00  0.00     0.000 HD 
HETATM   25  N   UNL     1      -7.179  16.424  66.817  1.00  0.00    -0.220 NA 
ENDBRANCH  21  22
ENDBRANCH  20  21
ENDBRANCH  18  20
ENDBRANCH   7  18
ENDBRANCH   6   7
ENDBRANCH   5   6
ENDBRANCH   4   5
ENDBRANCH   3   4
ENDBRANCH   2   3
TORSDOF 10
ENDMDL
MODEL       86
REMARK 921   NORMALIZED FREE ENERGY PREDICTED BY IDOCK:   -4.41 KCAL/MOL
REMARK 922        TOTAL FREE ENERGY PREDICTED BY IDOCK:   -8.09 KCAL/MOL
REMARK 923 INTER-LIGAND FREE ENERGY PREDICTED BY IDOCK:   -7.06 KCAL/MOL
REMARK 924 INTRA-LIGAND FREE ENERGY PREDICTED BY IDOCK:   -1.04 KCAL/MOL
REMARK 927      BINDING AFFINITY PREDICTED BY RF-SCORE:    0.00 PKD
ROOT
HETATM    1  C   UNL     1      -6.206  14.345  69.290  1.00  0.00    -0.110 C  
HETATM    2  O   UNL     1      -7.071  15.447  69.036  1.00  0.00    -0.123 OA 
ENDROOT
BRANCH   2   3
HETATM    3  C   UNL     1      -8.216  15.029  68.297  1.00  0.00    -0.146 C  
BRANCH   3   4
HETATM    4  C   UNL     1      -9.481  15.290  69.108  1.00  0.00    -0.236 C  
BRANCH   4   5
HETATM    5  C   UNL     1     -10.565  14.287  68.711  1.00  0.00    -0.255 C  
BRANCH   5   6
HETATM    6  C   UNL     1     -10.067  13.255  67.698  1.00  0.00    -0.229 C  
BRANCH   6   7
HETATM    7  C   UNL     1     -11.070  12.100  67.513  1.00  0.00    -0.275 C  
BRANCH   7   8
HETATM    8  C   UNL     1     -11.305  11.122  68.640  1.00  0.00    -0.342 A  
HETATM    9  C   UNL     1     -10.357  10.112  68.871  1.00  0.00    -0.223 A  
HETATM   10  C   UNL     1     -12.399  11.208  69.512  1.00  0.00    -0.262 A  
HETATM   11  F   UNL     1     -12.703   8.763  72.879  1.00  0.00    -0.451 F  
HETATM   12  F   UNL     1     -11.739   7.167  71.763  1.00  0.00    -0.272 F  
HETATM   13  C   UNL     1     -12.509  10.352  70.614  1.00  0.00    -0.437 A  
HETATM   14  F   UNL     1     -10.537   8.589  72.888  1.00  0.00    -0.369 F  
HETATM   15  C   UNL     1     -11.541   9.373  70.867  1.00  0.00    -0.380 A  
HETATM   16  C   UNL     1     -11.632   8.486  72.084  1.00  0.00    -0.377 C  
HETATM   17  C   UNL     1     -10.470   9.251  69.970  1.00  0.00    -0.254 A  
ENDBRANCH   7   8
BRANCH   7  18
HETATM   18  N   UNL     1     -11.699  11.904  66.384  1.00  0.00    -0.541 NA 
HETATM   19  H   UNL     1     -11.617  11.060  65.818  1.00  0.00     0.000 HD 
BRANCH  18  20
HETATM   20  O   UNL     1     -12.500  13.003  66.055  1.00  0.00    -0.463 OA 
BRANCH  20  21
HETATM   21  C   UNL     1     -12.281  13.390  64.699  1.00  0.00    -0.407 C  
BRANCH  21  22
HETATM   22  C   UNL     1     -12.105  12.095  63.898  1.00  0.00    -0.488 C  
HETATM   23  H2  UNL     1     -10.063  11.981  64.084  1.00  0.00     0.000 HD 
HETATM   24  H1  UNL     1     -10.647  11.055  62.814  1.00  0.00     0.000 HD 
HETATM   25  N   UNL     1     -10.764  11.917  63.347  1.00  0.00    -0.415 NA 
ENDBRANCH  21  22
ENDBRANCH  20  21
ENDBRANCH  18  20
ENDBRANCH   7  18
ENDBRANCH   6   7
ENDBRANCH   5   6
ENDBRANCH   4   5
ENDBRANCH   3   4
ENDBRANCH   2   3
TORSDOF 10
ENDMDL
MODEL       87
REMARK 921   NORMALIZED FREE ENERGY PREDICTED BY IDOCK:   -4.41 KCAL/MOL
REMARK 922        TOTAL FREE ENERGY PREDICTED BY IDOCK:   -8.09 KCAL/MOL
REMARK 923 INTER-LIGAND FREE ENERGY PREDICTED BY IDOCK:   -7.03 KCAL/MOL
REMARK 924 INTRA-LIGAND FREE ENERGY PREDICTED BY IDOCK:   -1.06 KCAL/MOL
REMARK 927      BINDING AFFINITY PREDICTED BY RF-SCORE:    0.00 PKD
ROOT
HETATM    1  C   UNL     1      -7.092  10.500  65.876  1.00  0.00    -0.134 C  
HETATM    2  O   UNL     1      -7.685  10.856  67.120  1.00  0.00    -0.113 OA 
ENDROOT
BRANCH   2   3
HETATM    3  C   UNL     1      -9.003  11.361  66.922  1.00  0.00    -0.171 C  
BRANCH   3   4
HETATM    4  C   UNL     1     -10.009  10.493  67.671  1.00  0.00    -0.202 C  
BRANCH   4   5
HETATM    5  C   UNL     1     -10.097  10.946  69.129  1.00  0.00    -0.198 C  
BRANCH   5   6
HETATM    6  C   UNL     1     -11.539  11.176  69.587  1.00  0.00    -0.398 C  
BRANCH   6   7
HETATM    7  C   UNL     1     -11.824  12.664  69.866  1.00  0.00    -0.294 C  
BRANCH   7   8
HETATM    8  C   UNL     1     -11.550  13.693  68.796  1.00  0.00    -0.359 A  
HETATM    9  C   UNL     1     -10.811  14.840  69.131  1.00  0.00    -0.267 A  
HETATM   10  C   UNL     1     -11.948  13.535  67.461  1.00  0.00    -0.385 A  
HETATM   11  F   UNL     1     -10.728  16.197  64.490  1.00  0.00    -0.397 F  
HETATM   12  F   UNL     1     -10.816  17.808  65.947  1.00  0.00    -0.326 F  
HETATM   13  C   UNL     1     -11.566  14.461  66.482  1.00  0.00    -0.388 A  
HETATM   14  F   UNL     1      -8.981  16.666  65.694  1.00  0.00    -0.263 F  
HETATM   15  C   UNL     1     -10.794  15.580  66.810  1.00  0.00    -0.291 A  
HETATM   16  C   UNL     1     -10.337  16.549  65.747  1.00  0.00    -0.341 C  
HETATM   17  C   UNL     1     -10.434  15.770  68.153  1.00  0.00    -0.263 A  
ENDBRANCH   7   8
BRANCH   7  18
HETATM   18  N   UNL     1     -12.256  13.079  71.027  1.00  0.00    -0.421 NA 
HETATM   19  H   UNL     1     -11.902  12.749  71.925  1.00  0.00     0.000 HD 
BRANCH  18  20
HETATM   20  O   UNL     1     -13.268  14.035  70.878  1.00  0.00    -0.286 OA 
BRANCH  20  21
HETATM   21  C   UNL     1     -13.948  14.237  72.115  1.00  0.00    -0.523 C  
BRANCH  21  22
HETATM   22  C   UNL     1     -13.478  15.592  72.656  1.00  0.00    -0.566 C  
HETATM   23  H2  UNL     1     -11.540  15.449  71.993  1.00  0.00     0.000 HD 
HETATM   24  H1  UNL     1     -11.721  16.584  73.213  1.00  0.00     0.000 HD 
HETATM   25  N   UNL     1     -12.034  15.682  72.854  1.00  0.00    -0.448 NA 
ENDBRANCH  21  22
ENDBRANCH  20  21
ENDBRANCH  18  20
ENDBRANCH   7  18
ENDBRANCH   6   7
ENDBRANCH   5   6
ENDBRANCH   4   5
ENDBRANCH   3   4
ENDBRANCH   2   3
TORSDOF 10
ENDMDL
MODEL       88
REMARK 921   NORMALIZED FREE ENERGY PREDICTED BY IDOCK:   -4.39 KCAL/MOL
REMARK 922        TOTAL FREE ENERGY PREDICTED BY IDOCK:   -8.06 KCAL/MOL
REMARK 923 INTER-LIGAND FREE ENERGY PREDICTED BY IDOCK:   -7.13 KCAL/MOL
REMARK 924 INTRA-LIGAND FREE ENERGY PREDICTED BY IDOCK:   -0.93 KCAL/MOL
REMARK 927      BINDING AFFINITY PREDICTED BY RF-SCORE:    0.00 PKD
ROOT
HETATM    1  C   UNL     1     -10.167   6.448  74.334  1.00  0.00    -0.324 C  
HETATM    2  O   UNL     1     -10.951   6.605  73.156  1.00  0.00    -0.266 OA 
ENDROOT
BRANCH   2   3
HETATM    3  C   UNL     1     -10.899   7.951  72.693  1.00  0.00    -0.364 C  
BRANCH   3   4
HETATM    4  C   UNL     1     -12.290   8.407  72.264  1.00  0.00    -0.436 C  
BRANCH   4   5
HETATM    5  C   UNL     1     -12.174   9.395  71.102  1.00  0.00    -0.402 C  
BRANCH   5   6
HETATM    6  C   UNL     1     -10.722   9.687  70.722  1.00  0.00    -0.401 C  
BRANCH   6   7
HETATM    7  C   UNL     1     -10.483   9.541  69.207  1.00  0.00    -0.212 C  
BRANCH   7   8
HETATM    8  C   UNL     1     -10.963  10.619  68.264  1.00  0.00    -0.314 A  
HETATM    9  C   UNL     1     -11.637  11.732  68.793  1.00  0.00    -0.367 A  
HETATM   10  C   UNL     1     -10.717  10.594  66.884  1.00  0.00    -0.297 A  
HETATM   11  F   UNL     1     -11.658  13.842  64.442  1.00  0.00    -0.359 F  
HETATM   12  F   UNL     1     -13.390  14.237  65.695  1.00  0.00    -0.526 F  
HETATM   13  C   UNL     1     -11.077  11.674  66.070  1.00  0.00    -0.325 A  
HETATM   14  F   UNL     1     -11.469  15.139  66.175  1.00  0.00    -0.344 F  
HETATM   15  C   UNL     1     -11.711  12.801  66.606  1.00  0.00    -0.459 A  
HETATM   16  C   UNL     1     -12.052  13.988  65.738  1.00  0.00    -0.427 C  
HETATM   17  C   UNL     1     -12.004  12.810  67.977  1.00  0.00    -0.315 A  
ENDBRANCH   7   8
BRANCH   7  18
HETATM   18  N   UNL     1      -9.914   8.481  68.695  1.00  0.00    -0.178 NA 
HETATM   19  H   UNL     1      -8.960   8.457  68.334  1.00  0.00     0.000 HD 
BRANCH  18  20
HETATM   20  O   UNL     1     -10.783   7.385  68.708  1.00  0.00    -0.194 OA 
BRANCH  20  21
HETATM   21  C   UNL     1     -10.799   6.747  67.432  1.00  0.00    -0.347 C  
BRANCH  21  22
HETATM   22  C   UNL     1      -9.336   6.611  66.993  1.00  0.00    -0.141 C  
HETATM   23  H2  UNL     1      -9.154   8.496  66.199  1.00  0.00     0.000 HD 
HETATM   24  H1  UNL     1      -7.976   7.444  65.638  1.00  0.00     0.000 HD 
HETATM   25  N   UNL     1      -8.948   7.534  65.930  1.00  0.00    -0.133 NA 
ENDBRANCH  21  22
ENDBRANCH  20  21
ENDBRANCH  18  20
ENDBRANCH   7  18
ENDBRANCH   6   7
ENDBRANCH   5   6
ENDBRANCH   4   5
ENDBRANCH   3   4
ENDBRANCH   2   3
TORSDOF 10
ENDMDL
MODEL       89
REMARK 921   NORMALIZED FREE ENERGY PREDICTED BY IDOCK:   -4.38 KCAL/MOL
REMARK 922        TOTAL FREE ENERGY PREDICTED BY IDOCK:   -8.05 KCAL/MOL
REMARK 923 INTER-LIGAND FREE ENERGY PREDICTED BY IDOCK:   -6.98 KCAL/MOL
REMARK 924 INTRA-LIGAND FREE ENERGY PREDICTED BY IDOCK:   -1.08 KCAL/MOL
REMARK 927      BINDING AFFINITY PREDICTED BY RF-SCORE:    0.00 PKD
ROOT
HETATM    1  C   UNL     1      -9.795   6.841  66.847  1.00  0.00    -0.175 C  
HETATM    2  O   UNL     1      -8.488   6.626  67.367  1.00  0.00    -0.120 OA 
ENDROOT
BRANCH   2   3
HETATM    3  C   UNL     1      -8.498   6.682  68.791  1.00  0.00    -0.123 C  
BRANCH   3   4
HETATM    4  C   UNL     1      -8.038   8.059  69.260  1.00  0.00    -0.118 C  
BRANCH   4   5
HETATM    5  C   UNL     1      -9.132   8.707  70.108  1.00  0.00    -0.163 C  
BRANCH   5   6
HETATM    6  C   UNL     1      -9.365  10.175  69.746  1.00  0.00    -0.183 C  
BRANCH   6   7
HETATM    7  C   UNL     1     -10.772  10.409  69.165  1.00  0.00    -0.234 C  
BRANCH   7   8
HETATM    8  C   UNL     1     -10.926  11.028  67.796  1.00  0.00    -0.323 A  
HETATM    9  C   UNL     1     -10.559  10.277  66.667  1.00  0.00    -0.232 A  
HETATM   10  C   UNL     1     -11.477  12.300  67.589  1.00  0.00    -0.401 A  
HETATM   11  F   UNL     1     -12.305  13.720  63.755  1.00  0.00    -0.488 F  
HETATM   12  F   UNL     1     -10.558  12.655  63.021  1.00  0.00    -0.345 F  
HETATM   13  C   UNL     1     -11.709  12.780  66.295  1.00  0.00    -0.460 A  
HETATM   14  F   UNL     1     -12.493  11.662  63.085  1.00  0.00    -0.630 F  
HETATM   15  C   UNL     1     -11.382  12.014  65.171  1.00  0.00    -0.359 A  
HETATM   16  C   UNL     1     -11.681  12.509  63.777  1.00  0.00    -0.485 C  
HETATM   17  C   UNL     1     -10.785  10.760  65.372  1.00  0.00    -0.149 A  
ENDBRANCH   7   8
BRANCH   7  18
HETATM   18  N   UNL     1     -11.855  10.131  69.843  1.00  0.00    -0.436 NA 
HETATM   19  H   UNL     1     -12.531   9.414  69.580  1.00  0.00     0.000 HD 
BRANCH  18  20
HETATM   20  O   UNL     1     -11.965  10.946  70.976  1.00  0.00    -0.326 OA 
BRANCH  20  21
HETATM   21  C   UNL     1     -13.161  10.642  71.693  1.00  0.00    -0.450 C  
BRANCH  21  22
HETATM   22  C   UNL     1     -13.223   9.115  71.814  1.00  0.00    -0.396 C  
HETATM   23  H2  UNL     1     -11.842   8.945  73.326  1.00  0.00     0.000 HD 
HETATM   24  H1  UNL     1     -12.074   7.505  72.500  1.00  0.00     0.000 HD 
HETATM   25  N   UNL     1     -12.033   8.521  72.419  1.00  0.00    -0.380 NA 
ENDBRANCH  21  22
ENDBRANCH  20  21
ENDBRANCH  18  20
ENDBRANCH   7  18
ENDBRANCH   6   7
ENDBRANCH   5   6
ENDBRANCH   4   5
ENDBRANCH   3   4
ENDBRANCH   2   3
TORSDOF 10
ENDMDL
MODEL       90
REMARK 921   NORMALIZED FREE ENERGY PREDICTED BY IDOCK:   -4.37 KCAL/MOL
REMARK 922        TOTAL FREE ENERGY PREDICTED BY IDOCK:   -8.04 KCAL/MOL
REMARK 923 INTER-LIGAND FREE ENERGY PREDICTED BY IDOCK:   -7.34 KCAL/MOL
REMARK 924 INTRA-LIGAND FREE ENERGY PREDICTED BY IDOCK:   -0.70 KCAL/MOL
REMARK 927      BINDING AFFINITY PREDICTED BY RF-SCORE:    0.00 PKD
ROOT
HETATM    1  C   UNL     1      -8.668   7.027  67.276  1.00  0.00    -0.120 C  
HETATM    2  O   UNL     1      -9.029   7.640  66.043  1.00  0.00    -0.171 OA 
ENDROOT
BRANCH   2   3
HETATM    3  C   UNL     1      -9.452   8.984  66.255  1.00  0.00    -0.242 C  
BRANCH   3   4
HETATM    4  C   UNL     1      -9.422   9.752  64.937  1.00  0.00    -0.331 C  
BRANCH   4   5
HETATM    5  C   UNL     1     -10.214  11.052  65.078  1.00  0.00    -0.360 C  
BRANCH   5   6
HETATM    6  C   UNL     1      -9.870  11.814  66.359  1.00  0.00    -0.237 C  
BRANCH   6   7
HETATM    7  C   UNL     1     -11.040  12.694  66.837  1.00  0.00    -0.273 C  
BRANCH   7   8
HETATM    8  C   UNL     1     -10.894  14.198  66.845  1.00  0.00    -0.296 A  
HETATM    9  C   UNL     1     -11.260  14.910  67.999  1.00  0.00    -0.318 A  
HETATM   10  C   UNL     1     -10.353  14.919  65.771  1.00  0.00    -0.351 A  
HETATM   11  F   UNL     1      -9.547  19.001  66.073  1.00  0.00    -0.345 F  
HETATM   12  F   UNL     1     -11.288  19.214  67.357  1.00  0.00    -0.473 F  
HETATM   13  C   UNL     1     -10.128  16.297  65.873  1.00  0.00    -0.381 A  
HETATM   14  F   UNL     1      -9.346  18.754  68.222  1.00  0.00    -0.306 F  
HETATM   15  C   UNL     1     -10.454  16.998  67.039  1.00  0.00    -0.279 A  
HETATM   16  C   UNL     1     -10.162  18.473  67.168  1.00  0.00    -0.378 C  
HETATM   17  C   UNL     1     -11.040  16.290  68.098  1.00  0.00    -0.329 A  
ENDBRANCH   7   8
BRANCH   7  18
HETATM   18  N   UNL     1     -12.153  12.179  67.289  1.00  0.00    -0.525 NA 
HETATM   19  H   UNL     1     -13.085  12.499  67.024  1.00  0.00     0.000 HD 
BRANCH  18  20
HETATM   20  O   UNL     1     -11.900  11.133  68.183  1.00  0.00    -0.559 OA 
BRANCH  20  21
HETATM   21  C   UNL     1     -11.754  11.636  69.510  1.00  0.00    -0.344 C  
BRANCH  21  22
HETATM   22  C   UNL     1     -11.793  10.422  70.445  1.00  0.00    -0.328 C  
HETATM   23  H2  UNL     1     -13.790  10.005  70.202  1.00  0.00     0.000 HD 
HETATM   24  H1  UNL     1     -13.150   9.310  71.587  1.00  0.00     0.000 HD 
HETATM   25  N   UNL     1     -13.124  10.118  70.965  1.00  0.00    -0.391 NA 
ENDBRANCH  21  22
ENDBRANCH  20  21
ENDBRANCH  18  20
ENDBRANCH   7  18
ENDBRANCH   6   7
ENDBRANCH   5   6
ENDBRANCH   4   5
ENDBRANCH   3   4
ENDBRANCH   2   3
TORSDOF 10
ENDMDL
MODEL       91
REMARK 921   NORMALIZED FREE ENERGY PREDICTED BY IDOCK:   -4.36 KCAL/MOL
REMARK 922        TOTAL FREE ENERGY PREDICTED BY IDOCK:   -8.02 KCAL/MOL
REMARK 923 INTER-LIGAND FREE ENERGY PREDICTED BY IDOCK:   -7.51 KCAL/MOL
REMARK 924 INTRA-LIGAND FREE ENERGY PREDICTED BY IDOCK:   -0.51 KCAL/MOL
REMARK 927      BINDING AFFINITY PREDICTED BY RF-SCORE:    0.00 PKD
ROOT
HETATM    1  C   UNL     1     -10.372  13.736  65.926  1.00  0.00    -0.309 C  
HETATM    2  O   UNL     1     -10.842  14.394  67.099  1.00  0.00    -0.284 OA 
ENDROOT
BRANCH   2   3
HETATM    3  C   UNL     1     -11.670  13.524  67.865  1.00  0.00    -0.357 C  
BRANCH   3   4
HETATM    4  C   UNL     1     -11.075  12.120  67.881  1.00  0.00    -0.295 C  
BRANCH   4   5
HETATM    5  C   UNL     1     -11.163  11.537  69.292  1.00  0.00    -0.336 C  
BRANCH   5   6
HETATM    6  C   UNL     1     -12.554  10.990  69.616  1.00  0.00    -0.084 C  
BRANCH   6   7
HETATM    7  C   UNL     1     -12.676  10.565  71.092  1.00  0.00    -0.418 C  
BRANCH   7   8
HETATM    8  C   UNL     1     -12.255   9.177  71.511  1.00  0.00    -0.422 A  
HETATM    9  C   UNL     1     -10.938   8.972  71.956  1.00  0.00    -0.355 A  
HETATM   10  C   UNL     1     -13.134   8.085  71.535  1.00  0.00    -0.322 A  
HETATM   11  F   UNL     1     -12.006   4.413  73.161  1.00  0.00    -0.297 F  
HETATM   12  F   UNL     1      -9.985   4.752  72.438  1.00  0.00    -0.183 F  
HETATM   13  C   UNL     1     -12.727   6.846  72.045  1.00  0.00    -0.230 A  
HETATM   14  F   UNL     1     -10.570   5.461  74.410  1.00  0.00    -0.276 F  
HETATM   15  C   UNL     1     -11.427   6.656  72.527  1.00  0.00    -0.269 A  
HETATM   16  C   UNL     1     -11.005   5.336  73.125  1.00  0.00    -0.305 C  
HETATM   17  C   UNL     1     -10.529   7.731  72.460  1.00  0.00    -0.343 A  
ENDBRANCH   7   8
BRANCH   7  18
HETATM   18  N   UNL     1     -13.181  11.358  72.000  1.00  0.00    -0.527 NA 
HETATM   19  H   UNL     1     -13.553  11.044  72.897  1.00  0.00     0.000 HD 
BRANCH  18  20
HETATM   20  O   UNL     1     -13.146  12.693  71.582  1.00  0.00    -0.402 OA 
BRANCH  20  21
HETATM   21  C   UNL     1     -14.035  13.485  72.369  1.00  0.00    -0.536 C  
BRANCH  21  22
HETATM   22  C   UNL     1     -13.504  14.922  72.316  1.00  0.00    -0.409 C  
HETATM   23  H2  UNL     1     -14.454  15.458  70.575  1.00  0.00     0.000 HD 
HETATM   24  H1  UNL     1     -13.166  16.466  70.943  1.00  0.00     0.000 HD 
HETATM   25  N   UNL     1     -13.519  15.510  70.979  1.00  0.00    -0.549 NA 
ENDBRANCH  21  22
ENDBRANCH  20  21
ENDBRANCH  18  20
ENDBRANCH   7  18
ENDBRANCH   6   7
ENDBRANCH   5   6
ENDBRANCH   4   5
ENDBRANCH   3   4
ENDBRANCH   2   3
TORSDOF 10
ENDMDL
MODEL       92
REMARK 921   NORMALIZED FREE ENERGY PREDICTED BY IDOCK:   -4.35 KCAL/MOL
REMARK 922        TOTAL FREE ENERGY PREDICTED BY IDOCK:   -7.99 KCAL/MOL
REMARK 923 INTER-LIGAND FREE ENERGY PREDICTED BY IDOCK:   -7.38 KCAL/MOL
REMARK 924 INTRA-LIGAND FREE ENERGY PREDICTED BY IDOCK:   -0.61 KCAL/MOL
REMARK 927      BINDING AFFINITY PREDICTED BY RF-SCORE:    0.00 PKD
ROOT
HETATM    1  C   UNL     1     -11.012   6.346  67.115  1.00  0.00    -0.399 C  
HETATM    2  O   UNL     1      -9.982   7.320  67.246  1.00  0.00    -0.160 OA 
ENDROOT
BRANCH   2   3
HETATM    3  C   UNL     1     -10.502   8.632  67.049  1.00  0.00    -0.284 C  
BRANCH   3   4
HETATM    4  C   UNL     1      -9.780   9.307  65.887  1.00  0.00    -0.355 C  
BRANCH   4   5
HETATM    5  C   UNL     1      -9.701  10.814  66.135  1.00  0.00    -0.253 C  
BRANCH   5   6
HETATM    6  C   UNL     1     -11.058  11.506  65.986  1.00  0.00    -0.289 C  
BRANCH   6   7
HETATM    7  C   UNL     1     -11.421  12.336  67.232  1.00  0.00    -0.357 C  
BRANCH   7   8
HETATM    8  C   UNL     1     -11.063  13.803  67.287  1.00  0.00    -0.319 A  
HETATM    9  C   UNL     1     -10.313  14.358  66.237  1.00  0.00    -0.300 A  
HETATM   10  C   UNL     1     -11.496  14.658  68.309  1.00  0.00    -0.337 A  
HETATM   11  F   UNL     1     -10.867  18.777  68.121  1.00  0.00    -0.357 F  
HETATM   12  F   UNL     1      -8.977  18.407  67.113  1.00  0.00    -0.254 F  
HETATM   13  C   UNL     1     -11.240  16.033  68.253  1.00  0.00    -0.350 A  
HETATM   14  F   UNL     1     -10.805  18.620  65.954  1.00  0.00    -0.439 F  
HETATM   15  C   UNL     1     -10.529  16.591  67.185  1.00  0.00    -0.300 A  
HETATM   16  C   UNL     1     -10.298  18.080  67.097  1.00  0.00    -0.374 C  
HETATM   17  C   UNL     1     -10.051  15.733  66.184  1.00  0.00    -0.337 A  
ENDBRANCH   7   8
BRANCH   7  18
HETATM   18  N   UNL     1     -11.992  11.800  68.278  1.00  0.00    -0.528 NA 
HETATM   19  H   UNL     1     -12.968  11.506  68.313  1.00  0.00     0.000 HD 
BRANCH  18  20
HETATM   20  O   UNL     1     -11.090  11.682  69.342  1.00  0.00    -0.244 OA 
BRANCH  20  21
HETATM   21  C   UNL     1     -11.403  10.538  70.135  1.00  0.00    -0.323 C  
BRANCH  21  22
HETATM   22  C   UNL     1     -12.733  10.841  70.835  1.00  0.00    -0.384 C  
HETATM   23  H2  UNL     1     -12.287   9.893  72.602  1.00  0.00     0.000 HD 
HETATM   24  H1  UNL     1     -13.934  10.124  72.392  1.00  0.00     0.000 HD 
HETATM   25  N   UNL     1     -13.050   9.923  71.926  1.00  0.00    -0.435 NA 
ENDBRANCH  21  22
ENDBRANCH  20  21
ENDBRANCH  18  20
ENDBRANCH   7  18
ENDBRANCH   6   7
ENDBRANCH   5   6
ENDBRANCH   4   5
ENDBRANCH   3   4
ENDBRANCH   2   3
TORSDOF 10
ENDMDL
MODEL       93
REMARK 921   NORMALIZED FREE ENERGY PREDICTED BY IDOCK:   -4.34 KCAL/MOL
REMARK 922        TOTAL FREE ENERGY PREDICTED BY IDOCK:   -7.99 KCAL/MOL
REMARK 923 INTER-LIGAND FREE ENERGY PREDICTED BY IDOCK:   -7.87 KCAL/MOL
REMARK 924 INTRA-LIGAND FREE ENERGY PREDICTED BY IDOCK:   -0.11 KCAL/MOL
REMARK 927      BINDING AFFINITY PREDICTED BY RF-SCORE:    0.00 PKD
ROOT
HETATM    1  C   UNL     1      -8.104  18.362  67.603  1.00  0.00    -0.249 C  
HETATM    2  O   UNL     1      -9.251  19.070  68.061  1.00  0.00    -0.293 OA 
ENDROOT
BRANCH   2   3
HETATM    3  C   UNL     1     -10.097  18.217  68.827  1.00  0.00    -0.376 C  
BRANCH   3   4
HETATM    4  C   UNL     1     -10.001  16.787  68.305  1.00  0.00    -0.273 C  
BRANCH   4   5
HETATM    5  C   UNL     1     -10.010  15.807  69.479  1.00  0.00    -0.283 C  
BRANCH   5   6
HETATM    6  C   UNL     1     -10.298  14.369  69.043  1.00  0.00    -0.204 C  
BRANCH   6   7
HETATM    7  C   UNL     1     -11.695  13.901  69.491  1.00  0.00    -0.313 C  
BRANCH   7   8
HETATM    8  C   UNL     1     -11.867  12.530  70.101  1.00  0.00    -0.336 A  
HETATM    9  C   UNL     1     -12.565  12.410  71.314  1.00  0.00    -0.332 A  
HETATM   10  C   UNL     1     -11.414  11.355  69.484  1.00  0.00    -0.381 A  
HETATM   11  F   UNL     1     -12.359   7.588  71.007  1.00  0.00    -0.326 F  
HETATM   12  F   UNL     1     -12.264   8.415  73.015  1.00  0.00    -0.410 F  
HETATM   13  C   UNL     1     -11.703  10.099  70.031  1.00  0.00    -0.294 A  
HETATM   14  F   UNL     1     -14.137   8.452  71.909  1.00  0.00    -0.380 F  
HETATM   15  C   UNL     1     -12.435   9.980  71.217  1.00  0.00    -0.494 A  
HETATM   16  C   UNL     1     -12.792   8.625  71.778  1.00  0.00    -0.359 C  
HETATM   17  C   UNL     1     -12.849  11.153  71.864  1.00  0.00    -0.400 A  
ENDBRANCH   7   8
BRANCH   7  18
HETATM   18  N   UNL     1     -12.760  14.638  69.316  1.00  0.00    -0.447 NA 
HETATM   19  H   UNL     1     -13.483  14.450  68.621  1.00  0.00     0.000 HD 
BRANCH  18  20
HETATM   20  O   UNL     1     -12.779  15.717  70.207  1.00  0.00    -0.385 OA 
BRANCH  20  21
HETATM   21  C   UNL     1     -13.648  15.441  71.305  1.00  0.00    -0.505 C  
BRANCH  21  22
HETATM   22  C   UNL     1     -12.956  15.987  72.559  1.00  0.00    -0.387 C  
HETATM   23  H2  UNL     1     -11.053  15.406  72.046  1.00  0.00     0.000 HD 
HETATM   24  H1  UNL     1     -11.214  15.713  73.687  1.00  0.00     0.000 HD 
HETATM   25  N   UNL     1     -11.675  15.350  72.853  1.00  0.00    -0.447 NA 
ENDBRANCH  21  22
ENDBRANCH  20  21
ENDBRANCH  18  20
ENDBRANCH   7  18
ENDBRANCH   6   7
ENDBRANCH   5   6
ENDBRANCH   4   5
ENDBRANCH   3   4
ENDBRANCH   2   3
TORSDOF 10
ENDMDL
MODEL       94
REMARK 921   NORMALIZED FREE ENERGY PREDICTED BY IDOCK:   -4.33 KCAL/MOL
REMARK 922        TOTAL FREE ENERGY PREDICTED BY IDOCK:   -7.97 KCAL/MOL
REMARK 923 INTER-LIGAND FREE ENERGY PREDICTED BY IDOCK:   -7.35 KCAL/MOL
REMARK 924 INTRA-LIGAND FREE ENERGY PREDICTED BY IDOCK:   -0.62 KCAL/MOL
REMARK 927      BINDING AFFINITY PREDICTED BY RF-SCORE:    0.00 PKD
ROOT
HETATM    1  C   UNL     1     -10.110  10.487  65.001  1.00  0.00    -0.321 C  
HETATM    2  O   UNL     1     -10.265  10.755  63.611  1.00  0.00    -0.333 OA 
ENDROOT
BRANCH   2   3
HETATM    3  C   UNL     1     -10.494  12.144  63.389  1.00  0.00    -0.412 C  
BRANCH   3   4
HETATM    4  C   UNL     1     -11.967  12.470  63.614  1.00  0.00    -0.621 C  
BRANCH   4   5
HETATM    5  C   UNL     1     -12.094  13.799  64.358  1.00  0.00    -0.474 C  
BRANCH   5   6
HETATM    6  C   UNL     1     -10.881  14.095  65.243  1.00  0.00    -0.356 C  
BRANCH   6   7
HETATM    7  C   UNL     1     -11.269  14.890  66.504  1.00  0.00    -0.335 C  
BRANCH   7   8
HETATM    8  C   UNL     1     -10.476  16.114  66.894  1.00  0.00    -0.300 A  
HETATM    9  C   UNL     1      -9.392  15.968  67.777  1.00  0.00    -0.211 A  
HETATM   10  C   UNL     1     -10.729  17.389  66.370  1.00  0.00    -0.084 A  
HETATM   11  F   UNL     1      -8.186  20.607  67.133  1.00  0.00    -0.359 F  
HETATM   12  F   UNL     1      -7.815  19.798  69.116  1.00  0.00    -0.376 F  
HETATM   13  C   UNL     1      -9.891  18.469  66.670  1.00  0.00    -0.370 A  
HETATM   14  F   UNL     1      -6.567  19.192  67.441  1.00  0.00    -0.191 F  
HETATM   15  C   UNL     1      -8.787  18.313  67.516  1.00  0.00    -0.256 A  
HETATM   16  C   UNL     1      -7.853  19.464  67.797  1.00  0.00    -0.280 C  
HETATM   17  C   UNL     1      -8.557  17.051  68.082  1.00  0.00    -0.228 A  
ENDBRANCH   7   8
BRANCH   7  18
HETATM   18  N   UNL     1     -12.245  14.511  67.287  1.00  0.00    -0.581 NA 
HETATM   19  H   UNL     1     -13.132  15.005  67.383  1.00  0.00     0.000 HD 
BRANCH  18  20
HETATM   20  O   UNL     1     -11.913  13.339  67.977  1.00  0.00    -0.350 OA 
BRANCH  20  21
HETATM   21  C   UNL     1     -11.455  13.649  69.293  1.00  0.00    -0.291 C  
BRANCH  21  22
HETATM   22  C   UNL     1     -12.250  12.756  70.253  1.00  0.00    -0.277 C  
HETATM   23  H2  UNL     1     -10.832  11.279  70.426  1.00  0.00     0.000 HD 
HETATM   24  H1  UNL     1     -12.361  10.763  70.882  1.00  0.00     0.000 HD 
HETATM   25  N   UNL     1     -11.832  11.356  70.243  1.00  0.00    -0.346 NA 
ENDBRANCH  21  22
ENDBRANCH  20  21
ENDBRANCH  18  20
ENDBRANCH   7  18
ENDBRANCH   6   7
ENDBRANCH   5   6
ENDBRANCH   4   5
ENDBRANCH   3   4
ENDBRANCH   2   3
TORSDOF 10
ENDMDL
MODEL       95
REMARK 921   NORMALIZED FREE ENERGY PREDICTED BY IDOCK:   -4.32 KCAL/MOL
REMARK 922        TOTAL FREE ENERGY PREDICTED BY IDOCK:   -7.96 KCAL/MOL
REMARK 923 INTER-LIGAND FREE ENERGY PREDICTED BY IDOCK:   -6.99 KCAL/MOL
REMARK 924 INTRA-LIGAND FREE ENERGY PREDICTED BY IDOCK:   -0.97 KCAL/MOL
REMARK 927      BINDING AFFINITY PREDICTED BY RF-SCORE:    0.00 PKD
ROOT
HETATM    1  C   UNL     1     -14.198   7.523  71.499  1.00  0.00    -0.445 C  
HETATM    2  O   UNL     1     -14.025   8.720  72.250  1.00  0.00    -0.430 OA 
ENDROOT
BRANCH   2   3
HETATM    3  C   UNL     1     -12.812   9.372  71.885  1.00  0.00    -0.412 C  
BRANCH   3   4
HETATM    4  C   UNL     1     -13.037  10.878  71.799  1.00  0.00    -0.564 C  
BRANCH   4   5
HETATM    5  C   UNL     1     -12.337  11.434  70.558  1.00  0.00    -0.439 C  
BRANCH   5   6
HETATM    6  C   UNL     1     -11.496  10.380  69.835  1.00  0.00    -0.368 C  
BRANCH   6   7
HETATM    7  C   UNL     1     -11.263  10.746  68.357  1.00  0.00    -0.284 C  
BRANCH   7   8
HETATM    8  C   UNL     1     -10.910  12.165  67.981  1.00  0.00    -0.258 A  
HETATM    9  C   UNL     1     -11.883  12.964  67.357  1.00  0.00    -0.418 A  
HETATM   10  C   UNL     1      -9.672  12.751  68.279  1.00  0.00    -0.216 A  
HETATM   11  F   UNL     1      -8.969  16.812  67.636  1.00  0.00    -0.203 F  
HETATM   12  F   UNL     1     -10.253  16.722  65.885  1.00  0.00    -0.313 F  
HETATM   13  C   UNL     1      -9.436  14.106  68.018  1.00  0.00    -0.213 A  
HETATM   14  F   UNL     1     -11.103  17.165  67.838  1.00  0.00    -0.358 F  
HETATM   15  C   UNL     1     -10.422  14.910  67.435  1.00  0.00    -0.255 A  
HETATM   16  C   UNL     1     -10.187  16.383  67.202  1.00  0.00    -0.282 C  
HETATM   17  C   UNL     1     -11.645  14.318  67.090  1.00  0.00    -0.402 A  
ENDBRANCH   7   8
BRANCH   7  18
HETATM   18  N   UNL     1     -11.406   9.870  67.397  1.00  0.00    -0.365 NA 
HETATM   19  H   UNL     1     -11.976  10.017  66.563  1.00  0.00     0.000 HD 
BRANCH  18  20
HETATM   20  O   UNL     1     -10.677   8.705  67.662  1.00  0.00    -0.224 OA 
BRANCH  20  21
HETATM   21  C   UNL     1      -9.310   8.878  67.290  1.00  0.00    -0.140 C  
BRANCH  21  22
HETATM   22  C   UNL     1      -9.297   9.138  65.780  1.00  0.00    -0.245 C  
HETATM   23  H2  UNL     1      -7.582  10.268  65.752  1.00  0.00     0.000 HD 
HETATM   24  H1  UNL     1      -8.525  10.493  64.383  1.00  0.00     0.000 HD 
HETATM   25  N   UNL     1      -8.533  10.320  65.388  1.00  0.00    -0.155 NA 
ENDBRANCH  21  22
ENDBRANCH  20  21
ENDBRANCH  18  20
ENDBRANCH   7  18
ENDBRANCH   6   7
ENDBRANCH   5   6
ENDBRANCH   4   5
ENDBRANCH   3   4
ENDBRANCH   2   3
TORSDOF 10
ENDMDL
MODEL       96
REMARK 921   NORMALIZED FREE ENERGY PREDICTED BY IDOCK:   -4.30 KCAL/MOL
REMARK 922        TOTAL FREE ENERGY PREDICTED BY IDOCK:   -7.93 KCAL/MOL
REMARK 923 INTER-LIGAND FREE ENERGY PREDICTED BY IDOCK:   -7.06 KCAL/MOL
REMARK 924 INTRA-LIGAND FREE ENERGY PREDICTED BY IDOCK:   -0.87 KCAL/MOL
REMARK 927      BINDING AFFINITY PREDICTED BY RF-SCORE:    0.00 PKD
ROOT
HETATM    1  C   UNL     1     -11.245   5.755  71.401  1.00  0.00    -0.164 C  
HETATM    2  O   UNL     1     -11.282   5.974  69.994  1.00  0.00    -0.372 OA 
ENDROOT
BRANCH   2   3
HETATM    3  C   UNL     1     -10.135   6.704  69.568  1.00  0.00    -0.177 C  
BRANCH   3   4
HETATM    4  C   UNL     1     -10.373   7.280  68.176  1.00  0.00    -0.234 C  
BRANCH   4   5
HETATM    5  C   UNL     1      -9.948   8.748  68.145  1.00  0.00    -0.206 C  
BRANCH   5   6
HETATM    6  C   UNL     1     -10.760   9.574  67.145  1.00  0.00    -0.252 C  
BRANCH   6   7
HETATM    7  C   UNL     1     -11.375  10.826  67.797  1.00  0.00    -0.279 C  
BRANCH   7   8
HETATM    8  C   UNL     1     -10.966  12.199  67.320  1.00  0.00    -0.308 A  
HETATM    9  C   UNL     1     -11.877  13.261  67.446  1.00  0.00    -0.413 A  
HETATM   10  C   UNL     1      -9.692  12.483  66.809  1.00  0.00    -0.234 A  
HETATM   11  F   UNL     1      -8.500  16.392  65.971  1.00  0.00    -0.331 F  
HETATM   12  F   UNL     1     -10.541  16.850  65.377  1.00  0.00    -0.351 F  
HETATM   13  C   UNL     1      -9.321  13.796  66.492  1.00  0.00    -0.249 A  
HETATM   14  F   UNL     1      -9.929  17.094  67.450  1.00  0.00    -0.253 F  
HETATM   15  C   UNL     1     -10.216  14.858  66.658  1.00  0.00    -0.264 A  
HETATM   16  C   UNL     1      -9.799  16.279  66.367  1.00  0.00    -0.291 C  
HETATM   17  C   UNL     1     -11.508  14.573  67.123  1.00  0.00    -0.383 A  
ENDBRANCH   7   8
BRANCH   7  18
HETATM   18  N   UNL     1     -12.215  10.744  68.795  1.00  0.00    -0.814 NA 
HETATM   19  H   UNL     1     -13.168  10.385  68.719  1.00  0.00     0.000 HD 
BRANCH  18  20
HETATM   20  O   UNL     1     -11.639  11.212  69.981  1.00  0.00    -0.296 OA 
BRANCH  20  21
HETATM   21  C   UNL     1     -12.644  11.437  70.969  1.00  0.00    -0.386 C  
BRANCH  21  22
HETATM   22  C   UNL     1     -12.835  10.108  71.709  1.00  0.00    -0.452 C  
HETATM   23  H2  UNL     1     -10.839   9.692  71.960  1.00  0.00     0.000 HD 
HETATM   24  H1  UNL     1     -11.807   8.333  72.125  1.00  0.00     0.000 HD 
HETATM   25  N   UNL     1     -11.680   9.217  71.633  1.00  0.00    -0.353 NA 
ENDBRANCH  21  22
ENDBRANCH  20  21
ENDBRANCH  18  20
ENDBRANCH   7  18
ENDBRANCH   6   7
ENDBRANCH   5   6
ENDBRANCH   4   5
ENDBRANCH   3   4
ENDBRANCH   2   3
TORSDOF 10
ENDMDL
MODEL       97
REMARK 921   NORMALIZED FREE ENERGY PREDICTED BY IDOCK:   -4.30 KCAL/MOL
REMARK 922        TOTAL FREE ENERGY PREDICTED BY IDOCK:   -7.92 KCAL/MOL
REMARK 923 INTER-LIGAND FREE ENERGY PREDICTED BY IDOCK:   -6.50 KCAL/MOL
REMARK 924 INTRA-LIGAND FREE ENERGY PREDICTED BY IDOCK:   -1.42 KCAL/MOL
REMARK 927      BINDING AFFINITY PREDICTED BY RF-SCORE:    0.00 PKD
ROOT
HETATM    1  C   UNL     1      -8.743   8.715  68.371  1.00  0.00    -0.142 C  
HETATM    2  O   UNL     1     -10.154   8.575  68.239  1.00  0.00    -0.179 OA 
ENDROOT
BRANCH   2   3
HETATM    3  C   UNL     1     -10.533   8.582  66.865  1.00  0.00    -0.275 C  
BRANCH   3   4
HETATM    4  C   UNL     1      -9.442   9.241  66.028  1.00  0.00    -0.311 C  
BRANCH   4   5
HETATM    5  C   UNL     1     -10.046  10.361  65.181  1.00  0.00    -0.379 C  
BRANCH   5   6
HETATM    6  C   UNL     1     -11.013  11.242  65.974  1.00  0.00    -0.237 C  
BRANCH   6   7
HETATM    7  C   UNL     1     -10.273  12.165  66.961  1.00  0.00    -0.207 C  
BRANCH   7   8
HETATM    8  C   UNL     1     -10.912  12.517  68.283  1.00  0.00    -0.270 A  
HETATM    9  C   UNL     1     -11.162  13.868  68.578  1.00  0.00    -0.298 A  
HETATM   10  C   UNL     1     -11.327  11.553  69.213  1.00  0.00    -0.353 A  
HETATM   11  F   UNL     1     -13.514  12.598  72.608  1.00  0.00    -0.593 F  
HETATM   12  F   UNL     1     -12.402  14.463  72.708  1.00  0.00    -0.351 F  
HETATM   13  C   UNL     1     -12.023  11.924  70.370  1.00  0.00    -0.400 A  
HETATM   14  F   UNL     1     -14.237  14.350  71.545  1.00  0.00    -0.436 F  
HETATM   15  C   UNL     1     -12.308  13.266  70.641  1.00  0.00    -0.416 A  
HETATM   16  C   UNL     1     -13.105  13.662  71.861  1.00  0.00    -0.387 C  
HETATM   17  C   UNL     1     -11.853  14.239  69.739  1.00  0.00    -0.380 A  
ENDBRANCH   7   8
BRANCH   7  18
HETATM   18  N   UNL     1      -9.116  12.701  66.672  1.00  0.00    -0.297 NA 
HETATM   19  H   UNL     1      -8.971  13.404  65.948  1.00  0.00     0.000 HD 
BRANCH  18  20
HETATM   20  O   UNL     1      -8.102  12.183  67.486  1.00  0.00    -0.143 OA 
BRANCH  20  21
HETATM   21  C   UNL     1      -6.998  13.084  67.540  1.00  0.00    -0.151 C  
BRANCH  21  22
HETATM   22  C   UNL     1      -7.484  14.327  68.295  1.00  0.00    -0.125 C  
HETATM   23  H2  UNL     1      -8.728  15.025  66.816  1.00  0.00     0.000 HD 
HETATM   24  H1  UNL     1      -8.318  16.212  67.927  1.00  0.00     0.000 HD 
HETATM   25  N   UNL     1      -7.994  15.385  67.426  1.00  0.00    -0.170 NA 
ENDBRANCH  21  22
ENDBRANCH  20  21
ENDBRANCH  18  20
ENDBRANCH   7  18
ENDBRANCH   6   7
ENDBRANCH   5   6
ENDBRANCH   4   5
ENDBRANCH   3   4
ENDBRANCH   2   3
TORSDOF 10
ENDMDL
MODEL       98
REMARK 921   NORMALIZED FREE ENERGY PREDICTED BY IDOCK:   -4.29 KCAL/MOL
REMARK 922        TOTAL FREE ENERGY PREDICTED BY IDOCK:   -7.91 KCAL/MOL
REMARK 923 INTER-LIGAND FREE ENERGY PREDICTED BY IDOCK:   -7.11 KCAL/MOL
REMARK 924 INTRA-LIGAND FREE ENERGY PREDICTED BY IDOCK:   -0.81 KCAL/MOL
REMARK 927      BINDING AFFINITY PREDICTED BY RF-SCORE:    0.00 PKD
ROOT
HETATM    1  C   UNL     1      -5.914  12.168  67.159  1.00  0.00    -0.143 C  
HETATM    2  O   UNL     1      -7.213  11.586  67.199  1.00  0.00    -0.122 OA 
ENDROOT
BRANCH   2   3
HETATM    3  C   UNL     1      -8.041  12.268  68.138  1.00  0.00    -0.158 C  
BRANCH   3   4
HETATM    4  C   UNL     1      -8.386  13.658  67.611  1.00  0.00    -0.182 C  
BRANCH   4   5
HETATM    5  C   UNL     1      -9.466  14.289  68.490  1.00  0.00    -0.206 C  
BRANCH   5   6
HETATM    6  C   UNL     1     -10.881  13.960  68.009  1.00  0.00    -0.259 C  
BRANCH   6   7
HETATM    7  C   UNL     1     -11.850  13.734  69.185  1.00  0.00    -0.354 C  
BRANCH   7   8
HETATM    8  C   UNL     1     -11.941  12.373  69.832  1.00  0.00    -0.369 A  
HETATM    9  C   UNL     1     -12.637  12.242  71.045  1.00  0.00    -0.352 A  
HETATM   10  C   UNL     1     -11.413  11.212  69.249  1.00  0.00    -0.363 A  
HETATM   11  F   UNL     1     -12.133   7.436  70.870  1.00  0.00    -0.321 F  
HETATM   12  F   UNL     1     -12.100   8.321  72.855  1.00  0.00    -0.448 F  
HETATM   13  C   UNL     1     -11.627   9.956  69.829  1.00  0.00    -0.138 A  
HETATM   14  F   UNL     1     -13.966   8.213  71.742  1.00  0.00    -0.363 F  
HETATM   15  C   UNL     1     -12.357   9.823  71.015  1.00  0.00    -0.422 A  
HETATM   16  C   UNL     1     -12.633   8.465  71.611  1.00  0.00    -0.332 C  
HETATM   17  C   UNL     1     -12.846  10.986  71.628  1.00  0.00    -0.540 A  
ENDBRANCH   7   8
BRANCH   7  18
HETATM   18  N   UNL     1     -12.642  14.679  69.619  1.00  0.00    -0.576 NA 
HETATM   19  H   UNL     1     -13.588  14.522  69.968  1.00  0.00     0.000 HD 
BRANCH  18  20
HETATM   20  O   UNL     1     -12.024  15.932  69.543  1.00  0.00    -0.347 OA 
BRANCH  20  21
HETATM   21  C   UNL     1     -11.411  16.262  70.789  1.00  0.00    -0.297 C  
BRANCH  21  22
HETATM   22  C   UNL     1     -12.387  15.822  71.886  1.00  0.00    -0.459 C  
HETATM   23  H2  UNL     1     -11.000  15.698  73.396  1.00  0.00     0.000 HD 
HETATM   24  H1  UNL     1     -12.399  14.837  73.733  1.00  0.00     0.000 HD 
HETATM   25  N   UNL     1     -11.750  15.129  73.003  1.00  0.00    -0.353 NA 
ENDBRANCH  21  22
ENDBRANCH  20  21
ENDBRANCH  18  20
ENDBRANCH   7  18
ENDBRANCH   6   7
ENDBRANCH   5   6
ENDBRANCH   4   5
ENDBRANCH   3   4
ENDBRANCH   2   3
TORSDOF 10
ENDMDL
MODEL       99
REMARK 921   NORMALIZED FREE ENERGY PREDICTED BY IDOCK:   -4.29 KCAL/MOL
REMARK 922        TOTAL FREE ENERGY PREDICTED BY IDOCK:   -7.91 KCAL/MOL
REMARK 923 INTER-LIGAND FREE ENERGY PREDICTED BY IDOCK:   -6.71 KCAL/MOL
REMARK 924 INTRA-LIGAND FREE ENERGY PREDICTED BY IDOCK:   -1.21 KCAL/MOL
REMARK 927      BINDING AFFINITY PREDICTED BY RF-SCORE:    0.00 PKD
ROOT
HETATM    1  C   UNL     1     -10.714  12.706  63.907  1.00  0.00    -0.431 C  
HETATM    2  O   UNL     1     -11.220  11.727  64.808  1.00  0.00    -0.309 OA 
ENDROOT
BRANCH   2   3
HETATM    3  C   UNL     1     -10.283  10.666  64.976  1.00  0.00    -0.310 C  
BRANCH   3   4
HETATM    4  C   UNL     1      -9.027  11.188  65.666  1.00  0.00    -0.195 C  
BRANCH   4   5
HETATM    5  C   UNL     1      -9.221  11.161  67.182  1.00  0.00    -0.165 C  
BRANCH   5   6
HETATM    6  C   UNL     1      -8.998  12.529  67.828  1.00  0.00    -0.184 C  
BRANCH   6   7
HETATM    7  C   UNL     1     -10.267  13.402  67.782  1.00  0.00    -0.235 C  
BRANCH   7   8
HETATM    8  C   UNL     1     -10.142  14.906  67.750  1.00  0.00    -0.234 A  
HETATM    9  C   UNL     1     -10.160  15.562  66.507  1.00  0.00    -0.290 A  
HETATM   10  C   UNL     1     -10.068  15.693  68.907  1.00  0.00    -0.217 A  
HETATM   11  F   UNL     1     -10.214  19.859  68.727  1.00  0.00    -0.501 F  
HETATM   12  F   UNL     1      -9.135  19.779  66.841  1.00  0.00    -0.330 F  
HETATM   13  C   UNL     1     -10.075  17.091  68.828  1.00  0.00    -0.307 A  
HETATM   14  F   UNL     1     -11.309  19.691  66.858  1.00  0.00    -0.494 F  
HETATM   15  C   UNL     1     -10.136  17.743  67.592  1.00  0.00    -0.342 A  
HETATM   16  C   UNL     1     -10.197  19.249  67.508  1.00  0.00    -0.414 C  
HETATM   17  C   UNL     1     -10.161  16.961  66.427  1.00  0.00    -0.331 A  
ENDBRANCH   7   8
BRANCH   7  18
HETATM   18  N   UNL     1     -11.465  12.882  67.818  1.00  0.00    -0.301 NA 
HETATM   19  H   UNL     1     -12.050  12.725  66.996  1.00  0.00     0.000 HD 
BRANCH  18  20
HETATM   20  O   UNL     1     -11.842  12.569  69.129  1.00  0.00    -0.298 OA 
BRANCH  20  21
HETATM   21  C   UNL     1     -12.239  11.201  69.220  1.00  0.00    -0.226 C  
BRANCH  21  22
HETATM   22  C   UNL     1     -11.420  10.583  70.360  1.00  0.00    -0.341 C  
HETATM   23  H2  UNL     1     -11.066   8.780  69.442  1.00  0.00     0.000 HD 
HETATM   24  H1  UNL     1     -10.848   8.712  71.102  1.00  0.00     0.000 HD 
HETATM   25  N   UNL     1     -11.393   9.123  70.345  1.00  0.00    -0.248 NA 
ENDBRANCH  21  22
ENDBRANCH  20  21
ENDBRANCH  18  20
ENDBRANCH   7  18
ENDBRANCH   6   7
ENDBRANCH   5   6
ENDBRANCH   4   5
ENDBRANCH   3   4
ENDBRANCH   2   3
TORSDOF 10
ENDMDL
MODEL      100
REMARK 921   NORMALIZED FREE ENERGY PREDICTED BY IDOCK:   -4.28 KCAL/MOL
REMARK 922        TOTAL FREE ENERGY PREDICTED BY IDOCK:   -7.89 KCAL/MOL
REMARK 923 INTER-LIGAND FREE ENERGY PREDICTED BY IDOCK:   -6.49 KCAL/MOL
REMARK 924 INTRA-LIGAND FREE ENERGY PREDICTED BY IDOCK:   -1.40 KCAL/MOL
REMARK 927      BINDING AFFINITY PREDICTED BY RF-SCORE:    0.00 PKD
ROOT
HETATM    1  C   UNL     1     -10.224   5.278  69.616  1.00  0.00    -0.278 C  
HETATM    2  O   UNL     1     -10.827   6.402  68.982  1.00  0.00    -0.261 OA 
ENDROOT
BRANCH   2   3
HETATM    3  C   UNL     1     -10.033   6.847  67.886  1.00  0.00    -0.147 C  
BRANCH   3   4
HETATM    4  C   UNL     1     -10.772   7.940  67.120  1.00  0.00    -0.306 C  
BRANCH   4   5
HETATM    5  C   UNL     1     -10.055   9.277  67.307  1.00  0.00    -0.291 C  
BRANCH   5   6
HETATM    6  C   UNL     1     -11.017  10.417  67.647  1.00  0.00    -0.374 C  
BRANCH   6   7
HETATM    7  C   UNL     1     -10.804  10.942  69.079  1.00  0.00    -0.230 C  
BRANCH   7   8
HETATM    8  C   UNL     1     -10.584   9.967  70.211  1.00  0.00    -0.354 A  
HETATM    9  C   UNL     1     -11.685   9.568  70.986  1.00  0.00    -0.419 A  
HETATM   10  C   UNL     1      -9.338   9.390  70.493  1.00  0.00    -0.319 A  
HETATM   11  F   UNL     1      -8.931   6.351  73.322  1.00  0.00    -0.129 F  
HETATM   12  F   UNL     1     -10.503   7.284  74.498  1.00  0.00    -0.166 F  
HETATM   13  C   UNL     1      -9.210   8.401  71.476  1.00  0.00    -0.257 A  
HETATM   14  F   UNL     1     -11.008   5.816  72.975  1.00  0.00    -0.245 F  
HETATM   15  C   UNL     1     -10.316   7.974  72.218  1.00  0.00    -0.336 A  
HETATM   16  C   UNL     1     -10.188   6.871  73.240  1.00  0.00    -0.258 C  
HETATM   17  C   UNL     1     -11.556   8.583  71.974  1.00  0.00    -0.432 A  
ENDBRANCH   7   8
BRANCH   7  18
HETATM   18  N   UNL     1     -10.853  12.217  69.363  1.00  0.00    -0.457 NA 
HETATM   19  H   UNL     1     -10.115  12.729  69.846  1.00  0.00     0.000 HD 
BRANCH  18  20
HETATM   20  O   UNL     1     -12.052  12.787  68.918  1.00  0.00    -0.269 OA 
BRANCH  20  21
HETATM   21  C   UNL     1     -11.996  14.209  69.024  1.00  0.00    -0.340 C  
BRANCH  21  22
HETATM   22  C   UNL     1     -12.496  14.564  70.429  1.00  0.00    -0.347 C  
HETATM   23  H2  UNL     1     -12.304  12.681  71.227  1.00  0.00     0.000 HD 
HETATM   24  H1  UNL     1     -13.337  13.656  72.117  1.00  0.00     0.000 HD 
HETATM   25  N   UNL     1     -13.004  13.421  71.182  1.00  0.00    -0.276 NA 
ENDBRANCH  21  22
ENDBRANCH  20  21
ENDBRANCH  18  20
ENDBRANCH   7  18
ENDBRANCH   6   7
ENDBRANCH   5   6
ENDBRANCH   4   5
ENDBRANCH   3   4
ENDBRANCH   2   3
TORSDOF 10
ENDMDL
MODEL      101
REMARK 921   NORMALIZED FREE ENERGY PREDICTED BY IDOCK:   -4.26 KCAL/MOL
REMARK 922        TOTAL FREE ENERGY PREDICTED BY IDOCK:   -7.86 KCAL/MOL
REMARK 923 INTER-LIGAND FREE ENERGY PREDICTED BY IDOCK:   -7.07 KCAL/MOL
REMARK 924 INTRA-LIGAND FREE ENERGY PREDICTED BY IDOCK:   -0.80 KCAL/MOL
REMARK 927      BINDING AFFINITY PREDICTED BY RF-SCORE:    0.00 PKD
ROOT
HETATM    1  C   UNL     1      -9.910   9.928  65.287  1.00  0.00    -0.303 C  
HETATM    2  O   UNL     1      -9.726  10.871  64.236  1.00  0.00    -0.244 OA 
ENDROOT
BRANCH   2   3
HETATM    3  C   UNL     1     -10.950  11.539  63.940  1.00  0.00    -0.401 C  
BRANCH   3   4
HETATM    4  C   UNL     1     -10.955  12.923  64.582  1.00  0.00    -0.357 C  
BRANCH   4   5
HETATM    5  C   UNL     1     -12.170  13.062  65.499  1.00  0.00    -0.521 C  
BRANCH   5   6
HETATM    6  C   UNL     1     -12.113  14.324  66.363  1.00  0.00    -0.442 C  
BRANCH   6   7
HETATM    7  C   UNL     1     -11.946  13.992  67.857  1.00  0.00    -0.351 C  
BRANCH   7   8
HETATM    8  C   UNL     1     -11.160  12.771  68.272  1.00  0.00    -0.288 A  
HETATM    9  C   UNL     1     -11.857  11.625  68.690  1.00  0.00    -0.370 A  
HETATM   10  C   UNL     1      -9.762  12.701  68.203  1.00  0.00    -0.219 A  
HETATM   11  F   UNL     1      -7.719   9.132  68.907  1.00  0.00    -0.078 F  
HETATM   12  F   UNL     1      -9.221   8.605  70.387  1.00  0.00    -0.147 F  
HETATM   13  C   UNL     1      -9.087  11.507  68.484  1.00  0.00    -0.157 A  
HETATM   14  F   UNL     1      -9.502   8.048  68.303  1.00  0.00    -0.140 F  
HETATM   15  C   UNL     1      -9.786  10.354  68.860  1.00  0.00    -0.206 A  
HETATM   16  C   UNL     1      -9.064   9.053  69.111  1.00  0.00    -0.140 C  
HETATM   17  C   UNL     1     -11.182  10.432  68.978  1.00  0.00    -0.289 A  
ENDBRANCH   7   8
BRANCH   7  18
HETATM   18  N   UNL     1     -12.507  14.712  68.793  1.00  0.00    -0.567 NA 
HETATM   19  H   UNL     1     -13.186  15.454  68.620  1.00  0.00     0.000 HD 
BRANCH  18  20
HETATM   20  O   UNL     1     -12.055  14.333  70.062  1.00  0.00    -0.300 OA 
BRANCH  20  21
HETATM   21  C   UNL     1     -12.520  15.251  71.051  1.00  0.00    -0.384 C  
BRANCH  21  22
HETATM   22  C   UNL     1     -13.963  14.848  71.377  1.00  0.00    -0.463 C  
HETATM   23  H2  UNL     1     -13.630  14.367  73.347  1.00  0.00     0.000 HD 
HETATM   24  H1  UNL     1     -15.042  13.690  72.747  1.00  0.00     0.000 HD 
HETATM   25  N   UNL     1     -14.082  13.958  72.530  1.00  0.00    -0.702 NA 
ENDBRANCH  21  22
ENDBRANCH  20  21
ENDBRANCH  18  20
ENDBRANCH   7  18
ENDBRANCH   6   7
ENDBRANCH   5   6
ENDBRANCH   4   5
ENDBRANCH   3   4
ENDBRANCH   2   3
TORSDOF 10
ENDMDL
MODEL      102
REMARK 921   NORMALIZED FREE ENERGY PREDICTED BY IDOCK:   -4.26 KCAL/MOL
REMARK 922        TOTAL FREE ENERGY PREDICTED BY IDOCK:   -7.86 KCAL/MOL
REMARK 923 INTER-LIGAND FREE ENERGY PREDICTED BY IDOCK:   -6.50 KCAL/MOL
REMARK 924 INTRA-LIGAND FREE ENERGY PREDICTED BY IDOCK:   -1.35 KCAL/MOL
REMARK 927      BINDING AFFINITY PREDICTED BY RF-SCORE:    0.00 PKD
ROOT
HETATM    1  C   UNL     1      -7.086   9.128  64.496  1.00  0.00    -0.091 C  
HETATM    2  O   UNL     1      -7.895   8.301  65.326  1.00  0.00    -0.105 OA 
ENDROOT
BRANCH   2   3
HETATM    3  C   UNL     1      -8.626   9.090  66.261  1.00  0.00    -0.128 C  
BRANCH   3   4
HETATM    4  C   UNL     1      -9.956   9.519  65.650  1.00  0.00    -0.269 C  
BRANCH   4   5
HETATM    5  C   UNL     1     -10.323  10.920  66.142  1.00  0.00    -0.305 C  
BRANCH   5   6
HETATM    6  C   UNL     1      -9.269  11.506  67.083  1.00  0.00    -0.171 C  
BRANCH   6   7
HETATM    7  C   UNL     1      -9.895  12.055  68.379  1.00  0.00    -0.204 C  
BRANCH   7   8
HETATM    8  C   UNL     1     -10.676  11.132  69.285  1.00  0.00    -0.241 A  
HETATM    9  C   UNL     1     -10.122   9.885  69.623  1.00  0.00    -0.254 A  
HETATM   10  C   UNL     1     -11.907  11.481  69.856  1.00  0.00    -0.430 A  
HETATM   11  F   UNL     1     -13.747   9.067  72.718  1.00  0.00    -0.470 F  
HETATM   12  F   UNL     1     -12.959   7.317  71.697  1.00  0.00    -0.348 F  
HETATM   13  C   UNL     1     -12.533  10.640  70.784  1.00  0.00    -0.480 A  
HETATM   14  F   UNL     1     -11.789   8.290  73.252  1.00  0.00    -0.290 F  
HETATM   15  C   UNL     1     -11.960   9.418  71.152  1.00  0.00    -0.413 A  
HETATM   16  C   UNL     1     -12.608   8.536  72.191  1.00  0.00    -0.377 C  
HETATM   17  C   UNL     1     -10.752   9.041  70.546  1.00  0.00    -0.285 A  
ENDBRANCH   7   8
BRANCH   7  18
HETATM   18  N   UNL     1      -9.815  13.318  68.705  1.00  0.00    -0.421 NA 
HETATM   19  H   UNL     1      -9.566  13.658  69.634  1.00  0.00     0.000 HD 
BRANCH  18  20
HETATM   20  O   UNL     1     -10.117  14.142  67.615  1.00  0.00    -0.233 OA 
BRANCH  20  21
HETATM   21  C   UNL     1     -11.517  14.413  67.569  1.00  0.00    -0.349 C  
BRANCH  21  22
HETATM   22  C   UNL     1     -11.766  15.589  68.521  1.00  0.00    -0.337 C  
HETATM   23  H2  UNL     1     -10.811  14.777  70.148  1.00  0.00     0.000 HD 
HETATM   24  H1  UNL     1     -11.865  16.012  70.569  1.00  0.00     0.000 HD 
HETATM   25  N   UNL     1     -11.699  15.230  69.935  1.00  0.00    -0.299 NA 
ENDBRANCH  21  22
ENDBRANCH  20  21
ENDBRANCH  18  20
ENDBRANCH   7  18
ENDBRANCH   6   7
ENDBRANCH   5   6
ENDBRANCH   4   5
ENDBRANCH   3   4
ENDBRANCH   2   3
TORSDOF 10
ENDMDL
MODEL      103
REMARK 921   NORMALIZED FREE ENERGY PREDICTED BY IDOCK:   -4.26 KCAL/MOL
REMARK 922        TOTAL FREE ENERGY PREDICTED BY IDOCK:   -7.85 KCAL/MOL
REMARK 923 INTER-LIGAND FREE ENERGY PREDICTED BY IDOCK:   -6.95 KCAL/MOL
REMARK 924 INTRA-LIGAND FREE ENERGY PREDICTED BY IDOCK:   -0.90 KCAL/MOL
REMARK 927      BINDING AFFINITY PREDICTED BY RF-SCORE:    0.00 PKD
ROOT
HETATM    1  C   UNL     1      -8.865   8.426  70.667  1.00  0.00    -0.147 C  
HETATM    2  O   UNL     1     -10.014   8.348  69.829  1.00  0.00    -0.185 OA 
ENDROOT
BRANCH   2   3
HETATM    3  C   UNL     1      -9.821   9.108  68.640  1.00  0.00    -0.164 C  
BRANCH   3   4
HETATM    4  C   UNL     1     -10.966  10.102  68.467  1.00  0.00    -0.278 C  
BRANCH   4   5
HETATM    5  C   UNL     1     -10.847  11.213  69.511  1.00  0.00    -0.241 C  
BRANCH   5   6
HETATM    6  C   UNL     1     -12.208  11.684  70.027  1.00  0.00    -0.338 C  
BRANCH   6   7
HETATM    7  C   UNL     1     -12.236  13.204  70.273  1.00  0.00    -0.306 C  
BRANCH   7   8
HETATM    8  C   UNL     1     -11.534  14.133  69.311  1.00  0.00    -0.337 A  
HETATM    9  C   UNL     1     -11.884  14.093  67.951  1.00  0.00    -0.405 A  
HETATM   10  C   UNL     1     -10.587  15.083  69.718  1.00  0.00    -0.232 A  
HETATM   11  F   UNL     1      -9.065  17.921  67.066  1.00  0.00    -0.235 F  
HETATM   12  F   UNL     1      -9.190  16.448  65.473  1.00  0.00    -0.261 F  
HETATM   13  C   UNL     1     -10.053  16.002  68.807  1.00  0.00    -0.225 A  
HETATM   14  F   UNL     1     -10.889  17.738  65.899  1.00  0.00    -0.326 F  
HETATM   15  C   UNL     1     -10.434  15.987  67.461  1.00  0.00    -0.297 A  
HETATM   16  C   UNL     1      -9.900  17.011  66.489  1.00  0.00    -0.294 C  
HETATM   17  C   UNL     1     -11.345  15.008  67.038  1.00  0.00    -0.319 A  
ENDBRANCH   7   8
BRANCH   7  18
HETATM   18  N   UNL     1     -12.813  13.724  71.324  1.00  0.00    -0.352 NA 
HETATM   19  H   UNL     1     -12.599  13.463  72.287  1.00  0.00     0.000 HD 
BRANCH  18  20
HETATM   20  O   UNL     1     -13.763  14.684  70.956  1.00  0.00    -0.357 OA 
BRANCH  20  21
HETATM   21  C   UNL     1     -14.370  15.253  72.115  1.00  0.00    -0.555 C  
BRANCH  21  22
HETATM   22  C   UNL     1     -13.228  15.638  73.063  1.00  0.00    -0.562 C  
HETATM   23  H2  UNL     1     -12.438  17.124  71.884  1.00  0.00     0.000 HD 
HETATM   24  H1  UNL     1     -11.351  16.565  73.032  1.00  0.00     0.000 HD 
HETATM   25  N   UNL     1     -12.111  16.308  72.402  1.00  0.00    -0.529 NA 
ENDBRANCH  21  22
ENDBRANCH  20  21
ENDBRANCH  18  20
ENDBRANCH   7  18
ENDBRANCH   6   7
ENDBRANCH   5   6
ENDBRANCH   4   5
ENDBRANCH   3   4
ENDBRANCH   2   3
TORSDOF 10
ENDMDL
MODEL      104
REMARK 921   NORMALIZED FREE ENERGY PREDICTED BY IDOCK:   -4.25 KCAL/MOL
REMARK 922        TOTAL FREE ENERGY PREDICTED BY IDOCK:   -7.84 KCAL/MOL
REMARK 923 INTER-LIGAND FREE ENERGY PREDICTED BY IDOCK:   -6.96 KCAL/MOL
REMARK 924 INTRA-LIGAND FREE ENERGY PREDICTED BY IDOCK:   -0.89 KCAL/MOL
REMARK 927      BINDING AFFINITY PREDICTED BY RF-SCORE:    0.00 PKD
ROOT
HETATM    1  C   UNL     1     -12.718  13.861  65.443  1.00  0.00    -0.490 C  
HETATM    2  O   UNL     1     -12.005  14.038  64.224  1.00  0.00    -0.430 OA 
ENDROOT
BRANCH   2   3
HETATM    3  C   UNL     1     -10.817  13.250  64.217  1.00  0.00    -0.392 C  
BRANCH   3   4
HETATM    4  C   UNL     1     -11.145  11.821  63.798  1.00  0.00    -0.513 C  
BRANCH   4   5
HETATM    5  C   UNL     1     -10.567  10.838  64.816  1.00  0.00    -0.264 C  
BRANCH   5   6
HETATM    6  C   UNL     1      -9.957  11.541  66.031  1.00  0.00    -0.258 C  
BRANCH   6   7
HETATM    7  C   UNL     1     -10.177  10.742  67.329  1.00  0.00    -0.205 C  
BRANCH   7   8
HETATM    8  C   UNL     1     -10.845  11.402  68.512  1.00  0.00    -0.251 A  
HETATM    9  C   UNL     1     -10.990  12.799  68.518  1.00  0.00    -0.288 A  
HETATM   10  C   UNL     1     -11.385  10.681  69.586  1.00  0.00    -0.360 A  
HETATM   11  F   UNL     1     -13.630  12.554  72.562  1.00  0.00    -0.620 F  
HETATM   12  F   UNL     1     -12.366  14.311  72.361  1.00  0.00    -0.355 F  
HETATM   13  C   UNL     1     -12.100  11.330  70.600  1.00  0.00    -0.480 A  
HETATM   14  F   UNL     1     -14.147  14.104  71.129  1.00  0.00    -0.344 F  
HETATM   15  C   UNL     1     -12.280  12.717  70.582  1.00  0.00    -0.373 A  
HETATM   16  C   UNL     1     -13.095  13.410  71.646  1.00  0.00    -0.375 C  
HETATM   17  C   UNL     1     -11.699  13.449  69.536  1.00  0.00    -0.385 A  
ENDBRANCH   7   8
BRANCH   7  18
HETATM   18  N   UNL     1      -9.758   9.511  67.463  1.00  0.00    -0.150 NA 
HETATM   19  H   UNL     1     -10.367   8.692  67.461  1.00  0.00     0.000 HD 
BRANCH  18  20
HETATM   20  O   UNL     1      -8.367   9.464  67.609  1.00  0.00    -0.117 OA 
BRANCH  20  21
HETATM   21  C   UNL     1      -7.914   8.111  67.624  1.00  0.00    -0.122 C  
BRANCH  21  22
HETATM   22  C   UNL     1      -8.181   7.545  66.224  1.00  0.00    -0.125 C  
HETATM   23  H2  UNL     1      -6.219   7.477  65.621  1.00  0.00     0.000 HD 
HETATM   24  H1  UNL     1      -7.291   7.435  64.333  1.00  0.00     0.000 HD 
HETATM   25  N   UNL     1      -7.114   7.811  65.264  1.00  0.00    -0.059 NA 
ENDBRANCH  21  22
ENDBRANCH  20  21
ENDBRANCH  18  20
ENDBRANCH   7  18
ENDBRANCH   6   7
ENDBRANCH   5   6
ENDBRANCH   4   5
ENDBRANCH   3   4
ENDBRANCH   2   3
TORSDOF 10
ENDMDL
MODEL      105
REMARK 921   NORMALIZED FREE ENERGY PREDICTED BY IDOCK:   -4.25 KCAL/MOL
REMARK 922        TOTAL FREE ENERGY PREDICTED BY IDOCK:   -7.84 KCAL/MOL
REMARK 923 INTER-LIGAND FREE ENERGY PREDICTED BY IDOCK:   -6.98 KCAL/MOL
REMARK 924 INTRA-LIGAND FREE ENERGY PREDICTED BY IDOCK:   -0.86 KCAL/MOL
REMARK 927      BINDING AFFINITY PREDICTED BY RF-SCORE:    0.00 PKD
ROOT
HETATM    1  C   UNL     1     -12.603  15.844  74.271  1.00  0.00    -0.582 C  
HETATM    2  O   UNL     1     -12.324  15.068  73.110  1.00  0.00    -0.375 OA 
ENDROOT
BRANCH   2   3
HETATM    3  C   UNL     1     -11.782  15.886  72.077  1.00  0.00    -0.492 C  
BRANCH   3   4
HETATM    4  C   UNL     1     -12.506  15.611  70.763  1.00  0.00    -0.484 C  
BRANCH   4   5
HETATM    5  C   UNL     1     -11.492  15.218  69.688  1.00  0.00    -0.321 C  
BRANCH   5   6
HETATM    6  C   UNL     1     -12.140  14.493  68.507  1.00  0.00    -0.257 C  
BRANCH   6   7
HETATM    7  C   UNL     1     -11.098  13.768  67.634  1.00  0.00    -0.273 C  
BRANCH   7   8
HETATM    8  C   UNL     1     -11.006  12.261  67.670  1.00  0.00    -0.287 A  
HETATM    9  C   UNL     1     -10.548  11.582  66.529  1.00  0.00    -0.301 A  
HETATM   10  C   UNL     1     -11.300  11.504  68.812  1.00  0.00    -0.327 A  
HETATM   11  F   UNL     1     -10.554   7.402  68.961  1.00  0.00    -0.204 F  
HETATM   12  F   UNL     1     -11.054   7.270  66.849  1.00  0.00    -0.439 F  
HETATM   13  C   UNL     1     -11.084  10.120  68.832  1.00  0.00    -0.251 A  
HETATM   14  F   UNL     1      -9.006   7.678  67.461  1.00  0.00    -0.125 F  
HETATM   15  C   UNL     1     -10.588   9.451  67.709  1.00  0.00    -0.317 A  
HETATM   16  C   UNL     1     -10.306   7.969  67.747  1.00  0.00    -0.231 C  
HETATM   17  C   UNL     1     -10.339  10.197  66.547  1.00  0.00    -0.270 A  
ENDBRANCH   7   8
BRANCH   7  18
HETATM   18  N   UNL     1     -10.246  14.421  66.889  1.00  0.00    -0.262 NA 
HETATM   19  H   UNL     1     -10.435  14.735  65.936  1.00  0.00     0.000 HD 
BRANCH  18  20
HETATM   20  O   UNL     1      -9.040  14.634  67.567  1.00  0.00    -0.180 OA 
BRANCH  20  21
HETATM   21  C   UNL     1      -8.641  16.000  67.457  1.00  0.00    -0.178 C  
BRANCH  21  22
HETATM   22  C   UNL     1      -8.954  16.432  66.020  1.00  0.00    -0.272 C  
HETATM   23  H2  UNL     1      -9.721  18.278  66.494  1.00  0.00     0.000 HD 
HETATM   24  H1  UNL     1     -10.183  17.760  64.968  1.00  0.00     0.000 HD 
HETATM   25  N   UNL     1      -9.975  17.472  65.924  1.00  0.00    -0.551 NA 
ENDBRANCH  21  22
ENDBRANCH  20  21
ENDBRANCH  18  20
ENDBRANCH   7  18
ENDBRANCH   6   7
ENDBRANCH   5   6
ENDBRANCH   4   5
ENDBRANCH   3   4
ENDBRANCH   2   3
TORSDOF 10
ENDMDL
MODEL      106
REMARK 921   NORMALIZED FREE ENERGY PREDICTED BY IDOCK:   -4.24 KCAL/MOL
REMARK 922        TOTAL FREE ENERGY PREDICTED BY IDOCK:   -7.83 KCAL/MOL
REMARK 923 INTER-LIGAND FREE ENERGY PREDICTED BY IDOCK:   -6.95 KCAL/MOL
REMARK 924 INTRA-LIGAND FREE ENERGY PREDICTED BY IDOCK:   -0.88 KCAL/MOL
REMARK 927      BINDING AFFINITY PREDICTED BY RF-SCORE:    0.00 PKD
ROOT
HETATM    1  C   UNL     1      -5.624  10.849  66.565  1.00  0.00    -0.099 C  
HETATM    2  O   UNL     1      -6.243  11.146  67.813  1.00  0.00    -0.050 OA 
ENDROOT
BRANCH   2   3
HETATM    3  C   UNL     1      -7.581  11.595  67.617  1.00  0.00    -0.128 C  
BRANCH   3   4
HETATM    4  C   UNL     1      -8.548  10.425  67.763  1.00  0.00    -0.122 C  
BRANCH   4   5
HETATM    5  C   UNL     1      -9.927  10.826  67.237  1.00  0.00    -0.219 C  
BRANCH   5   6
HETATM    6  C   UNL     1     -10.028  12.322  66.933  1.00  0.00    -0.223 C  
BRANCH   6   7
HETATM    7  C   UNL     1     -11.460  12.854  67.132  1.00  0.00    -0.336 C  
BRANCH   7   8
HETATM    8  C   UNL     1     -11.846  13.498  68.442  1.00  0.00    -0.408 A  
HETATM    9  C   UNL     1     -12.133  12.676  69.544  1.00  0.00    -0.253 A  
HETATM   10  C   UNL     1     -11.875  14.887  68.632  1.00  0.00    -0.332 A  
HETATM   11  F   UNL     1     -12.481  16.558  72.406  1.00  0.00    -0.461 F  
HETATM   12  F   UNL     1     -13.808  14.905  72.886  1.00  0.00    -0.505 F  
HETATM   13  C   UNL     1     -12.122  15.434  69.897  1.00  0.00    -0.382 A  
HETATM   14  F   UNL     1     -11.676  14.743  73.287  1.00  0.00    -0.336 F  
HETATM   15  C   UNL     1     -12.367  14.612  71.003  1.00  0.00    -0.403 A  
HETATM   16  C   UNL     1     -12.580  15.200  72.376  1.00  0.00    -0.351 C  
HETATM   17  C   UNL     1     -12.387  13.223  70.808  1.00  0.00    -0.425 A  
ENDBRANCH   7   8
BRANCH   7  18
HETATM   18  N   UNL     1     -12.380  12.724  66.212  1.00  0.00    -0.495 NA 
HETATM   19  H   UNL     1     -13.308  12.333  66.377  1.00  0.00     0.000 HD 
BRANCH  18  20
HETATM   20  O   UNL     1     -11.925  13.189  64.973  1.00  0.00    -0.343 OA 
BRANCH  20  21
HETATM   21  C   UNL     1     -12.472  12.404  63.915  1.00  0.00    -0.476 C  
BRANCH  21  22
HETATM   22  C   UNL     1     -11.326  11.540  63.374  1.00  0.00    -0.206 C  
HETATM   23  H2  UNL     1      -9.796  12.669  64.153  1.00  0.00     0.000 HD 
HETATM   24  H1  UNL     1      -9.291  11.674  62.901  1.00  0.00     0.000 HD 
HETATM   25  N   UNL     1     -10.054  12.248  63.260  1.00  0.00    -0.397 NA 
ENDBRANCH  21  22
ENDBRANCH  20  21
ENDBRANCH  18  20
ENDBRANCH   7  18
ENDBRANCH   6   7
ENDBRANCH   5   6
ENDBRANCH   4   5
ENDBRANCH   3   4
ENDBRANCH   2   3
TORSDOF 10
ENDMDL
MODEL      107
REMARK 921   NORMALIZED FREE ENERGY PREDICTED BY IDOCK:   -4.23 KCAL/MOL
REMARK 922        TOTAL FREE ENERGY PREDICTED BY IDOCK:   -7.81 KCAL/MOL
REMARK 923 INTER-LIGAND FREE ENERGY PREDICTED BY IDOCK:   -7.26 KCAL/MOL
REMARK 924 INTRA-LIGAND FREE ENERGY PREDICTED BY IDOCK:   -0.55 KCAL/MOL
REMARK 927      BINDING AFFINITY PREDICTED BY RF-SCORE:    0.00 PKD
ROOT
HETATM    1  C   UNL     1     -10.867   2.492  73.881  1.00  0.00    -0.190 C  
HETATM    2  O   UNL     1     -10.331   3.796  73.679  1.00  0.00    -0.136 OA 
ENDROOT
BRANCH   2   3
HETATM    3  C   UNL     1     -11.373   4.734  73.427  1.00  0.00    -0.312 C  
BRANCH   3   4
HETATM    4  C   UNL     1     -10.980   5.649  72.271  1.00  0.00    -0.312 C  
BRANCH   4   5
HETATM    5  C   UNL     1     -12.078   6.687  72.037  1.00  0.00    -0.353 C  
BRANCH   5   6
HETATM    6  C   UNL     1     -11.569   8.123  72.176  1.00  0.00    -0.417 C  
BRANCH   6   7
HETATM    7  C   UNL     1     -11.649   8.894  70.845  1.00  0.00    -0.283 C  
BRANCH   7   8
HETATM    8  C   UNL     1     -12.069  10.345  70.843  1.00  0.00    -0.477 A  
HETATM    9  C   UNL     1     -12.937  10.803  71.848  1.00  0.00    -0.524 A  
HETATM   10  C   UNL     1     -11.586  11.280  69.916  1.00  0.00    -0.413 A  
HETATM   11  F   UNL     1     -12.424  15.350  70.284  1.00  0.00    -0.349 F  
HETATM   12  F   UNL     1     -14.378  14.839  71.088  1.00  0.00    -0.469 F  
HETATM   13  C   UNL     1     -11.911  12.637  70.028  1.00  0.00    -0.377 A  
HETATM   14  F   UNL     1     -12.674  15.056  72.423  1.00  0.00    -0.334 F  
HETATM   15  C   UNL     1     -12.742  13.097  71.056  1.00  0.00    -0.361 A  
HETATM   16  C   UNL     1     -13.049  14.567  71.208  1.00  0.00    -0.350 C  
HETATM   17  C   UNL     1     -13.267  12.160  71.957  1.00  0.00    -0.496 A  
ENDBRANCH   7   8
BRANCH   7  18
HETATM   18  N   UNL     1     -11.410   8.318  69.697  1.00  0.00    -0.437 NA 
HETATM   19  H   UNL     1     -12.072   8.284  68.920  1.00  0.00     0.000 HD 
BRANCH  18  20
HETATM   20  O   UNL     1     -10.129   7.755  69.671  1.00  0.00    -0.187 OA 
BRANCH  20  21
HETATM   21  C   UNL     1      -9.218   8.621  68.997  1.00  0.00    -0.145 C  
BRANCH  21  22
HETATM   22  C   UNL     1      -9.928   9.100  67.726  1.00  0.00    -0.189 C  
HETATM   23  H2  UNL     1      -8.248   9.787  66.765  1.00  0.00     0.000 HD 
HETATM   24  H1  UNL     1      -9.660  10.435  66.136  1.00  0.00     0.000 HD 
HETATM   25  N   UNL     1      -9.188  10.116  66.981  1.00  0.00    -0.145 NA 
ENDBRANCH  21  22
ENDBRANCH  20  21
ENDBRANCH  18  20
ENDBRANCH   7  18
ENDBRANCH   6   7
ENDBRANCH   5   6
ENDBRANCH   4   5
ENDBRANCH   3   4
ENDBRANCH   2   3
TORSDOF 10
ENDMDL
MODEL      108
REMARK 921   NORMALIZED FREE ENERGY PREDICTED BY IDOCK:   -4.22 KCAL/MOL
REMARK 922        TOTAL FREE ENERGY PREDICTED BY IDOCK:   -7.79 KCAL/MOL
REMARK 923 INTER-LIGAND FREE ENERGY PREDICTED BY IDOCK:   -6.82 KCAL/MOL
REMARK 924 INTRA-LIGAND FREE ENERGY PREDICTED BY IDOCK:   -0.96 KCAL/MOL
REMARK 927      BINDING AFFINITY PREDICTED BY RF-SCORE:    0.00 PKD
ROOT
HETATM    1  C   UNL     1     -12.525   8.873  72.076  1.00  0.00    -0.392 C  
HETATM    2  O   UNL     1     -12.557  10.273  71.818  1.00  0.00    -0.405 OA 
ENDROOT
BRANCH   2   3
HETATM    3  C   UNL     1     -11.784  10.589  70.663  1.00  0.00    -0.357 C  
BRANCH   3   4
HETATM    4  C   UNL     1     -12.375  11.808  69.961  1.00  0.00    -0.233 C  
BRANCH   4   5
HETATM    5  C   UNL     1     -11.864  11.873  68.522  1.00  0.00    -0.357 C  
BRANCH   5   6
HETATM    6  C   UNL     1     -11.845  13.299  67.968  1.00  0.00    -0.392 C  
BRANCH   6   7
HETATM    7  C   UNL     1     -10.474  13.974  68.165  1.00  0.00    -0.243 C  
BRANCH   7   8
HETATM    8  C   UNL     1     -10.312  15.445  67.862  1.00  0.00    -0.247 A  
HETATM    9  C   UNL     1     -10.393  15.876  66.528  1.00  0.00    -0.304 A  
HETATM   10  C   UNL     1     -10.142  16.417  68.858  1.00  0.00    -0.255 A  
HETATM   11  F   UNL     1     -10.187  20.491  67.960  1.00  0.00    -0.515 F  
HETATM   12  F   UNL     1      -9.236  20.046  66.057  1.00  0.00    -0.406 F  
HETATM   13  C   UNL     1     -10.116  17.779  68.536  1.00  0.00    -0.377 A  
HETATM   14  F   UNL     1     -11.405  20.044  66.217  1.00  0.00    -0.313 F  
HETATM   15  C   UNL     1     -10.240  18.209  67.210  1.00  0.00    -0.377 A  
HETATM   16  C   UNL     1     -10.266  19.679  66.868  1.00  0.00    -0.442 C  
HETATM   17  C   UNL     1     -10.361  17.239  66.204  1.00  0.00    -0.320 A  
ENDBRANCH   7   8
BRANCH   7  18
HETATM   18  N   UNL     1      -9.420  13.301  68.545  1.00  0.00    -0.369 NA 
HETATM   19  H   UNL     1      -9.259  12.970  69.496  1.00  0.00     0.000 HD 
BRANCH  18  20
HETATM   20  O   UNL     1      -8.540  13.095  67.476  1.00  0.00    -0.173 OA 
BRANCH  20  21
HETATM   21  C   UNL     1      -7.207  12.920  67.954  1.00  0.00    -0.125 C  
BRANCH  21  22
HETATM   22  C   UNL     1      -6.930  14.084  68.912  1.00  0.00    -0.110 C  
HETATM   23  H2  UNL     1      -7.595  15.575  67.666  1.00  0.00     0.000 HD 
HETATM   24  H1  UNL     1      -6.597  16.151  68.884  1.00  0.00     0.000 HD 
HETATM   25  N   UNL     1      -6.781  15.376  68.247  1.00  0.00    -0.112 NA 
ENDBRANCH  21  22
ENDBRANCH  20  21
ENDBRANCH  18  20
ENDBRANCH   7  18
ENDBRANCH   6   7
ENDBRANCH   5   6
ENDBRANCH   4   5
ENDBRANCH   3   4
ENDBRANCH   2   3
TORSDOF 10
ENDMDL
MODEL      109
REMARK 921   NORMALIZED FREE ENERGY PREDICTED BY IDOCK:   -4.21 KCAL/MOL
REMARK 922        TOTAL FREE ENERGY PREDICTED BY IDOCK:   -7.78 KCAL/MOL
REMARK 923 INTER-LIGAND FREE ENERGY PREDICTED BY IDOCK:   -6.82 KCAL/MOL
REMARK 924 INTRA-LIGAND FREE ENERGY PREDICTED BY IDOCK:   -0.96 KCAL/MOL
REMARK 927      BINDING AFFINITY PREDICTED BY RF-SCORE:    0.00 PKD
ROOT
HETATM    1  C   UNL     1      -9.594   6.272  68.299  1.00  0.00    -0.119 C  
HETATM    2  O   UNL     1      -9.572   6.985  67.067  1.00  0.00    -0.142 OA 
ENDROOT
BRANCH   2   3
HETATM    3  C   UNL     1     -10.586   7.986  67.047  1.00  0.00    -0.294 C  
BRANCH   3   4
HETATM    4  C   UNL     1      -9.991   9.320  66.609  1.00  0.00    -0.333 C  
BRANCH   4   5
HETATM    5  C   UNL     1     -10.068  10.323  67.760  1.00  0.00    -0.213 C  
BRANCH   5   6
HETATM    6  C   UNL     1     -11.437  10.999  67.859  1.00  0.00    -0.358 C  
BRANCH   6   7
HETATM    7  C   UNL     1     -11.465  12.083  68.953  1.00  0.00    -0.301 C  
BRANCH   7   8
HETATM    8  C   UNL     1     -11.177  13.521  68.593  1.00  0.00    -0.311 A  
HETATM    9  C   UNL     1     -11.956  14.536  69.173  1.00  0.00    -0.344 A  
HETATM   10  C   UNL     1     -10.126  13.902  67.747  1.00  0.00    -0.241 A  
HETATM   11  F   UNL     1      -9.113  17.912  67.198  1.00  0.00    -0.238 F  
HETATM   12  F   UNL     1     -11.215  18.431  67.378  1.00  0.00    -0.360 F  
HETATM   13  C   UNL     1      -9.825  15.254  67.539  1.00  0.00    -0.213 A  
HETATM   14  F   UNL     1      -9.959  18.344  69.152  1.00  0.00    -0.361 F  
HETATM   15  C   UNL     1     -10.575  16.263  68.152  1.00  0.00    -0.307 A  
HETATM   16  C   UNL     1     -10.218  17.718  67.970  1.00  0.00    -0.377 C  
HETATM   17  C   UNL     1     -11.659  15.888  68.960  1.00  0.00    -0.392 A  
ENDBRANCH   7   8
BRANCH   7  18
HETATM   18  N   UNL     1     -11.687  11.794  70.208  1.00  0.00    -0.501 NA 
HETATM   19  H   UNL     1     -11.142  12.161  70.989  1.00  0.00     0.000 HD 
BRANCH  18  20
HETATM   20  O   UNL     1     -12.767  10.914  70.341  1.00  0.00    -0.309 OA 
BRANCH  20  21
HETATM   21  C   UNL     1     -12.703  10.232  71.593  1.00  0.00    -0.456 C  
BRANCH  21  22
HETATM   22  C   UNL     1     -11.823   8.996  71.371  1.00  0.00    -0.325 C  
HETATM   23  H2  UNL     1     -10.069   9.836  72.032  1.00  0.00     0.000 HD 
HETATM   24  H1  UNL     1      -9.816   8.476  71.085  1.00  0.00     0.000 HD 
HETATM   25  N   UNL     1     -10.401   9.298  71.232  1.00  0.00    -0.325 NA 
ENDBRANCH  21  22
ENDBRANCH  20  21
ENDBRANCH  18  20
ENDBRANCH   7  18
ENDBRANCH   6   7
ENDBRANCH   5   6
ENDBRANCH   4   5
ENDBRANCH   3   4
ENDBRANCH   2   3
TORSDOF 10
ENDMDL
MODEL      110
REMARK 921   NORMALIZED FREE ENERGY PREDICTED BY IDOCK:   -4.19 KCAL/MOL
REMARK 922        TOTAL FREE ENERGY PREDICTED BY IDOCK:   -7.74 KCAL/MOL
REMARK 923 INTER-LIGAND FREE ENERGY PREDICTED BY IDOCK:   -6.51 KCAL/MOL
REMARK 924 INTRA-LIGAND FREE ENERGY PREDICTED BY IDOCK:   -1.23 KCAL/MOL
REMARK 927      BINDING AFFINITY PREDICTED BY RF-SCORE:    0.00 PKD
ROOT
HETATM    1  C   UNL     1      -5.528   7.165  66.553  1.00  0.00    -0.023 C  
HETATM    2  O   UNL     1      -5.589   8.008  67.699  1.00  0.00    -0.035 OA 
ENDROOT
BRANCH   2   3
HETATM    3  C   UNL     1      -6.918   8.477  67.907  1.00  0.00    -0.074 C  
BRANCH   3   4
HETATM    4  C   UNL     1      -6.888   9.918  68.407  1.00  0.00    -0.063 C  
BRANCH   4   5
HETATM    5  C   UNL     1      -8.070  10.164  69.344  1.00  0.00    -0.163 C  
BRANCH   5   6
HETATM    6  C   UNL     1      -9.040   8.981  69.392  1.00  0.00    -0.146 C  
BRANCH   6   7
HETATM    7  C   UNL     1     -10.446   9.370  68.899  1.00  0.00    -0.216 C  
BRANCH   7   8
HETATM    8  C   UNL     1     -10.610  10.071  67.571  1.00  0.00    -0.336 A  
HETATM    9  C   UNL     1     -11.338  11.271  67.522  1.00  0.00    -0.360 A  
HETATM   10  C   UNL     1     -10.017   9.613  66.386  1.00  0.00    -0.323 A  
HETATM   11  F   UNL     1     -10.124  11.872  62.880  1.00  0.00    -0.395 F  
HETATM   12  F   UNL     1     -12.097  12.589  63.444  1.00  0.00    -0.500 F  
HETATM   13  C   UNL     1     -10.098  10.362  65.206  1.00  0.00    -0.370 A  
HETATM   14  F   UNL     1     -10.320  13.662  64.096  1.00  0.00    -0.432 F  
HETATM   15  C   UNL     1     -10.788  11.579  65.170  1.00  0.00    -0.326 A  
HETATM   16  C   UNL     1     -10.831  12.412  63.912  1.00  0.00    -0.420 C  
HETATM   17  C   UNL     1     -11.425  12.018  66.340  1.00  0.00    -0.417 A  
ENDBRANCH   7   8
BRANCH   7  18
HETATM   18  N   UNL     1     -11.516   9.154  69.619  1.00  0.00    -0.428 NA 
HETATM   19  H   UNL     1     -12.283   8.541  69.343  1.00  0.00     0.000 HD 
BRANCH  18  20
HETATM   20  O   UNL     1     -11.471   9.874  70.818  1.00  0.00    -0.298 OA 
BRANCH  20  21
HETATM   21  C   UNL     1     -12.744  10.454  71.099  1.00  0.00    -0.415 C  
BRANCH  21  22
HETATM   22  C   UNL     1     -13.428   9.535  72.118  1.00  0.00    -0.456 C  
HETATM   23  H2  UNL     1     -12.032   8.029  72.047  1.00  0.00     0.000 HD 
HETATM   24  H1  UNL     1     -13.500   7.519  72.677  1.00  0.00     0.000 HD 
HETATM   25  N   UNL     1     -13.046   8.130  71.999  1.00  0.00    -0.314 NA 
ENDBRANCH  21  22
ENDBRANCH  20  21
ENDBRANCH  18  20
ENDBRANCH   7  18
ENDBRANCH   6   7
ENDBRANCH   5   6
ENDBRANCH   4   5
ENDBRANCH   3   4
ENDBRANCH   2   3
TORSDOF 10
ENDMDL
MODEL      111
REMARK 921   NORMALIZED FREE ENERGY PREDICTED BY IDOCK:   -4.18 KCAL/MOL
REMARK 922        TOTAL FREE ENERGY PREDICTED BY IDOCK:   -7.73 KCAL/MOL
REMARK 923 INTER-LIGAND FREE ENERGY PREDICTED BY IDOCK:   -6.89 KCAL/MOL
REMARK 924 INTRA-LIGAND FREE ENERGY PREDICTED BY IDOCK:   -0.84 KCAL/MOL
REMARK 927      BINDING AFFINITY PREDICTED BY RF-SCORE:    0.00 PKD
ROOT
HETATM    1  C   UNL     1      -7.664   6.427  69.876  1.00  0.00    -0.109 C  
HETATM    2  O   UNL     1      -7.004   7.612  69.443  1.00  0.00    -0.060 OA 
ENDROOT
BRANCH   2   3
HETATM    3  C   UNL     1      -7.877   8.735  69.529  1.00  0.00    -0.091 C  
BRANCH   3   4
HETATM    4  C   UNL     1      -8.158   9.281  68.133  1.00  0.00    -0.107 C  
BRANCH   4   5
HETATM    5  C   UNL     1      -8.553  10.755  68.226  1.00  0.00    -0.135 C  
BRANCH   5   6
HETATM    6  C   UNL     1      -9.637  11.138  67.216  1.00  0.00    -0.182 C  
BRANCH   6   7
HETATM    7  C   UNL     1      -9.787  12.666  67.084  1.00  0.00    -0.212 C  
BRANCH   7   8
HETATM    8  C   UNL     1     -10.483  13.449  68.172  1.00  0.00    -0.250 A  
HETATM    9  C   UNL     1     -11.560  12.856  68.852  1.00  0.00    -0.360 A  
HETATM   10  C   UNL     1     -10.068  14.723  68.582  1.00  0.00    -0.238 A  
HETATM   11  F   UNL     1     -11.744  16.596  71.911  1.00  0.00    -0.519 F  
HETATM   12  F   UNL     1     -13.652  15.675  71.425  1.00  0.00    -0.514 F  
HETATM   13  C   UNL     1     -10.670  15.358  69.675  1.00  0.00    -0.281 A  
HETATM   14  F   UNL     1     -12.236  14.635  72.707  1.00  0.00    -0.378 F  
HETATM   15  C   UNL     1     -11.714  14.748  70.378  1.00  0.00    -0.350 A  
HETATM   16  C   UNL     1     -12.327  15.408  71.589  1.00  0.00    -0.373 C  
HETATM   17  C   UNL     1     -12.167  13.494  69.942  1.00  0.00    -0.356 A  
ENDBRANCH   7   8
BRANCH   7  18
HETATM   18  N   UNL     1      -9.370  13.312  66.027  1.00  0.00    -0.481 NA 
HETATM   19  H   UNL     1      -8.477  13.801  65.966  1.00  0.00     0.000 HD 
BRANCH  18  20
HETATM   20  O   UNL     1     -10.309  13.247  64.991  1.00  0.00    -0.325 OA 
BRANCH  20  21
HETATM   21  C   UNL     1     -10.859  14.538  64.735  1.00  0.00    -0.393 C  
BRANCH  21  22
HETATM   22  C   UNL     1     -12.368  14.343  64.550  1.00  0.00    -0.418 C  
HETATM   23  H2  UNL     1     -12.602  12.927  66.020  1.00  0.00     0.000 HD 
HETATM   24  H1  UNL     1     -13.868  12.930  64.921  1.00  0.00     0.000 HD 
HETATM   25  N   UNL     1     -12.864  13.060  65.044  1.00  0.00    -0.753 NA 
ENDBRANCH  21  22
ENDBRANCH  20  21
ENDBRANCH  18  20
ENDBRANCH   7  18
ENDBRANCH   6   7
ENDBRANCH   5   6
ENDBRANCH   4   5
ENDBRANCH   3   4
ENDBRANCH   2   3
TORSDOF 10
ENDMDL
MODEL      112
REMARK 921   NORMALIZED FREE ENERGY PREDICTED BY IDOCK:   -4.17 KCAL/MOL
REMARK 922        TOTAL FREE ENERGY PREDICTED BY IDOCK:   -7.72 KCAL/MOL
REMARK 923 INTER-LIGAND FREE ENERGY PREDICTED BY IDOCK:   -7.05 KCAL/MOL
REMARK 924 INTRA-LIGAND FREE ENERGY PREDICTED BY IDOCK:   -0.67 KCAL/MOL
REMARK 927      BINDING AFFINITY PREDICTED BY RF-SCORE:    0.00 PKD
ROOT
HETATM    1  C   UNL     1      -7.179  20.809  67.426  1.00  0.00    -0.354 C  
HETATM    2  O   UNL     1      -8.210  19.830  67.496  1.00  0.00    -0.293 OA 
ENDROOT
BRANCH   2   3
HETATM    3  C   UNL     1      -8.727  19.551  66.197  1.00  0.00    -0.311 C  
BRANCH   3   4
HETATM    4  C   UNL     1      -9.222  18.110  66.133  1.00  0.00    -0.136 C  
BRANCH   4   5
HETATM    5  C   UNL     1      -8.404  17.240  67.089  1.00  0.00    -0.220 C  
BRANCH   5   6
HETATM    6  C   UNL     1      -8.213  15.814  66.568  1.00  0.00    -0.278 C  
BRANCH   6   7
HETATM    7  C   UNL     1      -9.548  15.051  66.479  1.00  0.00    -0.277 C  
BRANCH   7   8
HETATM    8  C   UNL     1     -10.454  14.980  67.685  1.00  0.00    -0.247 A  
HETATM    9  C   UNL     1     -10.303  13.912  68.585  1.00  0.00    -0.237 A  
HETATM   10  C   UNL     1     -11.405  15.964  67.987  1.00  0.00    -0.284 A  
HETATM   11  F   UNL     1     -13.518  15.927  71.584  1.00  0.00    -0.529 F  
HETATM   12  F   UNL     1     -13.508  13.754  71.526  1.00  0.00    -0.392 F  
HETATM   13  C   UNL     1     -12.138  15.915  69.179  1.00  0.00    -0.158 A  
HETATM   14  F   UNL     1     -11.874  14.826  72.482  1.00  0.00    -0.395 F  
HETATM   15  C   UNL     1     -11.956  14.873  70.095  1.00  0.00    -0.368 A  
HETATM   16  C   UNL     1     -12.706  14.847  71.404  1.00  0.00    -0.335 C  
HETATM   17  C   UNL     1     -11.041  13.859  69.775  1.00  0.00    -0.063 A  
ENDBRANCH   7   8
BRANCH   7  18
HETATM   18  N   UNL     1      -9.909  14.413  65.397  1.00  0.00    -0.541 NA 
HETATM   19  H   UNL     1      -9.416  14.466  64.505  1.00  0.00     0.000 HD 
BRANCH  18  20
HETATM   20  O   UNL     1     -11.059  13.648  65.621  1.00  0.00    -0.293 OA 
BRANCH  20  21
HETATM   21  C   UNL     1     -12.007  13.856  64.575  1.00  0.00    -0.437 C  
BRANCH  21  22
HETATM   22  C   UNL     1     -12.006  12.580  63.724  1.00  0.00    -0.517 C  
HETATM   23  H2  UNL     1     -10.017  12.134  63.974  1.00  0.00     0.000 HD 
HETATM   24  H1  UNL     1     -10.688  11.363  62.646  1.00  0.00     0.000 HD 
HETATM   25  N   UNL     1     -10.689  12.211  63.212  1.00  0.00    -0.389 NA 
ENDBRANCH  21  22
ENDBRANCH  20  21
ENDBRANCH  18  20
ENDBRANCH   7  18
ENDBRANCH   6   7
ENDBRANCH   5   6
ENDBRANCH   4   5
ENDBRANCH   3   4
ENDBRANCH   2   3
TORSDOF 10
ENDMDL
MODEL      113
REMARK 921   NORMALIZED FREE ENERGY PREDICTED BY IDOCK:   -4.15 KCAL/MOL
REMARK 922        TOTAL FREE ENERGY PREDICTED BY IDOCK:   -7.69 KCAL/MOL
REMARK 923 INTER-LIGAND FREE ENERGY PREDICTED BY IDOCK:   -6.62 KCAL/MOL
REMARK 924 INTRA-LIGAND FREE ENERGY PREDICTED BY IDOCK:   -1.07 KCAL/MOL
REMARK 927      BINDING AFFINITY PREDICTED BY RF-SCORE:    0.00 PKD
ROOT
HETATM    1  C   UNL     1      -5.893  13.592  67.831  1.00  0.00    -0.129 C  
HETATM    2  O   UNL     1      -5.971  12.472  66.956  1.00  0.00    -0.283 OA 
ENDROOT
BRANCH   2   3
HETATM    3  C   UNL     1      -7.231  11.819  67.086  1.00  0.00    -0.147 C  
BRANCH   3   4
HETATM    4  C   UNL     1      -7.136  10.709  68.128  1.00  0.00    -0.081 C  
BRANCH   4   5
HETATM    5  C   UNL     1      -8.186  10.932  69.217  1.00  0.00    -0.046 C  
BRANCH   5   6
HETATM    6  C   UNL     1      -9.123   9.735  69.385  1.00  0.00    -0.209 C  
BRANCH   6   7
HETATM    7  C   UNL     1     -10.558  10.059  68.928  1.00  0.00    -0.218 C  
BRANCH   7   8
HETATM    8  C   UNL     1     -10.786  10.765  67.613  1.00  0.00    -0.305 A  
HETATM    9  C   UNL     1     -10.354  10.148  66.427  1.00  0.00    -0.258 A  
HETATM   10  C   UNL     1     -11.464  11.988  67.509  1.00  0.00    -0.403 A  
HETATM   11  F   UNL     1     -12.465  13.617  63.801  1.00  0.00    -0.453 F  
HETATM   12  F   UNL     1     -10.626  12.796  62.983  1.00  0.00    -0.247 F  
HETATM   13  C   UNL     1     -11.755  12.543  66.257  1.00  0.00    -0.462 A  
HETATM   14  F   UNL     1     -12.449  11.610  62.969  1.00  0.00    -0.601 F  
HETATM   15  C   UNL     1     -11.361  11.906  65.075  1.00  0.00    -0.333 A  
HETATM   16  C   UNL     1     -11.721  12.477  63.726  1.00  0.00    -0.485 C  
HETATM   17  C   UNL     1     -10.639  10.708  65.175  1.00  0.00    -0.190 A  
ENDBRANCH   7   8
BRANCH   7  18
HETATM   18  N   UNL     1     -11.598   9.782  69.669  1.00  0.00    -0.448 NA 
HETATM   19  H   UNL     1     -12.476   9.404  69.313  1.00  0.00     0.000 HD 
BRANCH  18  20
HETATM   20  O   UNL     1     -11.351  10.074  71.016  1.00  0.00    -0.347 OA 
BRANCH  20  21
HETATM   21  C   UNL     1     -12.033   9.147  71.859  1.00  0.00    -0.373 C  
BRANCH  21  22
HETATM   22  C   UNL     1     -10.961   8.227  72.454  1.00  0.00    -0.368 C  
HETATM   23  H2  UNL     1     -10.938   6.869  70.912  1.00  0.00     0.000 HD 
HETATM   24  H1  UNL     1     -10.281   6.251  72.325  1.00  0.00     0.000 HD 
HETATM   25  N   UNL     1     -10.994   6.864  71.930  1.00  0.00    -0.230 NA 
ENDBRANCH  21  22
ENDBRANCH  20  21
ENDBRANCH  18  20
ENDBRANCH   7  18
ENDBRANCH   6   7
ENDBRANCH   5   6
ENDBRANCH   4   5
ENDBRANCH   3   4
ENDBRANCH   2   3
TORSDOF 10
ENDMDL
MODEL      114
REMARK 921   NORMALIZED FREE ENERGY PREDICTED BY IDOCK:   -4.15 KCAL/MOL
REMARK 922        TOTAL FREE ENERGY PREDICTED BY IDOCK:   -7.68 KCAL/MOL
REMARK 923 INTER-LIGAND FREE ENERGY PREDICTED BY IDOCK:   -6.76 KCAL/MOL
REMARK 924 INTRA-LIGAND FREE ENERGY PREDICTED BY IDOCK:   -0.92 KCAL/MOL
REMARK 927      BINDING AFFINITY PREDICTED BY RF-SCORE:    0.00 PKD
ROOT
HETATM    1  C   UNL     1     -10.807  17.622  65.455  1.00  0.00     0.056 C  
HETATM    2  O   UNL     1     -11.285  16.847  64.361  1.00  0.00    -1.159 OA 
ENDROOT
BRANCH   2   3
HETATM    3  C   UNL     1     -11.052  15.460  64.588  1.00  0.00    -0.347 C  
BRANCH   3   4
HETATM    4  C   UNL     1     -12.353  14.681  64.422  1.00  0.00    -0.420 C  
BRANCH   4   5
HETATM    5  C   UNL     1     -12.506  13.682  65.569  1.00  0.00    -0.544 C  
BRANCH   5   6
HETATM    6  C   UNL     1     -12.076  14.264  66.917  1.00  0.00    -0.440 C  
BRANCH   6   7
HETATM    7  C   UNL     1     -10.880  13.502  67.518  1.00  0.00    -0.264 C  
BRANCH   7   8
HETATM    8  C   UNL     1     -10.887  11.992  67.543  1.00  0.00    -0.284 A  
HETATM    9  C   UNL     1     -10.365  11.293  66.442  1.00  0.00    -0.291 A  
HETATM   10  C   UNL     1     -11.338  11.247  68.641  1.00  0.00    -0.336 A  
HETATM   11  F   UNL     1     -10.871   7.105  68.806  1.00  0.00    -0.215 F  
HETATM   12  F   UNL     1     -11.171   7.021  66.655  1.00  0.00    -0.408 F  
HETATM   13  C   UNL     1     -11.213   9.853  68.664  1.00  0.00    -0.122 A  
HETATM   14  F   UNL     1      -9.171   7.291  67.466  1.00  0.00    -0.128 F  
HETATM   15  C   UNL     1     -10.654   9.161  67.584  1.00  0.00    -0.307 A  
HETATM   16  C   UNL     1     -10.471   7.664  67.630  1.00  0.00    -0.244 C  
HETATM   17  C   UNL     1     -10.246   9.897  66.462  1.00  0.00    -0.292 A  
ENDBRANCH   7   8
BRANCH   7  18
HETATM   18  N   UNL     1      -9.865  14.124  68.058  1.00  0.00    -0.217 NA 
HETATM   19  H   UNL     1      -9.781  14.335  69.053  1.00  0.00     0.000 HD 
BRANCH  18  20
HETATM   20  O   UNL     1      -8.908  14.462  67.093  1.00  0.00    -0.206 OA 
BRANCH  20  21
HETATM   21  C   UNL     1      -7.662  14.771  67.715  1.00  0.00    -0.157 C  
BRANCH  21  22
HETATM   22  C   UNL     1      -7.983  15.674  68.912  1.00  0.00    -0.193 C  
HETATM   23  H2  UNL     1      -9.627  16.584  68.084  1.00  0.00     0.000 HD 
HETATM   24  H1  UNL     1      -8.986  17.454  69.365  1.00  0.00     0.000 HD 
HETATM   25  N   UNL     1      -8.772  16.854  68.569  1.00  0.00    -0.243 NA 
ENDBRANCH  21  22
ENDBRANCH  20  21
ENDBRANCH  18  20
ENDBRANCH   7  18
ENDBRANCH   6   7
ENDBRANCH   5   6
ENDBRANCH   4   5
ENDBRANCH   3   4
ENDBRANCH   2   3
TORSDOF 10
ENDMDL
MODEL      115
REMARK 921   NORMALIZED FREE ENERGY PREDICTED BY IDOCK:   -4.13 KCAL/MOL
REMARK 922        TOTAL FREE ENERGY PREDICTED BY IDOCK:   -7.65 KCAL/MOL
REMARK 923 INTER-LIGAND FREE ENERGY PREDICTED BY IDOCK:   -7.10 KCAL/MOL
REMARK 924 INTRA-LIGAND FREE ENERGY PREDICTED BY IDOCK:   -0.55 KCAL/MOL
REMARK 927      BINDING AFFINITY PREDICTED BY RF-SCORE:    0.00 PKD
ROOT
HETATM    1  C   UNL     1      -5.401  10.840  65.859  1.00  0.00    -0.130 C  
HETATM    2  O   UNL     1      -5.597  11.549  67.078  1.00  0.00    -0.085 OA 
ENDROOT
BRANCH   2   3
HETATM    3  C   UNL     1      -6.834  12.255  67.056  1.00  0.00    -0.031 C  
BRANCH   3   4
HETATM    4  C   UNL     1      -7.882  11.495  67.863  1.00  0.00    -0.123 C  
BRANCH   4   5
HETATM    5  C   UNL     1      -9.258  12.125  67.648  1.00  0.00    -0.181 C  
BRANCH   5   6
HETATM    6  C   UNL     1      -9.189  13.645  67.485  1.00  0.00    -0.218 C  
BRANCH   6   7
HETATM    7  C   UNL     1     -10.563  14.309  67.698  1.00  0.00    -0.253 C  
BRANCH   7   8
HETATM    8  C   UNL     1     -11.124  14.441  69.093  1.00  0.00    -0.290 A  
HETATM    9  C   UNL     1     -11.036  15.683  69.745  1.00  0.00    -0.307 A  
HETATM   10  C   UNL     1     -11.787  13.398  69.754  1.00  0.00    -0.393 A  
HETATM   11  F   UNL     1     -13.720  14.004  73.401  1.00  0.00    -0.144 F  
HETATM   12  F   UNL     1     -12.181  15.441  73.938  1.00  0.00    -0.516 F  
HETATM   13  C   UNL     1     -12.394  13.606  70.998  1.00  0.00    -0.436 A  
HETATM   14  F   UNL     1     -13.959  16.098  72.871  1.00  0.00    -0.640 F  
HETATM   15  C   UNL     1     -12.342  14.854  71.627  1.00  0.00    -0.404 A  
HETATM   16  C   UNL     1     -13.042  15.093  72.942  1.00  0.00    -0.479 C  
HETATM   17  C   UNL     1     -11.638  15.889  70.993  1.00  0.00    -0.465 A  
ENDBRANCH   7   8
BRANCH   7  18
HETATM   18  N   UNL     1     -11.292  14.725  66.696  1.00  0.00    -0.351 NA 
HETATM   19  H   UNL     1     -12.313  14.716  66.683  1.00  0.00     0.000 HD 
BRANCH  18  20
HETATM   20  O   UNL     1     -10.492  15.185  65.644  1.00  0.00    -0.309 OA 
BRANCH  20  21
HETATM   21  C   UNL     1     -10.720  14.409  64.469  1.00  0.00    -0.214 C  
BRANCH  21  22
HETATM   22  C   UNL     1     -12.214  14.067  64.454  1.00  0.00    -0.426 C  
HETATM   23  H2  UNL     1     -12.041  12.309  63.407  1.00  0.00     0.000 HD 
HETATM   24  H1  UNL     1     -13.597  12.931  63.368  1.00  0.00     0.000 HD 
HETATM   25  N   UNL     1     -12.603  13.159  63.378  1.00  0.00    -0.707 NA 
ENDBRANCH  21  22
ENDBRANCH  20  21
ENDBRANCH  18  20
ENDBRANCH   7  18
ENDBRANCH   6   7
ENDBRANCH   5   6
ENDBRANCH   4   5
ENDBRANCH   3   4
ENDBRANCH   2   3
TORSDOF 10
ENDMDL
MODEL      116
REMARK 921   NORMALIZED FREE ENERGY PREDICTED BY IDOCK:   -4.11 KCAL/MOL
REMARK 922        TOTAL FREE ENERGY PREDICTED BY IDOCK:   -7.62 KCAL/MOL
REMARK 923 INTER-LIGAND FREE ENERGY PREDICTED BY IDOCK:   -6.92 KCAL/MOL
REMARK 924 INTRA-LIGAND FREE ENERGY PREDICTED BY IDOCK:   -0.69 KCAL/MOL
REMARK 927      BINDING AFFINITY PREDICTED BY RF-SCORE:    0.00 PKD
ROOT
HETATM    1  C   UNL     1      -5.137  10.712  65.626  1.00  0.00    -0.106 C  
HETATM    2  O   UNL     1      -5.609  10.989  66.941  1.00  0.00    -0.055 OA 
ENDROOT
BRANCH   2   3
HETATM    3  C   UNL     1      -6.948  11.473  66.902  1.00  0.00    -0.134 C  
BRANCH   3   4
HETATM    4  C   UNL     1      -7.742  10.721  65.839  1.00  0.00    -0.118 C  
BRANCH   4   5
HETATM    5  C   UNL     1      -9.208  11.153  65.887  1.00  0.00    -0.225 C  
BRANCH   5   6
HETATM    6  C   UNL     1      -9.546  11.947  67.151  1.00  0.00    -0.192 C  
BRANCH   6   7
HETATM    7  C   UNL     1     -10.956  11.617  67.677  1.00  0.00    -0.239 C  
BRANCH   7   8
HETATM    8  C   UNL     1     -11.122  10.637  68.814  1.00  0.00    -0.316 A  
HETATM    9  C   UNL     1     -12.028  10.941  69.844  1.00  0.00    -0.430 A  
HETATM   10  C   UNL     1     -10.459   9.404  68.864  1.00  0.00    -0.236 A  
HETATM   11  F   UNL     1     -11.350   6.566  71.790  1.00  0.00    -0.267 F  
HETATM   12  F   UNL     1     -11.714   8.183  73.197  1.00  0.00    -0.431 F  
HETATM   13  C   UNL     1     -10.738   8.479  69.878  1.00  0.00    -0.224 A  
HETATM   14  F   UNL     1     -13.336   7.431  71.956  1.00  0.00    -0.319 F  
HETATM   15  C   UNL     1     -11.671   8.765  70.879  1.00  0.00    -0.299 A  
HETATM   16  C   UNL     1     -12.011   7.748  71.941  1.00  0.00    -0.301 C  
HETATM   17  C   UNL     1     -12.302  10.018  70.862  1.00  0.00    -0.438 A  
ENDBRANCH   7   8
BRANCH   7  18
HETATM   18  N   UNL     1     -12.032  12.126  67.137  1.00  0.00    -0.584 NA 
HETATM   19  H   UNL     1     -12.831  11.578  66.818  1.00  0.00     0.000 HD 
BRANCH  18  20
HETATM   20  O   UNL     1     -11.944  13.521  67.053  1.00  0.00    -0.386 OA 
BRANCH  20  21
HETATM   21  C   UNL     1     -12.106  13.949  65.702  1.00  0.00    -0.421 C  
BRANCH  21  22
HETATM   22  C   UNL     1     -12.608  12.733  64.914  1.00  0.00    -0.470 C  
HETATM   23  H2  UNL     1     -11.517  13.092  63.211  1.00  0.00     0.000 HD 
HETATM   24  H1  UNL     1     -12.812  12.062  62.942  1.00  0.00     0.000 HD 
HETATM   25  N   UNL     1     -12.479  12.871  63.466  1.00  0.00    -0.734 NA 
ENDBRANCH  21  22
ENDBRANCH  20  21
ENDBRANCH  18  20
ENDBRANCH   7  18
ENDBRANCH   6   7
ENDBRANCH   5   6
ENDBRANCH   4   5
ENDBRANCH   3   4
ENDBRANCH   2   3
TORSDOF 10
ENDMDL
MODEL      117
REMARK 921   NORMALIZED FREE ENERGY PREDICTED BY IDOCK:   -4.10 KCAL/MOL
REMARK 922        TOTAL FREE ENERGY PREDICTED BY IDOCK:   -7.61 KCAL/MOL
REMARK 923 INTER-LIGAND FREE ENERGY PREDICTED BY IDOCK:   -6.88 KCAL/MOL
REMARK 924 INTRA-LIGAND FREE ENERGY PREDICTED BY IDOCK:   -0.73 KCAL/MOL
REMARK 927      BINDING AFFINITY PREDICTED BY RF-SCORE:    0.00 PKD
ROOT
HETATM    1  C   UNL     1      -7.175  19.889  68.574  1.00  0.00    -0.296 C  
HETATM    2  O   UNL     1      -7.015  18.596  68.000  1.00  0.00    -0.227 OA 
ENDROOT
BRANCH   2   3
HETATM    3  C   UNL     1      -7.998  17.696  68.506  1.00  0.00    -0.283 C  
BRANCH   3   4
HETATM    4  C   UNL     1      -7.971  16.396  67.708  1.00  0.00    -0.160 C  
BRANCH   4   5
HETATM    5  C   UNL     1      -8.952  16.487  66.539  1.00  0.00    -0.312 C  
BRANCH   5   6
HETATM    6  C   UNL     1     -10.407  16.592  67.000  1.00  0.00    -0.301 C  
BRANCH   6   7
HETATM    7  C   UNL     1     -10.890  15.298  67.682  1.00  0.00    -0.295 C  
BRANCH   7   8
HETATM    8  C   UNL     1     -11.364  15.337  69.115  1.00  0.00    -0.307 A  
HETATM    9  C   UNL     1     -10.411  15.438  70.143  1.00  0.00    -0.291 A  
HETATM   10  C   UNL     1     -12.719  15.336  69.474  1.00  0.00     0.107 A  
HETATM   11  F   UNL     1     -13.932  15.932  73.420  1.00  0.00    -0.539 F  
HETATM   12  F   UNL     1     -12.157  14.870  74.089  1.00  0.00    -0.632 F  
HETATM   13  C   UNL     1     -13.110  15.494  70.809  1.00  0.00    -0.446 A  
HETATM   14  F   UNL     1     -12.086  17.021  73.773  1.00  0.00    -0.485 F  
HETATM   15  C   UNL     1     -12.160  15.638  71.826  1.00  0.00    -0.507 A  
HETATM   16  C   UNL     1     -12.581  15.862  73.258  1.00  0.00    -0.527 C  
HETATM   17  C   UNL     1     -10.802  15.590  71.480  1.00  0.00     0.032 A  
ENDBRANCH   7   8
BRANCH   7  18
HETATM   18  N   UNL     1     -10.860  14.142  67.072  1.00  0.00    -0.292 NA 
HETATM   19  H   UNL     1     -10.765  14.025  66.063  1.00  0.00     0.000 HD 
BRANCH  18  20
HETATM   20  O   UNL     1     -10.975  13.087  67.984  1.00  0.00    -0.235 OA 
BRANCH  20  21
HETATM   21  C   UNL     1     -11.531  11.937  67.347  1.00  0.00    -0.323 C  
BRANCH  21  22
HETATM   22  C   UNL     1     -11.431  10.787  68.356  1.00  0.00    -0.288 C  
HETATM   23  H2  UNL     1     -12.142  11.833  69.974  1.00  0.00     0.000 HD 
HETATM   24  H1  UNL     1     -11.290  10.460  70.418  1.00  0.00     0.000 HD 
HETATM   25  N   UNL     1     -11.356  11.225  69.747  1.00  0.00    -0.278 NA 
ENDBRANCH  21  22
ENDBRANCH  20  21
ENDBRANCH  18  20
ENDBRANCH   7  18
ENDBRANCH   6   7
ENDBRANCH   5   6
ENDBRANCH   4   5
ENDBRANCH   3   4
ENDBRANCH   2   3
TORSDOF 10
ENDMDL
MODEL      118
REMARK 921   NORMALIZED FREE ENERGY PREDICTED BY IDOCK:   -4.10 KCAL/MOL
REMARK 922        TOTAL FREE ENERGY PREDICTED BY IDOCK:   -7.60 KCAL/MOL
REMARK 923 INTER-LIGAND FREE ENERGY PREDICTED BY IDOCK:   -6.88 KCAL/MOL
REMARK 924 INTRA-LIGAND FREE ENERGY PREDICTED BY IDOCK:   -0.72 KCAL/MOL
REMARK 927      BINDING AFFINITY PREDICTED BY RF-SCORE:    0.00 PKD
ROOT
HETATM    1  C   UNL     1     -10.696  17.248  65.611  1.00  0.00    -0.120 C  
HETATM    2  O   UNL     1     -11.221  16.369  64.621  1.00  0.00    -0.587 OA 
ENDROOT
BRANCH   2   3
HETATM    3  C   UNL     1     -10.758  15.038  64.834  1.00  0.00    -0.397 C  
BRANCH   3   4
HETATM    4  C   UNL     1     -11.793  14.040  64.325  1.00  0.00    -0.435 C  
BRANCH   4   5
HETATM    5  C   UNL     1     -12.376  13.255  65.500  1.00  0.00    -0.533 C  
BRANCH   5   6
HETATM    6  C   UNL     1     -12.354  14.051  66.807  1.00  0.00    -0.368 C  
BRANCH   6   7
HETATM    7  C   UNL     1     -11.440  13.400  67.862  1.00  0.00    -0.315 C  
BRANCH   7   8
HETATM    8  C   UNL     1     -10.950  11.985  67.660  1.00  0.00    -0.287 A  
HETATM    9  C   UNL     1     -11.454  10.968  68.488  1.00  0.00    -0.379 A  
HETATM   10  C   UNL     1     -10.057  11.622  66.643  1.00  0.00    -0.238 A  
HETATM   11  F   UNL     1      -9.143   7.627  65.866  1.00  0.00    -0.188 F  
HETATM   12  F   UNL     1      -9.314   7.211  67.993  1.00  0.00    -0.131 F  
HETATM   13  C   UNL     1      -9.727  10.280  66.422  1.00  0.00    -0.252 A  
HETATM   14  F   UNL     1     -11.066   7.072  66.711  1.00  0.00    -0.434 F  
HETATM   15  C   UNL     1     -10.262   9.264  67.221  1.00  0.00    -0.315 A  
HETATM   16  C   UNL     1      -9.948   7.813  66.949  1.00  0.00    -0.261 C  
HETATM   17  C   UNL     1     -11.118   9.625  68.272  1.00  0.00    -0.102 A  
ENDBRANCH   7   8
BRANCH   7  18
HETATM   18  N   UNL     1     -11.106  14.018  68.964  1.00  0.00    -0.257 NA 
HETATM   19  H   UNL     1     -11.048  13.572  69.880  1.00  0.00     0.000 HD 
BRANCH  18  20
HETATM   20  O   UNL     1     -10.838  15.370  68.723  1.00  0.00    -0.234 OA 
BRANCH  20  21
HETATM   21  C   UNL     1     -11.513  16.189  69.677  1.00  0.00    -0.290 C  
BRANCH  21  22
HETATM   22  C   UNL     1     -11.907  15.272  70.840  1.00  0.00    -0.341 C  
HETATM   23  H2  UNL     1     -13.742  14.725  70.094  1.00  0.00     0.000 HD 
HETATM   24  H1  UNL     1     -13.610  14.456  71.744  1.00  0.00     0.000 HD 
HETATM   25  N   UNL     1     -13.347  15.067  70.970  1.00  0.00    -0.419 NA 
ENDBRANCH  21  22
ENDBRANCH  20  21
ENDBRANCH  18  20
ENDBRANCH   7  18
ENDBRANCH   6   7
ENDBRANCH   5   6
ENDBRANCH   4   5
ENDBRANCH   3   4
ENDBRANCH   2   3
TORSDOF 10
ENDMDL
MODEL      119
REMARK 921   NORMALIZED FREE ENERGY PREDICTED BY IDOCK:   -4.09 KCAL/MOL
REMARK 922        TOTAL FREE ENERGY PREDICTED BY IDOCK:   -7.59 KCAL/MOL
REMARK 923 INTER-LIGAND FREE ENERGY PREDICTED BY IDOCK:   -6.56 KCAL/MOL
REMARK 924 INTRA-LIGAND FREE ENERGY PREDICTED BY IDOCK:   -1.03 KCAL/MOL
REMARK 927      BINDING AFFINITY PREDICTED BY RF-SCORE:    0.00 PKD
ROOT
HETATM    1  C   UNL     1      -7.376   6.015  71.338  1.00  0.00    -0.084 C  
HETATM    2  O   UNL     1      -8.083   6.502  72.474  1.00  0.00    -0.104 OA 
ENDROOT
BRANCH   2   3
HETATM    3  C   UNL     1      -9.130   5.607  72.836  1.00  0.00    -0.125 C  
BRANCH   3   4
HETATM    4  C   UNL     1     -10.156   6.331  73.702  1.00  0.00    -0.241 C  
BRANCH   4   5
HETATM    5  C   UNL     1     -10.410   7.730  73.141  1.00  0.00    -0.403 C  
BRANCH   5   6
HETATM    6  C   UNL     1     -11.836   7.902  72.614  1.00  0.00    -0.352 C  
BRANCH   6   7
HETATM    7  C   UNL     1     -11.856   8.415  71.162  1.00  0.00    -0.282 C  
BRANCH   7   8
HETATM    8  C   UNL     1     -11.914   9.899  70.891  1.00  0.00    -0.434 A  
HETATM    9  C   UNL     1     -11.086  10.440  69.893  1.00  0.00    -0.367 A  
HETATM   10  C   UNL     1     -12.802  10.763  71.548  1.00  0.00    -0.567 A  
HETATM   11  F   UNL     1     -13.225  14.749  70.392  1.00  0.00    -0.367 F  
HETATM   12  F   UNL     1     -11.109  14.793  69.897  1.00  0.00    -0.253 F  
HETATM   13  C   UNL     1     -12.902  12.109  71.177  1.00  0.00    -0.313 A  
HETATM   14  F   UNL     1     -12.566  14.190  68.398  1.00  0.00    -0.240 F  
HETATM   15  C   UNL     1     -12.106  12.637  70.154  1.00  0.00    -0.368 A  
HETATM   16  C   UNL     1     -12.251  14.074  69.718  1.00  0.00    -0.341 C  
HETATM   17  C   UNL     1     -11.181  11.789  69.527  1.00  0.00    -0.265 A  
ENDBRANCH   7   8
BRANCH   7  18
HETATM   18  N   UNL     1     -11.872   7.599  70.140  1.00  0.00    -0.476 NA 
HETATM   19  H   UNL     1     -12.708   7.359  69.607  1.00  0.00     0.000 HD 
BRANCH  18  20
HETATM   20  O   UNL     1     -10.592   7.099  69.874  1.00  0.00    -0.217 OA 
BRANCH  20  21
HETATM   21  C   UNL     1     -10.675   5.921  69.073  1.00  0.00    -0.309 C  
BRANCH  21  22
HETATM   22  C   UNL     1     -10.078   6.278  67.707  1.00  0.00    -0.149 C  
HETATM   23  H2  UNL     1     -10.152   8.317  67.946  1.00  0.00     0.000 HD 
HETATM   24  H1  UNL     1     -10.018   7.860  66.338  1.00  0.00     0.000 HD 
HETATM   25  N   UNL     1     -10.415   7.622  67.247  1.00  0.00    -0.301 NA 
ENDBRANCH  21  22
ENDBRANCH  20  21
ENDBRANCH  18  20
ENDBRANCH   7  18
ENDBRANCH   6   7
ENDBRANCH   5   6
ENDBRANCH   4   5
ENDBRANCH   3   4
ENDBRANCH   2   3
TORSDOF 10
ENDMDL
MODEL      120
REMARK 921   NORMALIZED FREE ENERGY PREDICTED BY IDOCK:   -4.08 KCAL/MOL
REMARK 922        TOTAL FREE ENERGY PREDICTED BY IDOCK:   -7.57 KCAL/MOL
REMARK 923 INTER-LIGAND FREE ENERGY PREDICTED BY IDOCK:   -6.68 KCAL/MOL
REMARK 924 INTRA-LIGAND FREE ENERGY PREDICTED BY IDOCK:   -0.89 KCAL/MOL
REMARK 927      BINDING AFFINITY PREDICTED BY RF-SCORE:    0.00 PKD
ROOT
HETATM    1  C   UNL     1      -6.243  10.137  68.666  1.00  0.00    -0.044 C  
HETATM    2  O   UNL     1      -7.490  10.114  67.979  1.00  0.00    -0.086 OA 
ENDROOT
BRANCH   2   3
HETATM    3  C   UNL     1      -8.321  11.187  68.411  1.00  0.00    -0.149 C  
BRANCH   3   4
HETATM    4  C   UNL     1      -9.786  10.767  68.346  1.00  0.00    -0.177 C  
BRANCH   4   5
HETATM    5  C   UNL     1     -10.556  11.719  67.429  1.00  0.00    -0.258 C  
BRANCH   5   6
HETATM    6  C   UNL     1     -10.290  13.190  67.753  1.00  0.00    -0.230 C  
BRANCH   6   7
HETATM    7  C   UNL     1      -9.873  13.988  66.504  1.00  0.00    -0.290 C  
BRANCH   7   8
HETATM    8  C   UNL     1      -9.571  15.463  66.622  1.00  0.00    -0.276 A  
HETATM    9  C   UNL     1      -8.230  15.882  66.646  1.00  0.00    -0.317 A  
HETATM   10  C   UNL     1     -10.568  16.449  66.648  1.00  0.00    -0.239 A  
HETATM   11  F   UNL     1      -9.625  20.510  66.488  1.00  0.00    -0.477 F  
HETATM   12  F   UNL     1      -7.825  20.101  67.637  1.00  0.00    -0.309 F  
HETATM   13  C   UNL     1     -10.235  17.809  66.638  1.00  0.00    -0.361 A  
HETATM   14  F   UNL     1      -7.780  19.992  65.464  1.00  0.00    -0.337 F  
HETATM   15  C   UNL     1      -8.899  18.224  66.619  1.00  0.00    -0.294 A  
HETATM   16  C   UNL     1      -8.540  19.688  66.553  1.00  0.00    -0.354 C  
HETATM   17  C   UNL     1      -7.897  17.242  66.642  1.00  0.00    -0.295 A  
ENDBRANCH   7   8
BRANCH   7  18
HETATM   18  N   UNL     1      -9.816  13.439  65.319  1.00  0.00    -0.527 NA 
HETATM   19  H   UNL     1      -9.184  12.679  65.067  1.00  0.00     0.000 HD 
BRANCH  18  20
HETATM   20  O   UNL     1     -10.734  14.029  64.443  1.00  0.00    -0.377 OA 
BRANCH  20  21
HETATM   21  C   UNL     1     -11.997  13.372  64.528  1.00  0.00    -0.407 C  
BRANCH  21  22
HETATM   22  C   UNL     1     -12.019  12.319  63.414  1.00  0.00    -0.494 C  
HETATM   23  H2  UNL     1     -10.896  10.911  64.403  1.00  0.00     0.000 HD 
HETATM   24  H1  UNL     1     -10.935  10.657  62.746  1.00  0.00     0.000 HD 
HETATM   25  N   UNL     1     -10.921  11.358  63.487  1.00  0.00    -0.380 NA 
ENDBRANCH  21  22
ENDBRANCH  20  21
ENDBRANCH  18  20
ENDBRANCH   7  18
ENDBRANCH   6   7
ENDBRANCH   5   6
ENDBRANCH   4   5
ENDBRANCH   3   4
ENDBRANCH   2   3
TORSDOF 10
ENDMDL
MODEL      121
REMARK 921   NORMALIZED FREE ENERGY PREDICTED BY IDOCK:   -4.07 KCAL/MOL
REMARK 922        TOTAL FREE ENERGY PREDICTED BY IDOCK:   -7.56 KCAL/MOL
REMARK 923 INTER-LIGAND FREE ENERGY PREDICTED BY IDOCK:   -6.61 KCAL/MOL
REMARK 924 INTRA-LIGAND FREE ENERGY PREDICTED BY IDOCK:   -0.95 KCAL/MOL
REMARK 927      BINDING AFFINITY PREDICTED BY RF-SCORE:    0.00 PKD
ROOT
HETATM    1  C   UNL     1      -9.339   5.254  71.855  1.00  0.00    -0.141 C  
HETATM    2  O   UNL     1      -8.448   6.322  72.161  1.00  0.00    -0.113 OA 
ENDROOT
BRANCH   2   3
HETATM    3  C   UNL     1      -8.164   7.089  70.994  1.00  0.00    -0.117 C  
BRANCH   3   4
HETATM    4  C   UNL     1      -7.752   8.503  71.391  1.00  0.00    -0.131 C  
BRANCH   4   5
HETATM    5  C   UNL     1      -8.396   9.515  70.443  1.00  0.00    -0.226 C  
BRANCH   5   6
HETATM    6  C   UNL     1      -9.615   8.944  69.715  1.00  0.00    -0.175 C  
BRANCH   6   7
HETATM    7  C   UNL     1     -10.847   9.858  69.851  1.00  0.00    -0.278 C  
BRANCH   7   8
HETATM    8  C   UNL     1     -11.201  10.812  68.735  1.00  0.00    -0.331 A  
HETATM    9  C   UNL     1     -11.873  12.005  69.050  1.00  0.00    -0.372 A  
HETATM   10  C   UNL     1     -10.838  10.595  67.399  1.00  0.00    -0.353 A  
HETATM   11  F   UNL     1     -11.435  13.510  64.475  1.00  0.00    -0.332 F  
HETATM   12  F   UNL     1     -13.250  14.120  65.504  1.00  0.00    -0.555 F  
HETATM   13  C   UNL     1     -11.084  11.566  66.420  1.00  0.00    -0.328 A  
HETATM   14  F   UNL     1     -11.343  15.023  66.033  1.00  0.00    -0.341 F  
HETATM   15  C   UNL     1     -11.715  12.772  66.743  1.00  0.00    -0.459 A  
HETATM   16  C   UNL     1     -11.932  13.840  65.700  1.00  0.00    -0.388 C  
HETATM   17  C   UNL     1     -12.125  12.974  68.070  1.00  0.00    -0.220 A  
ENDBRANCH   7   8
BRANCH   7  18
HETATM   18  N   UNL     1     -11.582   9.872  70.932  1.00  0.00    -0.343 NA 
HETATM   19  H   UNL     1     -12.172  10.654  71.218  1.00  0.00     0.000 HD 
BRANCH  18  20
HETATM   20  O   UNL     1     -11.453   8.676  71.647  1.00  0.00    -0.265 OA 
BRANCH  20  21
HETATM   21  C   UNL     1     -12.558   7.814  71.379  1.00  0.00    -0.317 C  
BRANCH  21  22
HETATM   22  C   UNL     1     -13.819   8.683  71.459  1.00  0.00    -0.335 C  
HETATM   23  H2  UNL     1     -13.294   9.699  73.165  1.00  0.00     0.000 HD 
HETATM   24  H1  UNL     1     -14.939   9.774  72.850  1.00  0.00     0.000 HD 
HETATM   25  N   UNL     1     -14.101   9.196  72.797  1.00  0.00    -0.487 NA 
ENDBRANCH  21  22
ENDBRANCH  20  21
ENDBRANCH  18  20
ENDBRANCH   7  18
ENDBRANCH   6   7
ENDBRANCH   5   6
ENDBRANCH   4   5
ENDBRANCH   3   4
ENDBRANCH   2   3
TORSDOF 10
ENDMDL
MODEL      122
REMARK 921   NORMALIZED FREE ENERGY PREDICTED BY IDOCK:   -4.06 KCAL/MOL
REMARK 922        TOTAL FREE ENERGY PREDICTED BY IDOCK:   -7.54 KCAL/MOL
REMARK 923 INTER-LIGAND FREE ENERGY PREDICTED BY IDOCK:   -6.82 KCAL/MOL
REMARK 924 INTRA-LIGAND FREE ENERGY PREDICTED BY IDOCK:   -0.71 KCAL/MOL
REMARK 927      BINDING AFFINITY PREDICTED BY RF-SCORE:    0.00 PKD
ROOT
HETATM    1  C   UNL     1      -7.225   6.853  66.796  1.00  0.00    -0.076 C  
HETATM    2  O   UNL     1      -6.803   7.503  67.991  1.00  0.00    -0.062 OA 
ENDROOT
BRANCH   2   3
HETATM    3  C   UNL     1      -7.925   7.844  68.800  1.00  0.00    -0.124 C  
BRANCH   3   4
HETATM    4  C   UNL     1      -7.611   9.089  69.624  1.00  0.00    -0.077 C  
BRANCH   4   5
HETATM    5  C   UNL     1      -8.900   9.647  70.227  1.00  0.00    -0.253 C  
BRANCH   5   6
HETATM    6  C   UNL     1     -10.144   9.251  69.429  1.00  0.00    -0.200 C  
BRANCH   6   7
HETATM    7  C   UNL     1     -11.442   9.527  70.210  1.00  0.00    -0.206 C  
BRANCH   7   8
HETATM    8  C   UNL     1     -11.928  10.947  70.380  1.00  0.00    -0.453 A  
HETATM    9  C   UNL     1     -12.674  11.276  71.524  1.00  0.00    -0.481 A  
HETATM   10  C   UNL     1     -11.620  11.975  69.478  1.00  0.00    -0.389 A  
HETATM   11  F   UNL     1     -12.597  15.949  70.285  1.00  0.00    -0.411 F  
HETATM   12  F   UNL     1     -14.398  15.266  71.291  1.00  0.00    -0.519 F  
HETATM   13  C   UNL     1     -11.992  13.298  69.743  1.00  0.00    -0.391 A  
HETATM   14  F   UNL     1     -12.543  15.482  72.406  1.00  0.00    -0.356 F  
HETATM   15  C   UNL     1     -12.699  13.631  70.904  1.00  0.00    -0.382 A  
HETATM   16  C   UNL     1     -13.054  15.064  71.215  1.00  0.00    -0.403 C  
HETATM   17  C   UNL     1     -13.052  12.599  71.786  1.00  0.00    -0.461 A  
ENDBRANCH   7   8
BRANCH   7  18
HETATM   18  N   UNL     1     -12.124   8.568  70.779  1.00  0.00    -0.483 NA 
HETATM   19  H   UNL     1     -13.056   8.272  70.488  1.00  0.00     0.000 HD 
BRANCH  18  20
HETATM   20  O   UNL     1     -11.409   8.001  71.840  1.00  0.00    -0.256 OA 
BRANCH  20  21
HETATM   21  C   UNL     1     -11.671   6.601  71.925  1.00  0.00    -0.313 C  
BRANCH  21  22
HETATM   22  C   UNL     1     -11.100   5.970  70.650  1.00  0.00    -0.301 C  
HETATM   23  H2  UNL     1     -10.417   4.244  71.529  1.00  0.00     0.000 HD 
HETATM   24  H1  UNL     1      -9.690   4.545  70.049  1.00  0.00     0.000 HD 
HETATM   25  N   UNL     1     -10.070   4.965  70.897  1.00  0.00    -0.224 NA 
ENDBRANCH  21  22
ENDBRANCH  20  21
ENDBRANCH  18  20
ENDBRANCH   7  18
ENDBRANCH   6   7
ENDBRANCH   5   6
ENDBRANCH   4   5
ENDBRANCH   3   4
ENDBRANCH   2   3
TORSDOF 10
ENDMDL
MODEL      123
REMARK 921   NORMALIZED FREE ENERGY PREDICTED BY IDOCK:   -4.06 KCAL/MOL
REMARK 922        TOTAL FREE ENERGY PREDICTED BY IDOCK:   -7.54 KCAL/MOL
REMARK 923 INTER-LIGAND FREE ENERGY PREDICTED BY IDOCK:   -6.76 KCAL/MOL
REMARK 924 INTRA-LIGAND FREE ENERGY PREDICTED BY IDOCK:   -0.77 KCAL/MOL
REMARK 927      BINDING AFFINITY PREDICTED BY RF-SCORE:    0.00 PKD
ROOT
HETATM    1  C   UNL     1      -7.304  10.382  65.634  1.00  0.00    -0.148 C  
HETATM    2  O   UNL     1      -8.510   9.875  66.196  1.00  0.00    -0.122 OA 
ENDROOT
BRANCH   2   3
HETATM    3  C   UNL     1      -8.513  10.042  67.611  1.00  0.00    -0.114 C  
BRANCH   3   4
HETATM    4  C   UNL     1      -9.943  10.230  68.108  1.00  0.00    -0.168 C  
BRANCH   4   5
HETATM    5  C   UNL     1     -10.481  11.581  67.636  1.00  0.00    -0.218 C  
BRANCH   5   6
HETATM    6  C   UNL     1      -9.547  12.740  67.987  1.00  0.00    -0.217 C  
BRANCH   6   7
HETATM    7  C   UNL     1     -10.275  14.097  67.951  1.00  0.00    -0.235 C  
BRANCH   7   8
HETATM    8  C   UNL     1     -11.043  14.570  69.163  1.00  0.00    -0.284 A  
HETATM    9  C   UNL     1     -12.013  13.723  69.725  1.00  0.00    -0.406 A  
HETATM   10  C   UNL     1     -10.793  15.795  69.797  1.00  0.00    -0.314 A  
HETATM   11  F   UNL     1     -12.623  16.794  73.410  1.00  0.00    -0.415 F  
HETATM   12  F   UNL     1     -14.401  15.722  72.766  1.00  0.00    -0.638 F  
HETATM   13  C   UNL     1     -11.448  16.135  70.987  1.00  0.00    -0.424 A  
HETATM   14  F   UNL     1     -12.825  14.674  73.839  1.00  0.00    -0.563 F  
HETATM   15  C   UNL     1     -12.382  15.272  71.568  1.00  0.00    -0.418 A  
HETATM   16  C   UNL     1     -13.048  15.614  72.878  1.00  0.00    -0.520 C  
HETATM   17  C   UNL     1     -12.672  14.066  70.912  1.00  0.00    -0.420 A  
ENDBRANCH   7   8
BRANCH   7  18
HETATM   18  N   UNL     1     -10.293  14.844  66.878  1.00  0.00    -0.261 NA 
HETATM   19  H   UNL     1     -11.143  15.154  66.407  1.00  0.00     0.000 HD 
BRANCH  18  20
HETATM   20  O   UNL     1      -8.996  15.162  66.462  1.00  0.00    -0.268 OA 
BRANCH  20  21
HETATM   21  C   UNL     1      -8.761  16.564  66.590  1.00  0.00    -0.251 C  
BRANCH  21  22
HETATM   22  C   UNL     1      -7.318  16.722  67.084  1.00  0.00    -0.187 C  
HETATM   23  H2  UNL     1      -7.592  15.806  68.902  1.00  0.00     0.000 HD 
HETATM   24  H1  UNL     1      -6.221  16.770  68.865  1.00  0.00     0.000 HD 
HETATM   25  N   UNL     1      -7.180  16.664  68.537  1.00  0.00    -0.173 NA 
ENDBRANCH  21  22
ENDBRANCH  20  21
ENDBRANCH  18  20
ENDBRANCH   7  18
ENDBRANCH   6   7
ENDBRANCH   5   6
ENDBRANCH   4   5
ENDBRANCH   3   4
ENDBRANCH   2   3
TORSDOF 10
ENDMDL
MODEL      124
REMARK 921   NORMALIZED FREE ENERGY PREDICTED BY IDOCK:   -4.05 KCAL/MOL
REMARK 922        TOTAL FREE ENERGY PREDICTED BY IDOCK:   -7.53 KCAL/MOL
REMARK 923 INTER-LIGAND FREE ENERGY PREDICTED BY IDOCK:   -6.92 KCAL/MOL
REMARK 924 INTRA-LIGAND FREE ENERGY PREDICTED BY IDOCK:   -0.61 KCAL/MOL
REMARK 927      BINDING AFFINITY PREDICTED BY RF-SCORE:    0.00 PKD
ROOT
HETATM    1  C   UNL     1     -13.648  15.513  72.632  1.00  0.00    -0.564 C  
HETATM    2  O   UNL     1     -13.725  15.540  71.210  1.00  0.00    -0.508 OA 
ENDROOT
BRANCH   2   3
HETATM    3  C   UNL     1     -12.557  14.965  70.632  1.00  0.00    -0.363 C  
BRANCH   3   4
HETATM    4  C   UNL     1     -12.101  15.802  69.441  1.00  0.00    -0.245 C  
BRANCH   4   5
HETATM    5  C   UNL     1     -11.249  14.946  68.504  1.00  0.00    -0.292 C  
BRANCH   5   6
HETATM    6  C   UNL     1     -12.079  13.929  67.719  1.00  0.00    -0.328 C  
BRANCH   6   7
HETATM    7  C   UNL     1     -11.302  12.623  67.467  1.00  0.00    -0.308 C  
BRANCH   7   8
HETATM    8  C   UNL     1     -11.375  11.500  68.475  1.00  0.00    -0.337 A  
HETATM    9  C   UNL     1     -10.717  10.291  68.193  1.00  0.00    -0.287 A  
HETATM   10  C   UNL     1     -12.022  11.623  69.712  1.00  0.00    -0.402 A  
HETATM   11  F   UNL     1     -11.756   8.641  72.618  1.00  0.00    -0.432 F  
HETATM   12  F   UNL     1     -11.719   7.151  71.036  1.00  0.00    -0.291 F  
HETATM   13  C   UNL     1     -11.959  10.595  70.661  1.00  0.00    -0.466 A  
HETATM   14  F   UNL     1      -9.861   8.029  71.748  1.00  0.00    -0.187 F  
HETATM   15  C   UNL     1     -11.267   9.409  70.395  1.00  0.00    -0.309 A  
HETATM   16  C   UNL     1     -11.154   8.323  71.437  1.00  0.00    -0.251 C  
HETATM   17  C   UNL     1     -10.660   9.260  69.140  1.00  0.00    -0.228 A  
ENDBRANCH   7   8
BRANCH   7  18
HETATM   18  N   UNL     1     -10.533  12.466  66.422  1.00  0.00    -0.240 NA 
HETATM   19  H   UNL     1     -10.677  11.758  65.702  1.00  0.00     0.000 HD 
BRANCH  18  20
HETATM   20  O   UNL     1      -9.487  13.395  66.420  1.00  0.00    -0.262 OA 
BRANCH  20  21
HETATM   21  C   UNL     1      -8.396  12.918  67.206  1.00  0.00    -0.185 C  
BRANCH  21  22
HETATM   22  C   UNL     1      -7.477  14.120  67.453  1.00  0.00    -0.134 C  
HETATM   23  H2  UNL     1      -5.745  13.228  66.801  1.00  0.00     0.000 HD 
HETATM   24  H1  UNL     1      -5.456  14.566  67.769  1.00  0.00     0.000 HD 
HETATM   25  N   UNL     1      -6.068  13.766  67.604  1.00  0.00    -0.298 NA 
ENDBRANCH  21  22
ENDBRANCH  20  21
ENDBRANCH  18  20
ENDBRANCH   7  18
ENDBRANCH   6   7
ENDBRANCH   5   6
ENDBRANCH   4   5
ENDBRANCH   3   4
ENDBRANCH   2   3
TORSDOF 10
ENDMDL
MODEL      125
REMARK 921   NORMALIZED FREE ENERGY PREDICTED BY IDOCK:   -4.05 KCAL/MOL
REMARK 922        TOTAL FREE ENERGY PREDICTED BY IDOCK:   -7.52 KCAL/MOL
REMARK 923 INTER-LIGAND FREE ENERGY PREDICTED BY IDOCK:   -6.05 KCAL/MOL
REMARK 924 INTRA-LIGAND FREE ENERGY PREDICTED BY IDOCK:   -1.47 KCAL/MOL
REMARK 927      BINDING AFFINITY PREDICTED BY RF-SCORE:    0.00 PKD
ROOT
HETATM    1  C   UNL     1      -6.987   9.201  69.279  1.00  0.00    -0.053 C  
HETATM    2  O   UNL     1      -6.743   8.524  68.051  1.00  0.00    -0.063 OA 
ENDROOT
BRANCH   2   3
HETATM    3  C   UNL     1      -6.073   9.381  67.130  1.00  0.00    -0.063 C  
BRANCH   3   4
HETATM    4  C   UNL     1      -6.476   9.024  65.702  1.00  0.00    -0.067 C  
BRANCH   4   5
HETATM    5  C   UNL     1      -7.235  10.192  65.072  1.00  0.00    -0.139 C  
BRANCH   5   6
HETATM    6  C   UNL     1      -8.436   9.734  64.242  1.00  0.00    -0.184 C  
BRANCH   6   7
HETATM    7  C   UNL     1      -9.772  10.165  64.876  1.00  0.00    -0.324 C  
BRANCH   7   8
HETATM    8  C   UNL     1     -10.040   9.874  66.334  1.00  0.00    -0.308 A  
HETATM    9  C   UNL     1     -10.290  10.947  67.205  1.00  0.00    -0.255 A  
HETATM   10  C   UNL     1     -10.111   8.575  66.854  1.00  0.00    -0.364 A  
HETATM   11  F   UNL     1     -11.330   7.861  70.779  1.00  0.00    -0.262 F  
HETATM   12  F   UNL     1     -10.367   9.714  71.379  1.00  0.00    -0.375 F  
HETATM   13  C   UNL     1     -10.480   8.353  68.186  1.00  0.00    -0.228 A  
HETATM   14  F   UNL     1     -12.441   9.728  70.723  1.00  0.00    -0.332 F  
HETATM   15  C   UNL     1     -10.771   9.422  69.042  1.00  0.00    -0.209 A  
HETATM   16  C   UNL     1     -11.221   9.181  70.462  1.00  0.00    -0.264 C  
HETATM   17  C   UNL     1     -10.654  10.726  68.540  1.00  0.00    -0.223 A  
ENDBRANCH   7   8
BRANCH   7  18
HETATM   18  N   UNL     1     -10.715  10.740  64.177  1.00  0.00    -0.399 NA 
HETATM   19  H   UNL     1     -11.665  10.379  64.084  1.00  0.00     0.000 HD 
BRANCH  18  20
HETATM   20  O   UNL     1     -10.252  11.915  63.574  1.00  0.00    -0.387 OA 
BRANCH  20  21
HETATM   21  C   UNL     1     -10.881  13.055  64.158  1.00  0.00    -0.405 C  
BRANCH  21  22
HETATM   22  C   UNL     1     -12.314  12.635  64.504  1.00  0.00    -0.464 C  
HETATM   23  H2  UNL     1     -12.569  11.351  62.921  1.00  0.00     0.000 HD 
HETATM   24  H1  UNL     1     -14.024  11.840  63.596  1.00  0.00     0.000 HD 
HETATM   25  N   UNL     1     -13.070  12.119  63.366  1.00  0.00    -0.681 NA 
ENDBRANCH  21  22
ENDBRANCH  20  21
ENDBRANCH  18  20
ENDBRANCH   7  18
ENDBRANCH   6   7
ENDBRANCH   5   6
ENDBRANCH   4   5
ENDBRANCH   3   4
ENDBRANCH   2   3
TORSDOF 10
ENDMDL
MODEL      126
REMARK 921   NORMALIZED FREE ENERGY PREDICTED BY IDOCK:   -4.05 KCAL/MOL
REMARK 922        TOTAL FREE ENERGY PREDICTED BY IDOCK:   -7.52 KCAL/MOL
REMARK 923 INTER-LIGAND FREE ENERGY PREDICTED BY IDOCK:   -6.88 KCAL/MOL
REMARK 924 INTRA-LIGAND FREE ENERGY PREDICTED BY IDOCK:   -0.64 KCAL/MOL
REMARK 927      BINDING AFFINITY PREDICTED BY RF-SCORE:    0.00 PKD
ROOT
HETATM    1  C   UNL     1      -7.018   7.751  73.216  1.00  0.00    -0.086 C  
HETATM    2  O   UNL     1      -7.326   6.771  72.230  1.00  0.00    -0.086 OA 
ENDROOT
BRANCH   2   3
HETATM    3  C   UNL     1      -8.398   7.211  71.401  1.00  0.00    -0.112 C  
BRANCH   3   4
HETATM    4  C   UNL     1      -8.757   8.655  71.739  1.00  0.00    -0.266 C  
BRANCH   4   5
HETATM    5  C   UNL     1      -8.911   9.465  70.452  1.00  0.00    -0.290 C  
BRANCH   5   6
HETATM    6  C   UNL     1      -9.783   8.757  69.413  1.00  0.00    -0.172 C  
BRANCH   6   7
HETATM    7  C   UNL     1     -10.981   9.622  68.981  1.00  0.00    -0.132 C  
BRANCH   7   8
HETATM    8  C   UNL     1     -10.939  10.360  67.664  1.00  0.00    -0.374 A  
HETATM    9  C   UNL     1     -11.641  11.571  67.541  1.00  0.00    -0.322 A  
HETATM   10  C   UNL     1     -10.182   9.925  66.568  1.00  0.00    -0.292 A  
HETATM   11  F   UNL     1      -9.746  12.275  63.149  1.00  0.00    -0.362 F  
HETATM   12  F   UNL     1     -11.773  13.004  63.434  1.00  0.00    -0.504 F  
HETATM   13  C   UNL     1     -10.080  10.706  65.410  1.00  0.00    -0.356 A  
HETATM   14  F   UNL     1     -10.103  14.035  64.371  1.00  0.00    -0.441 F  
HETATM   15  C   UNL     1     -10.745  11.932  65.305  1.00  0.00    -0.331 A  
HETATM   16  C   UNL     1     -10.592  12.798  64.079  1.00  0.00    -0.416 C  
HETATM   17  C   UNL     1     -11.544  12.349  66.380  1.00  0.00    -0.442 A  
ENDBRANCH   7   8
BRANCH   7  18
HETATM   18  N   UNL     1     -12.030   9.783  69.746  1.00  0.00    -0.448 NA 
HETATM   19  H   UNL     1     -12.960   9.423  69.531  1.00  0.00     0.000 HD 
BRANCH  18  20
HETATM   20  O   UNL     1     -11.709  10.512  70.897  1.00  0.00    -0.338 OA 
BRANCH  20  21
HETATM   21  C   UNL     1     -12.890  10.815  71.638  1.00  0.00    -0.457 C  
BRANCH  21  22
HETATM   22  C   UNL     1     -12.996  12.344  71.684  1.00  0.00    -0.305 C  
HETATM   23  H2  UNL     1     -12.614  12.665  69.692  1.00  0.00     0.000 HD 
HETATM   24  H1  UNL     1     -12.368  14.036  70.624  1.00  0.00     0.000 HD 
HETATM   25  N   UNL     1     -12.298  13.019  70.594  1.00  0.00    -0.347 NA 
ENDBRANCH  21  22
ENDBRANCH  20  21
ENDBRANCH  18  20
ENDBRANCH   7  18
ENDBRANCH   6   7
ENDBRANCH   5   6
ENDBRANCH   4   5
ENDBRANCH   3   4
ENDBRANCH   2   3
TORSDOF 10
ENDMDL
MODEL      127
REMARK 921   NORMALIZED FREE ENERGY PREDICTED BY IDOCK:   -4.03 KCAL/MOL
REMARK 922        TOTAL FREE ENERGY PREDICTED BY IDOCK:   -7.50 KCAL/MOL
REMARK 923 INTER-LIGAND FREE ENERGY PREDICTED BY IDOCK:   -6.35 KCAL/MOL
REMARK 924 INTRA-LIGAND FREE ENERGY PREDICTED BY IDOCK:   -1.15 KCAL/MOL
REMARK 927      BINDING AFFINITY PREDICTED BY RF-SCORE:    0.00 PKD
ROOT
HETATM    1  C   UNL     1     -12.929  12.308  71.481  1.00  0.00    -0.289 C  
HETATM    2  O   UNL     1     -12.189  12.800  70.368  1.00  0.00    -0.350 OA 
ENDROOT
BRANCH   2   3
HETATM    3  C   UNL     1     -11.893  11.747  69.456  1.00  0.00    -0.337 C  
BRANCH   3   4
HETATM    4  C   UNL     1     -11.776  12.303  68.040  1.00  0.00    -0.417 C  
BRANCH   4   5
HETATM    5  C   UNL     1     -10.599  11.643  67.322  1.00  0.00    -0.265 C  
BRANCH   5   6
HETATM    6  C   UNL     1      -9.632  12.664  66.718  1.00  0.00    -0.241 C  
BRANCH   6   7
HETATM    7  C   UNL     1      -9.157  13.693  67.761  1.00  0.00    -0.199 C  
BRANCH   7   8
HETATM    8  C   UNL     1      -9.439  15.162  67.548  1.00  0.00    -0.206 A  
HETATM    9  C   UNL     1     -10.513  15.753  68.235  1.00  0.00    -0.259 A  
HETATM   10  C   UNL     1      -8.643  15.985  66.740  1.00  0.00    -0.292 A  
HETATM   11  F   UNL     1      -9.215  20.115  66.599  1.00  0.00    -0.395 F  
HETATM   12  F   UNL     1     -11.350  19.792  66.845  1.00  0.00    -0.480 F  
HETATM   13  C   UNL     1      -8.874  17.364  66.669  1.00  0.00    -0.278 A  
HETATM   14  F   UNL     1     -10.073  20.016  68.592  1.00  0.00    -0.494 F  
HETATM   15  C   UNL     1      -9.917  17.958  67.388  1.00  0.00    -0.325 A  
HETATM   16  C   UNL     1     -10.134  19.451  67.354  1.00  0.00    -0.398 C  
HETATM   17  C   UNL     1     -10.748  17.132  68.160  1.00  0.00    -0.366 A  
ENDBRANCH   7   8
BRANCH   7  18
HETATM   18  N   UNL     1      -8.468  13.343  68.815  1.00  0.00    -0.362 NA 
HETATM   19  H   UNL     1      -8.857  13.253  69.754  1.00  0.00     0.000 HD 
BRANCH  18  20
HETATM   20  O   UNL     1      -7.128  13.109  68.488  1.00  0.00    -0.093 OA 
BRANCH  20  21
HETATM   21  C   UNL     1      -6.383  12.767  69.655  1.00  0.00    -0.091 C  
BRANCH  21  22
HETATM   22  C   UNL     1      -6.251  11.239  69.658  1.00  0.00    -0.113 C  
HETATM   23  H2  UNL     1      -7.708  10.877  68.257  1.00  0.00     0.000 HD 
HETATM   24  H1  UNL     1      -7.355   9.525  69.184  1.00  0.00     0.000 HD 
HETATM   25  N   UNL     1      -7.442  10.541  69.183  1.00  0.00    -0.103 NA 
ENDBRANCH  21  22
ENDBRANCH  20  21
ENDBRANCH  18  20
ENDBRANCH   7  18
ENDBRANCH   6   7
ENDBRANCH   5   6
ENDBRANCH   4   5
ENDBRANCH   3   4
ENDBRANCH   2   3
TORSDOF 10
ENDMDL
MODEL      128
REMARK 921   NORMALIZED FREE ENERGY PREDICTED BY IDOCK:   -4.02 KCAL/MOL
REMARK 922        TOTAL FREE ENERGY PREDICTED BY IDOCK:   -7.48 KCAL/MOL
REMARK 923 INTER-LIGAND FREE ENERGY PREDICTED BY IDOCK:   -6.77 KCAL/MOL
REMARK 924 INTRA-LIGAND FREE ENERGY PREDICTED BY IDOCK:   -0.71 KCAL/MOL
REMARK 927      BINDING AFFINITY PREDICTED BY RF-SCORE:    0.00 PKD
ROOT
HETATM    1  C   UNL     1      -5.510  14.227  72.008  1.00  0.00    -0.171 C  
HETATM    2  O   UNL     1      -5.421  15.370  71.164  1.00  0.00    -0.095 OA 
ENDROOT
BRANCH   2   3
HETATM    3  C   UNL     1      -5.798  15.041  69.830  1.00  0.00    -0.117 C  
BRANCH   3   4
HETATM    4  C   UNL     1      -7.239  15.473  69.576  1.00  0.00    -0.201 C  
BRANCH   4   5
HETATM    5  C   UNL     1      -7.258  16.866  68.946  1.00  0.00    -0.231 C  
BRANCH   5   6
HETATM    6  C   UNL     1      -6.852  16.849  67.471  1.00  0.00    -0.171 C  
BRANCH   6   7
HETATM    7  C   UNL     1      -8.053  17.099  66.540  1.00  0.00    -0.283 C  
BRANCH   7   8
HETATM    8  C   UNL     1      -9.025  15.979  66.251  1.00  0.00    -0.380 A  
HETATM    9  C   UNL     1      -8.727  14.686  66.712  1.00  0.00    -0.233 A  
HETATM   10  C   UNL     1     -10.246  16.177  65.592  1.00  0.00    -0.390 A  
HETATM   11  F   UNL     1     -13.069  13.123  65.269  1.00  0.00    -0.522 F  
HETATM   12  F   UNL     1     -11.445  11.686  65.115  1.00  0.00    -0.353 F  
HETATM   13  C   UNL     1     -11.165  15.130  65.453  1.00  0.00    -0.338 A  
HETATM   14  F   UNL     1     -12.238  12.230  67.067  1.00  0.00    -0.365 F  
HETATM   15  C   UNL     1     -10.885  13.853  65.952  1.00  0.00    -0.287 A  
HETATM   16  C   UNL     1     -11.898  12.739  65.850  1.00  0.00    -0.437 C  
HETATM   17  C   UNL     1      -9.644  13.637  66.569  1.00  0.00    -0.294 A  
ENDBRANCH   7   8
BRANCH   7  18
HETATM   18  N   UNL     1      -8.240  18.248  65.945  1.00  0.00    -0.508 NA 
HETATM   19  H   UNL     1      -8.777  18.372  65.087  1.00  0.00     0.000 HD 
BRANCH  18  20
HETATM   20  O   UNL     1      -7.606  19.285  66.639  1.00  0.00    -0.226 OA 
BRANCH  20  21
HETATM   21  C   UNL     1      -8.547  20.300  66.985  1.00  0.00    -0.318 C  
BRANCH  21  22
HETATM   22  C   UNL     1      -9.553  19.656  67.946  1.00  0.00    -0.356 C  
HETATM   23  H2  UNL     1     -10.816  18.921  66.503  1.00  0.00     0.000 HD 
HETATM   24  H1  UNL     1     -11.548  19.027  68.008  1.00  0.00     0.000 HD 
HETATM   25  N   UNL     1     -10.879  19.456  67.369  1.00  0.00    -0.490 NA 
ENDBRANCH  21  22
ENDBRANCH  20  21
ENDBRANCH  18  20
ENDBRANCH   7  18
ENDBRANCH   6   7
ENDBRANCH   5   6
ENDBRANCH   4   5
ENDBRANCH   3   4
ENDBRANCH   2   3
TORSDOF 10
ENDMDL
MODEL      129
REMARK 921   NORMALIZED FREE ENERGY PREDICTED BY IDOCK:   -4.01 KCAL/MOL
REMARK 922        TOTAL FREE ENERGY PREDICTED BY IDOCK:   -7.47 KCAL/MOL
REMARK 923 INTER-LIGAND FREE ENERGY PREDICTED BY IDOCK:   -6.35 KCAL/MOL
REMARK 924 INTRA-LIGAND FREE ENERGY PREDICTED BY IDOCK:   -1.12 KCAL/MOL
REMARK 927      BINDING AFFINITY PREDICTED BY RF-SCORE:    0.00 PKD
ROOT
HETATM    1  C   UNL     1      -8.454  15.303  66.780  1.00  0.00    -0.255 C  
HETATM    2  O   UNL     1      -9.773  14.910  67.147  1.00  0.00    -0.222 OA 
ENDROOT
BRANCH   2   3
HETATM    3  C   UNL     1     -10.598  14.784  65.992  1.00  0.00    -0.312 C  
BRANCH   3   4
HETATM    4  C   UNL     1     -11.942  14.174  66.379  1.00  0.00    -0.457 C  
BRANCH   4   5
HETATM    5  C   UNL     1     -11.753  12.704  66.756  1.00  0.00    -0.460 C  
BRANCH   5   6
HETATM    6  C   UNL     1     -11.898  12.459  68.259  1.00  0.00    -0.364 C  
BRANCH   6   7
HETATM    7  C   UNL     1     -10.671  11.737  68.846  1.00  0.00    -0.205 C  
BRANCH   7   8
HETATM    8  C   UNL     1     -10.858  10.479  69.660  1.00  0.00    -0.320 A  
HETATM    9  C   UNL     1     -11.694  10.519  70.789  1.00  0.00    -0.454 A  
HETATM   10  C   UNL     1     -10.284   9.249  69.312  1.00  0.00    -0.211 A  
HETATM   11  F   UNL     1     -11.248   5.736  71.344  1.00  0.00    -0.325 F  
HETATM   12  F   UNL     1     -11.435   6.890  73.177  1.00  0.00    -0.232 F  
HETATM   13  C   UNL     1     -10.584   8.086  70.031  1.00  0.00    -0.242 A  
HETATM   14  F   UNL     1     -13.158   6.626  71.876  1.00  0.00    -0.383 F  
HETATM   15  C   UNL     1     -11.450   8.120  71.129  1.00  0.00    -0.304 A  
HETATM   16  C   UNL     1     -11.816   6.858  71.871  1.00  0.00    -0.315 C  
HETATM   17  C   UNL     1     -11.990   9.357  71.512  1.00  0.00    -0.456 A  
ENDBRANCH   7   8
BRANCH   7  18
HETATM   18  N   UNL     1      -9.459  12.206  68.704  1.00  0.00    -0.389 NA 
HETATM   19  H   UNL     1      -8.985  12.795  69.388  1.00  0.00     0.000 HD 
BRANCH  18  20
HETATM   20  O   UNL     1      -8.898  11.795  67.489  1.00  0.00    -0.153 OA 
BRANCH  20  21
HETATM   21  C   UNL     1      -7.624  11.191  67.709  1.00  0.00    -0.100 C  
BRANCH  21  22
HETATM   22  C   UNL     1      -7.074  11.790  69.009  1.00  0.00    -0.100 C  
HETATM   23  H2  UNL     1      -7.166  13.755  68.417  1.00  0.00     0.000 HD 
HETATM   24  H1  UNL     1      -6.128  13.520  69.712  1.00  0.00     0.000 HD 
HETATM   25  N   UNL     1      -6.494  13.121  68.848  1.00  0.00    -0.091 NA 
ENDBRANCH  21  22
ENDBRANCH  20  21
ENDBRANCH  18  20
ENDBRANCH   7  18
ENDBRANCH   6   7
ENDBRANCH   5   6
ENDBRANCH   4   5
ENDBRANCH   3   4
ENDBRANCH   2   3
TORSDOF 10
ENDMDL
MODEL      130
REMARK 921   NORMALIZED FREE ENERGY PREDICTED BY IDOCK:   -3.98 KCAL/MOL
REMARK 922        TOTAL FREE ENERGY PREDICTED BY IDOCK:   -7.41 KCAL/MOL
REMARK 923 INTER-LIGAND FREE ENERGY PREDICTED BY IDOCK:   -6.27 KCAL/MOL
REMARK 924 INTRA-LIGAND FREE ENERGY PREDICTED BY IDOCK:   -1.14 KCAL/MOL
REMARK 927      BINDING AFFINITY PREDICTED BY RF-SCORE:    0.00 PKD
ROOT
HETATM    1  C   UNL     1     -13.494  12.376  72.256  1.00  0.00    -0.323 C  
HETATM    2  O   UNL     1     -12.784  13.015  71.199  1.00  0.00    -0.354 OA 
ENDROOT
BRANCH   2   3
HETATM    3  C   UNL     1     -13.033  14.418  71.203  1.00  0.00    -0.349 C  
BRANCH   3   4
HETATM    4  C   UNL     1     -12.317  15.075  70.027  1.00  0.00    -0.353 C  
BRANCH   4   5
HETATM    5  C   UNL     1     -11.875  14.006  69.029  1.00  0.00    -0.391 C  
BRANCH   5   6
HETATM    6  C   UNL     1     -11.683  14.563  67.617  1.00  0.00    -0.410 C  
BRANCH   6   7
HETATM    7  C   UNL     1     -10.200  14.837  67.302  1.00  0.00    -0.241 C  
BRANCH   7   8
HETATM    8  C   UNL     1      -9.696  16.259  67.238  1.00  0.00    -0.237 A  
HETATM    9  C   UNL     1     -10.031  17.145  68.275  1.00  0.00    -0.300 A  
HETATM   10  C   UNL     1      -8.857  16.728  66.218  1.00  0.00    -0.334 A  
HETATM   11  F   UNL     1      -7.133  20.523  66.385  1.00  0.00    -0.275 F  
HETATM   12  F   UNL     1      -8.927  21.257  67.368  1.00  0.00    -0.377 F  
HETATM   13  C   UNL     1      -8.320  18.020  66.267  1.00  0.00    -0.229 A  
HETATM   14  F   UNL     1      -7.291  20.447  68.551  1.00  0.00    -0.286 F  
HETATM   15  C   UNL     1      -8.620  18.887  67.323  1.00  0.00    -0.294 A  
HETATM   16  C   UNL     1      -8.000  20.260  67.403  1.00  0.00    -0.329 C  
HETATM   17  C   UNL     1      -9.499  18.440  68.321  1.00  0.00    -0.342 A  
ENDBRANCH   7   8
BRANCH   7  18
HETATM   18  N   UNL     1      -9.359  13.871  67.039  1.00  0.00    -0.242 NA 
HETATM   19  H   UNL     1      -9.333  13.353  66.161  1.00  0.00     0.000 HD 
BRANCH  18  20
HETATM   20  O   UNL     1      -8.499  13.641  68.120  1.00  0.00    -0.159 OA 
BRANCH  20  21
HETATM   21  C   UNL     1      -7.186  13.336  67.654  1.00  0.00    -0.162 C  
BRANCH  21  22
HETATM   22  C   UNL     1      -6.320  14.565  67.951  1.00  0.00    -0.161 C  
HETATM   23  H2  UNL     1      -7.035  14.902  69.847  1.00  0.00     0.000 HD 
HETATM   24  H1  UNL     1      -6.285  16.251  69.192  1.00  0.00     0.000 HD 
HETATM   25  N   UNL     1      -6.861  15.433  68.994  1.00  0.00    -0.127 NA 
ENDBRANCH  21  22
ENDBRANCH  20  21
ENDBRANCH  18  20
ENDBRANCH   7  18
ENDBRANCH   6   7
ENDBRANCH   5   6
ENDBRANCH   4   5
ENDBRANCH   3   4
ENDBRANCH   2   3
TORSDOF 10
ENDMDL
MODEL      131
REMARK 921   NORMALIZED FREE ENERGY PREDICTED BY IDOCK:   -3.98 KCAL/MOL
REMARK 922        TOTAL FREE ENERGY PREDICTED BY IDOCK:   -7.41 KCAL/MOL
REMARK 923 INTER-LIGAND FREE ENERGY PREDICTED BY IDOCK:   -6.36 KCAL/MOL
REMARK 924 INTRA-LIGAND FREE ENERGY PREDICTED BY IDOCK:   -1.04 KCAL/MOL
REMARK 927      BINDING AFFINITY PREDICTED BY RF-SCORE:    0.00 PKD
ROOT
HETATM    1  C   UNL     1      -9.718   5.446  69.391  1.00  0.00    -0.165 C  
HETATM    2  O   UNL     1     -10.445   6.518  68.800  1.00  0.00    -0.176 OA 
ENDROOT
BRANCH   2   3
HETATM    3  C   UNL     1     -10.487   6.376  67.383  1.00  0.00    -0.252 C  
BRANCH   3   4
HETATM    4  C   UNL     1     -10.470   7.751  66.723  1.00  0.00    -0.318 C  
BRANCH   4   5
HETATM    5  C   UNL     1      -9.151   8.458  67.035  1.00  0.00    -0.171 C  
BRANCH   5   6
HETATM    6  C   UNL     1      -9.111   9.890  66.499  1.00  0.00    -0.179 C  
BRANCH   6   7
HETATM    7  C   UNL     1      -9.250  10.931  67.626  1.00  0.00    -0.152 C  
BRANCH   7   8
HETATM    8  C   UNL     1     -10.164  10.652  68.796  1.00  0.00    -0.204 A  
HETATM    9  C   UNL     1     -11.481  11.139  68.759  1.00  0.00    -0.366 A  
HETATM   10  C   UNL     1      -9.781   9.877  69.899  1.00  0.00    -0.274 A  
HETATM   11  F   UNL     1     -12.522   8.764  72.840  1.00  0.00    -0.426 F  
HETATM   12  F   UNL     1     -13.534  10.669  72.568  1.00  0.00    -0.436 F  
HETATM   13  C   UNL     1     -10.702   9.547  70.900  1.00  0.00    -0.403 A  
HETATM   14  F   UNL     1     -14.107   8.948  71.365  1.00  0.00    -0.425 F  
HETATM   15  C   UNL     1     -12.025   9.998  70.840  1.00  0.00    -0.453 A  
HETATM   16  C   UNL     1     -13.032   9.599  71.891  1.00  0.00    -0.435 C  
HETATM   17  C   UNL     1     -12.402  10.815  69.764  1.00  0.00    -0.305 A  
ENDBRANCH   7   8
BRANCH   7  18
HETATM   18  N   UNL     1      -8.634  12.083  67.584  1.00  0.00    -0.154 NA 
HETATM   19  H   UNL     1      -7.879  12.356  68.214  1.00  0.00     0.000 HD 
BRANCH  18  20
HETATM   20  O   UNL     1      -9.145  12.892  66.563  1.00  0.00    -0.213 OA 
BRANCH  20  21
HETATM   21  C   UNL     1      -9.707  14.085  67.108  1.00  0.00    -0.242 C  
BRANCH  21  22
HETATM   22  C   UNL     1     -11.011  14.343  66.345  1.00  0.00    -0.319 C  
HETATM   23  H2  UNL     1     -11.366  12.388  65.823  1.00  0.00     0.000 HD 
HETATM   24  H1  UNL     1     -12.212  13.474  64.866  1.00  0.00     0.000 HD 
HETATM   25  N   UNL     1     -11.344  13.303  65.374  1.00  0.00    -0.293 NA 
ENDBRANCH  21  22
ENDBRANCH  20  21
ENDBRANCH  18  20
ENDBRANCH   7  18
ENDBRANCH   6   7
ENDBRANCH   5   6
ENDBRANCH   4   5
ENDBRANCH   3   4
ENDBRANCH   2   3
TORSDOF 10
ENDMDL
MODEL      132
REMARK 921   NORMALIZED FREE ENERGY PREDICTED BY IDOCK:   -3.96 KCAL/MOL
REMARK 922        TOTAL FREE ENERGY PREDICTED BY IDOCK:   -7.38 KCAL/MOL
REMARK 923 INTER-LIGAND FREE ENERGY PREDICTED BY IDOCK:   -6.81 KCAL/MOL
REMARK 924 INTRA-LIGAND FREE ENERGY PREDICTED BY IDOCK:   -0.58 KCAL/MOL
REMARK 927      BINDING AFFINITY PREDICTED BY RF-SCORE:    0.00 PKD
ROOT
HETATM    1  C   UNL     1     -10.596  15.547  65.178  1.00  0.00    -0.431 C  
HETATM    2  O   UNL     1     -10.626  14.329  64.442  1.00  0.00    -0.311 OA 
ENDROOT
BRANCH   2   3
HETATM    3  C   UNL     1     -11.959  13.838  64.337  1.00  0.00    -0.445 C  
BRANCH   3   4
HETATM    4  C   UNL     1     -12.590  13.749  65.723  1.00  0.00    -0.525 C  
BRANCH   4   5
HETATM    5  C   UNL     1     -12.007  12.555  66.480  1.00  0.00    -0.367 C  
BRANCH   5   6
HETATM    6  C   UNL     1     -10.991  12.973  67.545  1.00  0.00    -0.282 C  
BRANCH   6   7
HETATM    7  C   UNL     1     -10.200  11.768  68.089  1.00  0.00    -0.203 C  
BRANCH   7   8
HETATM    8  C   UNL     1     -10.847  10.834  69.084  1.00  0.00    -0.281 A  
HETATM    9  C   UNL     1     -10.336   9.532  69.224  1.00  0.00    -0.219 A  
HETATM   10  C   UNL     1     -11.900  11.220  69.924  1.00  0.00    -0.436 A  
HETATM   11  F   UNL     1     -13.293   8.726  72.964  1.00  0.00    -0.395 F  
HETATM   12  F   UNL     1     -12.876   7.009  71.698  1.00  0.00    -0.363 F  
HETATM   13  C   UNL     1     -12.386  10.355  70.912  1.00  0.00    -0.480 A  
HETATM   14  F   UNL     1     -11.335   7.784  73.023  1.00  0.00    -0.406 F  
HETATM   15  C   UNL     1     -11.847   9.074  71.078  1.00  0.00    -0.339 A  
HETATM   16  C   UNL     1     -12.334   8.162  72.177  1.00  0.00    -0.338 C  
HETATM   17  C   UNL     1     -10.826   8.664  70.208  1.00  0.00    -0.250 A  
ENDBRANCH   7   8
BRANCH   7  18
HETATM   18  N   UNL     1      -8.956  11.549  67.754  1.00  0.00    -0.155 NA 
HETATM   19  H   UNL     1      -8.666  11.035  66.921  1.00  0.00     0.000 HD 
BRANCH  18  20
HETATM   20  O   UNL     1      -8.075  12.110  68.685  1.00  0.00    -0.127 OA 
BRANCH  20  21
HETATM   21  C   UNL     1      -6.739  11.678  68.429  1.00  0.00    -0.064 C  
BRANCH  21  22
HETATM   22  C   UNL     1      -5.833  12.475  69.374  1.00  0.00    -0.093 C  
HETATM   23  H2  UNL     1      -5.891  11.141  70.935  1.00  0.00     0.000 HD 
HETATM   24  H1  UNL     1      -5.407  12.673  71.414  1.00  0.00     0.000 HD 
HETATM   25  N   UNL     1      -6.010  12.142  70.785  1.00  0.00    -0.296 NA 
ENDBRANCH  21  22
ENDBRANCH  20  21
ENDBRANCH  18  20
ENDBRANCH   7  18
ENDBRANCH   6   7
ENDBRANCH   5   6
ENDBRANCH   4   5
ENDBRANCH   3   4
ENDBRANCH   2   3
TORSDOF 10
ENDMDL
MODEL      133
REMARK 921   NORMALIZED FREE ENERGY PREDICTED BY IDOCK:   -3.96 KCAL/MOL
REMARK 922        TOTAL FREE ENERGY PREDICTED BY IDOCK:   -7.38 KCAL/MOL
REMARK 923 INTER-LIGAND FREE ENERGY PREDICTED BY IDOCK:   -6.57 KCAL/MOL
REMARK 924 INTRA-LIGAND FREE ENERGY PREDICTED BY IDOCK:   -0.81 KCAL/MOL
REMARK 927      BINDING AFFINITY PREDICTED BY RF-SCORE:    0.00 PKD
ROOT
HETATM    1  C   UNL     1      -9.214   4.504  65.130  1.00  0.00    -0.157 C  
HETATM    2  O   UNL     1      -9.940   4.418  66.352  1.00  0.00    -0.214 OA 
ENDROOT
BRANCH   2   3
HETATM    3  C   UNL     1     -10.730   5.587  66.551  1.00  0.00    -0.240 C  
BRANCH   3   4
HETATM    4  C   UNL     1     -10.349   6.253  67.869  1.00  0.00    -0.239 C  
BRANCH   4   5
HETATM    5  C   UNL     1     -10.727   7.734  67.828  1.00  0.00    -0.197 C  
BRANCH   5   6
HETATM    6  C   UNL     1      -9.617   8.640  68.366  1.00  0.00    -0.157 C  
BRANCH   6   7
HETATM    7  C   UNL     1     -10.157  10.014  68.803  1.00  0.00    -0.185 C  
BRANCH   7   8
HETATM    8  C   UNL     1     -10.495  11.054  67.762  1.00  0.00    -0.232 A  
HETATM    9  C   UNL     1      -9.671  11.174  66.630  1.00  0.00    -0.224 A  
HETATM   10  C   UNL     1     -11.631  11.872  67.837  1.00  0.00    -0.393 A  
HETATM   11  F   UNL     1     -12.734  14.369  64.682  1.00  0.00    -0.418 F  
HETATM   12  F   UNL     1     -10.629  14.685  64.243  1.00  0.00    -0.297 F  
HETATM   13  C   UNL     1     -11.965  12.737  66.788  1.00  0.00    -0.389 A  
HETATM   14  F   UNL     1     -11.698  13.028  63.322  1.00  0.00    -0.532 F  
HETATM   15  C   UNL     1     -11.166  12.824  65.643  1.00  0.00    -0.335 A  
HETATM   16  C   UNL     1     -11.554  13.716  64.489  1.00  0.00    -0.390 C  
HETATM   17  C   UNL     1     -10.002  12.044  65.583  1.00  0.00    -0.270 A  
ENDBRANCH   7   8
BRANCH   7  18
HETATM   18  N   UNL     1     -10.292  10.335  70.063  1.00  0.00    -0.395 NA 
HETATM   19  H   UNL     1      -9.610  10.875  70.596  1.00  0.00     0.000 HD 
BRANCH  18  20
HETATM   20  O   UNL     1     -11.493   9.841  70.586  1.00  0.00    -0.278 OA 
BRANCH  20  21
HETATM   21  C   UNL     1     -11.235   8.955  71.674  1.00  0.00    -0.345 C  
BRANCH  21  22
HETATM   22  C   UNL     1     -12.401   7.960  71.713  1.00  0.00    -0.320 C  
HETATM   23  H2  UNL     1     -11.263   6.260  71.533  1.00  0.00     0.000 HD 
HETATM   24  H1  UNL     1     -12.871   6.004  71.134  1.00  0.00     0.000 HD 
HETATM   25  N   UNL     1     -12.096   6.666  71.108  1.00  0.00    -0.363 NA 
ENDBRANCH  21  22
ENDBRANCH  20  21
ENDBRANCH  18  20
ENDBRANCH   7  18
ENDBRANCH   6   7
ENDBRANCH   5   6
ENDBRANCH   4   5
ENDBRANCH   3   4
ENDBRANCH   2   3
TORSDOF 10
ENDMDL
MODEL      134
REMARK 921   NORMALIZED FREE ENERGY PREDICTED BY IDOCK:   -3.94 KCAL/MOL
REMARK 922        TOTAL FREE ENERGY PREDICTED BY IDOCK:   -7.35 KCAL/MOL
REMARK 923 INTER-LIGAND FREE ENERGY PREDICTED BY IDOCK:   -6.44 KCAL/MOL
REMARK 924 INTRA-LIGAND FREE ENERGY PREDICTED BY IDOCK:   -0.90 KCAL/MOL
REMARK 927      BINDING AFFINITY PREDICTED BY RF-SCORE:    0.00 PKD
ROOT
HETATM    1  C   UNL     1      -9.908   3.548  64.881  1.00  0.00    -0.134 C  
HETATM    2  O   UNL     1      -9.343   4.503  65.774  1.00  0.00    -0.142 OA 
ENDROOT
BRANCH   2   3
HETATM    3  C   UNL     1     -10.353   5.362  66.295  1.00  0.00    -0.200 C  
BRANCH   3   4
HETATM    4  C   UNL     1      -9.712   6.591  66.930  1.00  0.00    -0.199 C  
BRANCH   4   5
HETATM    5  C   UNL     1     -10.744   7.713  67.042  1.00  0.00    -0.340 C  
BRANCH   5   6
HETATM    6  C   UNL     1     -10.178   9.076  66.640  1.00  0.00    -0.333 C  
BRANCH   6   7
HETATM    7  C   UNL     1     -10.860  10.230  67.400  1.00  0.00    -0.277 C  
BRANCH   7   8
HETATM    8  C   UNL     1     -10.702  11.649  66.908  1.00  0.00    -0.295 A  
HETATM    9  C   UNL     1     -11.852  12.430  66.709  1.00  0.00    -0.385 A  
HETATM   10  C   UNL     1      -9.454  12.251  66.695  1.00  0.00    -0.227 A  
HETATM   11  F   UNL     1      -9.114  16.312  65.806  1.00  0.00    -0.342 F  
HETATM   12  F   UNL     1     -10.979  16.189  64.696  1.00  0.00    -0.447 F  
HETATM   13  C   UNL     1      -9.358  13.605  66.355  1.00  0.00    -0.203 A  
HETATM   14  F   UNL     1     -11.005  16.644  66.823  1.00  0.00    -0.244 F  
HETATM   15  C   UNL     1     -10.503  14.393  66.199  1.00  0.00    -0.295 A  
HETATM   16  C   UNL     1     -10.399  15.865  65.885  1.00  0.00    -0.365 C  
HETATM   17  C   UNL     1     -11.756  13.784  66.363  1.00  0.00    -0.404 A  
ENDBRANCH   7   8
BRANCH   7  18
HETATM   18  N   UNL     1     -11.541  10.028  68.497  1.00  0.00    -0.565 NA 
HETATM   19  H   UNL     1     -12.403   9.484  68.548  1.00  0.00     0.000 HD 
BRANCH  18  20
HETATM   20  O   UNL     1     -10.935  10.656  69.591  1.00  0.00    -0.244 OA 
BRANCH  20  21
HETATM   21  C   UNL     1     -10.422   9.684  70.501  1.00  0.00    -0.303 C  
BRANCH  21  22
HETATM   22  C   UNL     1     -11.619   8.847  70.967  1.00  0.00    -0.293 C  
HETATM   23  H2  UNL     1     -10.751   7.010  70.662  1.00  0.00     0.000 HD 
HETATM   24  H1  UNL     1     -12.423   6.926  70.753  1.00  0.00     0.000 HD 
HETATM   25  N   UNL     1     -11.627   7.483  70.443  1.00  0.00    -0.205 NA 
ENDBRANCH  21  22
ENDBRANCH  20  21
ENDBRANCH  18  20
ENDBRANCH   7  18
ENDBRANCH   6   7
ENDBRANCH   5   6
ENDBRANCH   4   5
ENDBRANCH   3   4
ENDBRANCH   2   3
TORSDOF 10
ENDMDL
MODEL      135
REMARK 921   NORMALIZED FREE ENERGY PREDICTED BY IDOCK:   -3.92 KCAL/MOL
REMARK 922        TOTAL FREE ENERGY PREDICTED BY IDOCK:   -7.32 KCAL/MOL
REMARK 923 INTER-LIGAND FREE ENERGY PREDICTED BY IDOCK:   -7.63 KCAL/MOL
REMARK 924 INTRA-LIGAND FREE ENERGY PREDICTED BY IDOCK:    0.30 KCAL/MOL
REMARK 927      BINDING AFFINITY PREDICTED BY RF-SCORE:    0.00 PKD
ROOT
HETATM    1  C   UNL     1     -12.416  15.479  74.301  1.00  0.00    -0.643 C  
HETATM    2  O   UNL     1     -13.214  14.737  73.385  1.00  0.00    -0.565 OA 
ENDROOT
BRANCH   2   3
HETATM    3  C   UNL     1     -13.730  15.586  72.364  1.00  0.00    -0.559 C  
BRANCH   3   4
HETATM    4  C   UNL     1     -13.624  14.894  71.010  1.00  0.00    -0.402 C  
BRANCH   4   5
HETATM    5  C   UNL     1     -12.169  14.511  70.737  1.00  0.00    -0.403 C  
BRANCH   5   6
HETATM    6  C   UNL     1     -12.000  13.736  69.429  1.00  0.00    -0.397 C  
BRANCH   6   7
HETATM    7  C   UNL     1     -10.655  14.048  68.745  1.00  0.00    -0.251 C  
BRANCH   7   8
HETATM    8  C   UNL     1     -10.422  15.410  68.135  1.00  0.00    -0.247 A  
HETATM    9  C   UNL     1     -10.898  16.547  68.809  1.00  0.00    -0.342 A  
HETATM   10  C   UNL     1      -9.697  15.604  66.951  1.00  0.00    -0.240 A  
HETATM   11  F   UNL     1      -8.696  19.424  65.607  1.00  0.00    -0.196 F  
HETATM   12  F   UNL     1     -10.580  20.160  66.403  1.00  0.00    -0.533 F  
HETATM   13  C   UNL     1      -9.406  16.893  66.490  1.00  0.00    -0.293 A  
HETATM   14  F   UNL     1      -8.806  20.123  67.661  1.00  0.00    -0.361 F  
HETATM   15  C   UNL     1      -9.844  18.025  67.185  1.00  0.00    -0.316 A  
HETATM   16  C   UNL     1      -9.485  19.414  66.718  1.00  0.00    -0.333 C  
HETATM   17  C   UNL     1     -10.612  17.837  68.344  1.00  0.00    -0.297 A  
ENDBRANCH   7   8
BRANCH   7  18
HETATM   18  N   UNL     1      -9.713  13.150  68.630  1.00  0.00    -0.403 NA 
HETATM   19  H   UNL     1      -9.302  12.643  69.414  1.00  0.00     0.000 HD 
BRANCH  18  20
HETATM   20  O   UNL     1      -9.341  12.976  67.292  1.00  0.00    -0.205 OA 
BRANCH  20  21
HETATM   21  C   UNL     1      -9.921  11.783  66.766  1.00  0.00    -0.201 C  
BRANCH  21  22
HETATM   22  C   UNL     1      -9.366  11.616  65.347  1.00  0.00    -0.127 C  
HETATM   23  H2  UNL     1     -10.375  13.199  64.514  1.00  0.00     0.000 HD 
HETATM   24  H1  UNL     1      -9.832  12.105  63.366  1.00  0.00     0.000 HD 
HETATM   25  N   UNL     1     -10.202  12.215  64.310  1.00  0.00    -0.315 NA 
ENDBRANCH  21  22
ENDBRANCH  20  21
ENDBRANCH  18  20
ENDBRANCH   7  18
ENDBRANCH   6   7
ENDBRANCH   5   6
ENDBRANCH   4   5
ENDBRANCH   3   4
ENDBRANCH   2   3
TORSDOF 10
ENDMDL
MODEL      136
REMARK 921   NORMALIZED FREE ENERGY PREDICTED BY IDOCK:   -3.92 KCAL/MOL
REMARK 922        TOTAL FREE ENERGY PREDICTED BY IDOCK:   -7.32 KCAL/MOL
REMARK 923 INTER-LIGAND FREE ENERGY PREDICTED BY IDOCK:   -6.18 KCAL/MOL
REMARK 924 INTRA-LIGAND FREE ENERGY PREDICTED BY IDOCK:   -1.13 KCAL/MOL
REMARK 927      BINDING AFFINITY PREDICTED BY RF-SCORE:    0.00 PKD
ROOT
HETATM    1  C   UNL     1      -7.997   9.831  69.866  1.00  0.00    -0.175 C  
HETATM    2  O   UNL     1      -7.639   9.091  68.703  1.00  0.00    -0.089 OA 
ENDROOT
BRANCH   2   3
HETATM    3  C   UNL     1      -6.975   9.927  67.759  1.00  0.00    -0.085 C  
BRANCH   3   4
HETATM    4  C   UNL     1      -7.446   9.592  66.348  1.00  0.00    -0.094 C  
BRANCH   4   5
HETATM    5  C   UNL     1      -8.060  10.835  65.701  1.00  0.00    -0.112 C  
BRANCH   5   6
HETATM    6  C   UNL     1      -9.405  10.546  65.032  1.00  0.00    -0.268 C  
BRANCH   6   7
HETATM    7  C   UNL     1     -10.527  11.445  65.584  1.00  0.00    -0.262 C  
BRANCH   7   8
HETATM    8  C   UNL     1     -11.067  11.203  66.973  1.00  0.00    -0.339 A  
HETATM    9  C   UNL     1     -10.986   9.910  67.518  1.00  0.00    -0.239 A  
HETATM   10  C   UNL     1     -11.596  12.222  67.777  1.00  0.00    -0.416 A  
HETATM   11  F   UNL     1     -12.613  11.549  71.766  1.00  0.00    -0.415 F  
HETATM   12  F   UNL     1     -13.219   9.530  71.234  1.00  0.00    -0.368 F  
HETATM   13  C   UNL     1     -11.973  11.971  69.102  1.00  0.00    -0.326 A  
HETATM   14  F   UNL     1     -11.161   9.933  71.814  1.00  0.00    -0.401 F  
HETATM   15  C   UNL     1     -11.852  10.692  69.656  1.00  0.00    -0.358 A  
HETATM   16  C   UNL     1     -12.208  10.432  71.099  1.00  0.00    -0.394 C  
HETATM   17  C   UNL     1     -11.370   9.657  68.841  1.00  0.00     0.074 A  
ENDBRANCH   7   8
BRANCH   7  18
HETATM   18  N   UNL     1     -11.070  12.393  64.866  1.00  0.00    -0.294 NA 
HETATM   19  H   UNL     1     -12.014  12.355  64.481  1.00  0.00     0.000 HD 
BRANCH  18  20
HETATM   20  O   UNL     1     -10.187  13.466  64.696  1.00  0.00    -0.376 OA 
BRANCH  20  21
HETATM   21  C   UNL     1     -10.862  14.704  64.912  1.00  0.00    -0.419 C  
BRANCH  21  22
HETATM   22  C   UNL     1     -10.172  15.377  66.104  1.00  0.00    -0.308 C  
HETATM   23  H2  UNL     1     -10.098  17.265  65.296  1.00  0.00     0.000 HD 
HETATM   24  H1  UNL     1      -9.010  17.059  66.554  1.00  0.00     0.000 HD 
HETATM   25  N   UNL     1      -9.469  16.611  65.762  1.00  0.00    -0.519 NA 
ENDBRANCH  21  22
ENDBRANCH  20  21
ENDBRANCH  18  20
ENDBRANCH   7  18
ENDBRANCH   6   7
ENDBRANCH   5   6
ENDBRANCH   4   5
ENDBRANCH   3   4
ENDBRANCH   2   3
TORSDOF 10
ENDMDL
MODEL      137
REMARK 921   NORMALIZED FREE ENERGY PREDICTED BY IDOCK:   -3.91 KCAL/MOL
REMARK 922        TOTAL FREE ENERGY PREDICTED BY IDOCK:   -7.30 KCAL/MOL
REMARK 923 INTER-LIGAND FREE ENERGY PREDICTED BY IDOCK:   -6.34 KCAL/MOL
REMARK 924 INTRA-LIGAND FREE ENERGY PREDICTED BY IDOCK:   -0.97 KCAL/MOL
REMARK 927      BINDING AFFINITY PREDICTED BY RF-SCORE:    0.00 PKD
ROOT
HETATM    1  C   UNL     1     -10.334   6.541  73.987  1.00  0.00    -0.340 C  
HETATM    2  O   UNL     1     -11.021   6.732  72.754  1.00  0.00    -0.248 OA 
ENDROOT
BRANCH   2   3
HETATM    3  C   UNL     1     -11.190   8.120  72.482  1.00  0.00    -0.391 C  
BRANCH   3   4
HETATM    4  C   UNL     1     -12.552   8.361  71.838  1.00  0.00    -0.389 C  
BRANCH   4   5
HETATM    5  C   UNL     1     -12.463   9.538  70.867  1.00  0.00    -0.277 C  
BRANCH   5   6
HETATM    6  C   UNL     1     -11.048  10.111  70.765  1.00  0.00    -0.372 C  
BRANCH   6   7
HETATM    7  C   UNL     1     -10.423   9.861  69.380  1.00  0.00    -0.231 C  
BRANCH   7   8
HETATM    8  C   UNL     1     -10.471  10.943  68.328  1.00  0.00    -0.205 A  
HETATM    9  C   UNL     1      -9.313  11.215  67.580  1.00  0.00    -0.169 A  
HETATM   10  C   UNL     1     -11.637  11.655  68.015  1.00  0.00    -0.383 A  
HETATM   11  F   UNL     1     -11.789  14.276  64.773  1.00  0.00    -0.351 F  
HETATM   12  F   UNL     1      -9.713  14.799  65.144  1.00  0.00    -0.357 F  
HETATM   13  C   UNL     1     -11.661  12.564  66.950  1.00  0.00    -0.436 A  
HETATM   14  F   UNL     1     -10.199  13.131  63.835  1.00  0.00    -0.430 F  
HETATM   15  C   UNL     1     -10.518  12.802  66.180  1.00  0.00    -0.284 A  
HETATM   16  C   UNL     1     -10.557  13.741  64.999  1.00  0.00    -0.389 C  
HETATM   17  C   UNL     1      -9.335  12.129  66.519  1.00  0.00    -0.229 A  
ENDBRANCH   7   8
BRANCH   7  18
HETATM   18  N   UNL     1      -9.886   8.712  69.061  1.00  0.00    -0.177 NA 
HETATM   19  H   UNL     1      -8.906   8.472  69.213  1.00  0.00     0.000 HD 
BRANCH  18  20
HETATM   20  O   UNL     1     -10.830   7.855  68.485  1.00  0.00    -0.076 OA 
BRANCH  20  21
HETATM   21  C   UNL     1     -10.411   7.458  67.180  1.00  0.00    -0.333 C  
BRANCH  21  22
HETATM   22  C   UNL     1      -9.934   6.006  67.298  1.00  0.00    -0.150 C  
HETATM   23  H2  UNL     1      -9.914   5.932  69.351  1.00  0.00     0.000 HD 
HETATM   24  H1  UNL     1      -8.979   4.728  68.653  1.00  0.00     0.000 HD 
HETATM   25  N   UNL     1      -9.297   5.693  68.575  1.00  0.00    -0.120 NA 
ENDBRANCH  21  22
ENDBRANCH  20  21
ENDBRANCH  18  20
ENDBRANCH   7  18
ENDBRANCH   6   7
ENDBRANCH   5   6
ENDBRANCH   4   5
ENDBRANCH   3   4
ENDBRANCH   2   3
TORSDOF 10
ENDMDL
MODEL      138
REMARK 921   NORMALIZED FREE ENERGY PREDICTED BY IDOCK:   -3.90 KCAL/MOL
REMARK 922        TOTAL FREE ENERGY PREDICTED BY IDOCK:   -7.29 KCAL/MOL
REMARK 923 INTER-LIGAND FREE ENERGY PREDICTED BY IDOCK:   -6.27 KCAL/MOL
REMARK 924 INTRA-LIGAND FREE ENERGY PREDICTED BY IDOCK:   -1.02 KCAL/MOL
REMARK 927      BINDING AFFINITY PREDICTED BY RF-SCORE:    0.00 PKD
ROOT
HETATM    1  C   UNL     1     -10.395   7.291  73.382  1.00  0.00    -0.363 C  
HETATM    2  O   UNL     1     -11.516   7.874  72.726  1.00  0.00    -0.390 OA 
ENDROOT
BRANCH   2   3
HETATM    3  C   UNL     1     -11.189   8.215  71.381  1.00  0.00    -0.254 C  
BRANCH   3   4
HETATM    4  C   UNL     1      -9.938   9.087  71.356  1.00  0.00    -0.388 C  
BRANCH   4   5
HETATM    5  C   UNL     1      -9.278   9.003  69.980  1.00  0.00    -0.193 C  
BRANCH   5   6
HETATM    6  C   UNL     1     -10.230   8.482  68.902  1.00  0.00    -0.221 C  
BRANCH   6   7
HETATM    7  C   UNL     1      -9.830   8.968  67.496  1.00  0.00    -0.179 C  
BRANCH   7   8
HETATM    8  C   UNL     1     -10.475  10.205  66.918  1.00  0.00    -0.286 A  
HETATM    9  C   UNL     1     -11.149  11.085  67.781  1.00  0.00    -0.356 A  
HETATM   10  C   UNL     1     -10.383  10.555  65.564  1.00  0.00    -0.287 A  
HETATM   11  F   UNL     1     -11.779  14.226  64.159  1.00  0.00    -0.393 F  
HETATM   12  F   UNL     1     -13.380  14.140  65.626  1.00  0.00    -0.541 F  
HETATM   13  C   UNL     1     -10.895  11.772  65.099  1.00  0.00    -0.351 A  
HETATM   14  F   UNL     1     -11.473  15.049  66.146  1.00  0.00    -0.348 F  
HETATM   15  C   UNL     1     -11.529  12.667  65.968  1.00  0.00    -0.414 A  
HETATM   16  C   UNL     1     -12.033  14.002  65.478  1.00  0.00    -0.384 C  
HETATM   17  C   UNL     1     -11.667  12.301  67.315  1.00  0.00    -0.394 A  
ENDBRANCH   7   8
BRANCH   7  18
HETATM   18  N   UNL     1      -8.976   8.313  66.755  1.00  0.00    -0.140 NA 
HETATM   19  H   UNL     1      -9.236   7.649  66.025  1.00  0.00     0.000 HD 
BRANCH  18  20
HETATM   20  O   UNL     1      -7.658   8.640  67.094  1.00  0.00    -0.091 OA 
BRANCH  20  21
HETATM   21  C   UNL     1      -6.889   8.892  65.918  1.00  0.00    -0.072 C  
BRANCH  21  22
HETATM   22  C   UNL     1      -7.303   7.834  64.890  1.00  0.00    -0.070 C  
HETATM   23  H2  UNL     1      -7.669   9.139  63.346  1.00  0.00     0.000 HD 
HETATM   24  H1  UNL     1      -8.406   7.651  63.120  1.00  0.00     0.000 HD 
HETATM   25  N   UNL     1      -8.131   8.354  63.805  1.00  0.00    -0.157 NA 
ENDBRANCH  21  22
ENDBRANCH  20  21
ENDBRANCH  18  20
ENDBRANCH   7  18
ENDBRANCH   6   7
ENDBRANCH   5   6
ENDBRANCH   4   5
ENDBRANCH   3   4
ENDBRANCH   2   3
TORSDOF 10
ENDMDL
MODEL      139
REMARK 921   NORMALIZED FREE ENERGY PREDICTED BY IDOCK:   -3.89 KCAL/MOL
REMARK 922        TOTAL FREE ENERGY PREDICTED BY IDOCK:   -7.26 KCAL/MOL
REMARK 923 INTER-LIGAND FREE ENERGY PREDICTED BY IDOCK:   -6.86 KCAL/MOL
REMARK 924 INTRA-LIGAND FREE ENERGY PREDICTED BY IDOCK:   -0.40 KCAL/MOL
REMARK 927      BINDING AFFINITY PREDICTED BY RF-SCORE:    0.00 PKD
ROOT
HETATM    1  C   UNL     1      -8.222   6.368  70.625  1.00  0.00    -0.125 C  
HETATM    2  O   UNL     1      -7.710   6.536  69.307  1.00  0.00    -0.097 OA 
ENDROOT
BRANCH   2   3
HETATM    3  C   UNL     1      -7.590   7.920  68.986  1.00  0.00    -0.099 C  
BRANCH   3   4
HETATM    4  C   UNL     1      -8.946   8.475  68.565  1.00  0.00    -0.139 C  
BRANCH   4   5
HETATM    5  C   UNL     1      -8.762   9.836  67.894  1.00  0.00    -0.125 C  
BRANCH   5   6
HETATM    6  C   UNL     1      -9.947  10.220  67.006  1.00  0.00    -0.249 C  
BRANCH   6   7
HETATM    7  C   UNL     1     -10.284  11.719  67.113  1.00  0.00    -0.212 C  
BRANCH   7   8
HETATM    8  C   UNL     1     -10.967  12.249  68.351  1.00  0.00    -0.270 A  
HETATM    9  C   UNL     1     -11.114  13.638  68.504  1.00  0.00    -0.301 A  
HETATM   10  C   UNL     1     -11.520  11.418  69.335  1.00  0.00    -0.378 A  
HETATM   11  F   UNL     1     -13.803  12.964  72.466  1.00  0.00    -0.619 F  
HETATM   12  F   UNL     1     -12.538  14.732  72.469  1.00  0.00    -0.356 F  
HETATM   13  C   UNL     1     -12.248  11.955  70.404  1.00  0.00    -0.399 A  
HETATM   14  F   UNL     1     -14.304  14.658  71.200  1.00  0.00    -0.455 F  
HETATM   15  C   UNL     1     -12.429  13.336  70.531  1.00  0.00    -0.332 A  
HETATM   16  C   UNL     1     -13.257  13.912  71.653  1.00  0.00    -0.370 C  
HETATM   17  C   UNL     1     -11.836  14.176  69.576  1.00  0.00    -0.373 A  
ENDBRANCH   7   8
BRANCH   7  18
HETATM   18  N   UNL     1     -10.040  12.554  66.137  1.00  0.00    -0.246 NA 
HETATM   19  H   UNL     1     -10.080  13.569  66.223  1.00  0.00     0.000 HD 
BRANCH  18  20
HETATM   20  O   UNL     1      -9.718  11.872  64.958  1.00  0.00    -0.232 OA 
BRANCH  20  21
HETATM   21  C   UNL     1     -10.903  11.532  64.239  1.00  0.00    -0.359 C  
BRANCH  21  22
HETATM   22  C   UNL     1     -11.345  12.801  63.501  1.00  0.00    -0.420 C  
HETATM   23  H2  UNL     1     -13.037  13.141  64.616  1.00  0.00     0.000 HD 
HETATM   24  H1  UNL     1     -13.064  13.941  63.143  1.00  0.00     0.000 HD 
HETATM   25  N   UNL     1     -12.770  13.096  63.633  1.00  0.00    -0.701 NA 
ENDBRANCH  21  22
ENDBRANCH  20  21
ENDBRANCH  18  20
ENDBRANCH   7  18
ENDBRANCH   6   7
ENDBRANCH   5   6
ENDBRANCH   4   5
ENDBRANCH   3   4
ENDBRANCH   2   3
TORSDOF 10
ENDMDL
MODEL      140
REMARK 921   NORMALIZED FREE ENERGY PREDICTED BY IDOCK:   -3.88 KCAL/MOL
REMARK 922        TOTAL FREE ENERGY PREDICTED BY IDOCK:   -7.26 KCAL/MOL
REMARK 923 INTER-LIGAND FREE ENERGY PREDICTED BY IDOCK:   -6.51 KCAL/MOL
REMARK 924 INTRA-LIGAND FREE ENERGY PREDICTED BY IDOCK:   -0.75 KCAL/MOL
REMARK 927      BINDING AFFINITY PREDICTED BY RF-SCORE:    0.00 PKD
ROOT
HETATM    1  C   UNL     1     -10.524   2.389  73.358  1.00  0.00    -0.137 C  
HETATM    2  O   UNL     1     -11.510   3.389  73.594  1.00  0.00    -0.199 OA 
ENDROOT
BRANCH   2   3
HETATM    3  C   UNL     1     -10.948   4.691  73.453  1.00  0.00    -0.318 C  
BRANCH   3   4
HETATM    4  C   UNL     1     -11.845   5.551  72.568  1.00  0.00    -0.158 C  
BRANCH   4   5
HETATM    5  C   UNL     1     -11.069   6.004  71.331  1.00  0.00    -0.336 C  
BRANCH   5   6
HETATM    6  C   UNL     1     -11.737   7.180  70.617  1.00  0.00    -0.348 C  
BRANCH   6   7
HETATM    7  C   UNL     1     -11.114   8.529  71.023  1.00  0.00    -0.260 C  
BRANCH   7   8
HETATM    8  C   UNL     1     -11.171   9.700  70.070  1.00  0.00    -0.271 A  
HETATM    9  C   UNL     1     -10.654   9.545  68.773  1.00  0.00    -0.240 A  
HETATM   10  C   UNL     1     -11.772  10.924  70.397  1.00  0.00    -0.444 A  
HETATM   11  F   UNL     1     -12.307  13.920  67.543  1.00  0.00    -0.404 F  
HETATM   12  F   UNL     1     -10.440  13.316  66.610  1.00  0.00    -0.267 F  
HETATM   13  C   UNL     1     -11.906  11.936  69.439  1.00  0.00    -0.389 A  
HETATM   14  F   UNL     1     -12.311  12.386  66.004  1.00  0.00    -0.457 F  
HETATM   15  C   UNL     1     -11.428  11.764  68.135  1.00  0.00    -0.382 A  
HETATM   16  C   UNL     1     -11.620  12.835  67.089  1.00  0.00    -0.364 C  
HETATM   17  C   UNL     1     -10.782  10.560  67.817  1.00  0.00    -0.319 A  
ENDBRANCH   7   8
BRANCH   7  18
HETATM   18  N   UNL     1     -10.488   8.688  72.159  1.00  0.00    -0.342 NA 
HETATM   19  H   UNL     1     -10.885   8.466  73.072  1.00  0.00     0.000 HD 
BRANCH  18  20
HETATM   20  O   UNL     1      -9.201   9.202  71.960  1.00  0.00    -0.339 OA 
BRANCH  20  21
HETATM   21  C   UNL     1      -8.232   8.157  72.027  1.00  0.00    -0.149 C  
BRANCH  21  22
HETATM   22  C   UNL     1      -6.986   8.669  71.295  1.00  0.00    -0.082 C  
HETATM   23  H2  UNL     1      -7.522  10.652  71.281  1.00  0.00     0.000 HD 
HETATM   24  H1  UNL     1      -6.350  10.293  70.138  1.00  0.00     0.000 HD 
HETATM   25  N   UNL     1      -7.179   9.952  70.624  1.00  0.00    -0.311 NA 
ENDBRANCH  21  22
ENDBRANCH  20  21
ENDBRANCH  18  20
ENDBRANCH   7  18
ENDBRANCH   6   7
ENDBRANCH   5   6
ENDBRANCH   4   5
ENDBRANCH   3   4
ENDBRANCH   2   3
TORSDOF 10
ENDMDL
MODEL      141
REMARK 921   NORMALIZED FREE ENERGY PREDICTED BY IDOCK:   -3.86 KCAL/MOL
REMARK 922        TOTAL FREE ENERGY PREDICTED BY IDOCK:   -7.22 KCAL/MOL
REMARK 923 INTER-LIGAND FREE ENERGY PREDICTED BY IDOCK:   -6.94 KCAL/MOL
REMARK 924 INTRA-LIGAND FREE ENERGY PREDICTED BY IDOCK:   -0.29 KCAL/MOL
REMARK 927      BINDING AFFINITY PREDICTED BY RF-SCORE:    0.00 PKD
ROOT
HETATM    1  C   UNL     1      -6.516  19.239  66.709  1.00  0.00    -0.187 C  
HETATM    2  O   UNL     1      -7.384  20.348  66.915  1.00  0.00    -0.276 OA 
ENDROOT
BRANCH   2   3
HETATM    3  C   UNL     1      -8.645  20.122  66.291  1.00  0.00    -0.215 C  
BRANCH   3   4
HETATM    4  C   UNL     1      -9.761  20.219  67.326  1.00  0.00    -0.590 C  
BRANCH   4   5
HETATM    5  C   UNL     1     -10.852  19.197  67.006  1.00  0.00    -0.479 C  
BRANCH   5   6
HETATM    6  C   UNL     1     -10.653  17.873  67.747  1.00  0.00    -0.399 C  
BRANCH   6   7
HETATM    7  C   UNL     1     -10.315  16.720  66.784  1.00  0.00    -0.293 C  
BRANCH   7   8
HETATM    8  C   UNL     1     -10.355  15.293  67.278  1.00  0.00    -0.264 A  
HETATM    9  C   UNL     1     -11.382  14.907  68.154  1.00  0.00    -0.326 A  
HETATM   10  C   UNL     1      -9.446  14.312  66.857  1.00  0.00    -0.272 A  
HETATM   11  F   UNL     1      -9.928  10.302  67.900  1.00  0.00    -0.167 F  
HETATM   12  F   UNL     1     -10.743  10.934  69.813  1.00  0.00    -0.264 F  
HETATM   13  C   UNL     1      -9.596  12.977  67.251  1.00  0.00    -0.225 A  
HETATM   14  F   UNL     1     -12.061  10.661  68.104  1.00  0.00    -0.235 F  
HETATM   15  C   UNL     1     -10.646  12.586  68.090  1.00  0.00    -0.239 A  
HETATM   16  C   UNL     1     -10.839  11.139  68.471  1.00  0.00    -0.203 C  
HETATM   17  C   UNL     1     -11.529  13.572  68.553  1.00  0.00    -0.345 A  
ENDBRANCH   7   8
BRANCH   7  18
HETATM   18  N   UNL     1      -9.944  16.936  65.549  1.00  0.00    -0.584 NA 
HETATM   19  H   UNL     1      -9.424  17.757  65.239  1.00  0.00     0.000 HD 
BRANCH  18  20
HETATM   20  O   UNL     1     -10.354  15.894  64.709  1.00  0.00    -0.485 OA 
BRANCH  20  21
HETATM   21  C   UNL     1     -11.747  16.006  64.420  1.00  0.00    -0.134 C  
BRANCH  21  22
HETATM   22  C   UNL     1     -12.202  14.631  63.918  1.00  0.00    -0.036 C  
HETATM   23  H2  UNL     1     -13.706  14.367  65.293  1.00  0.00     0.000 HD 
HETATM   24  H1  UNL     1     -13.218  12.927  64.586  1.00  0.00     0.000 HD 
HETATM   25  N   UNL     1     -12.915  13.842  64.919  1.00  0.00    -0.722 NA 
ENDBRANCH  21  22
ENDBRANCH  20  21
ENDBRANCH  18  20
ENDBRANCH   7  18
ENDBRANCH   6   7
ENDBRANCH   5   6
ENDBRANCH   4   5
ENDBRANCH   3   4
ENDBRANCH   2   3
TORSDOF 10
ENDMDL
MODEL      142
REMARK 921   NORMALIZED FREE ENERGY PREDICTED BY IDOCK:   -3.86 KCAL/MOL
REMARK 922        TOTAL FREE ENERGY PREDICTED BY IDOCK:   -7.22 KCAL/MOL
REMARK 923 INTER-LIGAND FREE ENERGY PREDICTED BY IDOCK:   -6.02 KCAL/MOL
REMARK 924 INTRA-LIGAND FREE ENERGY PREDICTED BY IDOCK:   -1.20 KCAL/MOL
REMARK 927      BINDING AFFINITY PREDICTED BY RF-SCORE:    0.00 PKD
ROOT
HETATM    1  C   UNL     1     -10.354  11.925  63.491  1.00  0.00    -0.458 C  
HETATM    2  O   UNL     1     -10.235  10.798  64.353  1.00  0.00    -0.336 OA 
ENDROOT
BRANCH   2   3
HETATM    3  C   UNL     1      -8.865  10.509  64.616  1.00  0.00    -0.196 C  
BRANCH   3   4
HETATM    4  C   UNL     1      -8.740   9.131  65.258  1.00  0.00    -0.219 C  
BRANCH   4   5
HETATM    5  C   UNL     1      -7.852   9.219  66.500  1.00  0.00    -0.100 C  
BRANCH   5   6
HETATM    6  C   UNL     1      -8.473   8.532  67.717  1.00  0.00    -0.130 C  
BRANCH   6   7
HETATM    7  C   UNL     1      -8.975   9.549  68.759  1.00  0.00    -0.133 C  
BRANCH   7   8
HETATM    8  C   UNL     1      -9.674  10.808  68.303  1.00  0.00    -0.172 A  
HETATM    9  C   UNL     1      -8.965  12.020  68.314  1.00  0.00    -0.186 A  
HETATM   10  C   UNL     1     -10.986  10.818  67.809  1.00  0.00    -0.354 A  
HETATM   11  F   UNL     1     -12.655  14.252  66.127  1.00  0.00    -0.464 F  
HETATM   12  F   UNL     1     -11.530  15.452  67.547  1.00  0.00    -0.333 F  
HETATM   13  C   UNL     1     -11.548  11.990  67.287  1.00  0.00    -0.383 A  
HETATM   14  F   UNL     1     -10.651  14.924  65.629  1.00  0.00    -0.280 F  
HETATM   15  C   UNL     1     -10.825  13.187  67.260  1.00  0.00    -0.270 A  
HETATM   16  C   UNL     1     -11.410  14.436  66.648  1.00  0.00    -0.353 C  
HETATM   17  C   UNL     1      -9.529  13.194  67.798  1.00  0.00    -0.209 A  
ENDBRANCH   7   8
BRANCH   7  18
HETATM   18  N   UNL     1      -8.774   9.384  70.040  1.00  0.00    -0.190 NA 
HETATM   19  H   UNL     1      -7.874   9.139  70.455  1.00  0.00     0.000 HD 
BRANCH  18  20
HETATM   20  O   UNL     1      -9.952   9.587  70.767  1.00  0.00    -0.278 OA 
BRANCH  20  21
HETATM   21  C   UNL     1     -10.045   8.648  71.838  1.00  0.00    -0.328 C  
BRANCH  21  22
HETATM   22  C   UNL     1     -11.537   8.369  72.047  1.00  0.00    -0.351 C  
HETATM   23  H2  UNL     1     -11.309   6.534  72.940  1.00  0.00     0.000 HD 
HETATM   24  H1  UNL     1     -12.853   6.766  72.331  1.00  0.00     0.000 HD 
HETATM   25  N   UNL     1     -11.860   6.952  72.192  1.00  0.00    -0.292 NA 
ENDBRANCH  21  22
ENDBRANCH  20  21
ENDBRANCH  18  20
ENDBRANCH   7  18
ENDBRANCH   6   7
ENDBRANCH   5   6
ENDBRANCH   4   5
ENDBRANCH   3   4
ENDBRANCH   2   3
TORSDOF 10
ENDMDL
MODEL      143
REMARK 921   NORMALIZED FREE ENERGY PREDICTED BY IDOCK:   -3.85 KCAL/MOL
REMARK 922        TOTAL FREE ENERGY PREDICTED BY IDOCK:   -7.21 KCAL/MOL
REMARK 923 INTER-LIGAND FREE ENERGY PREDICTED BY IDOCK:   -6.32 KCAL/MOL
REMARK 924 INTRA-LIGAND FREE ENERGY PREDICTED BY IDOCK:   -0.88 KCAL/MOL
REMARK 927      BINDING AFFINITY PREDICTED BY RF-SCORE:    0.00 PKD
ROOT
HETATM    1  C   UNL     1      -5.942  19.891  67.459  1.00  0.00    -0.181 C  
HETATM    2  O   UNL     1      -7.171  20.545  67.158  1.00  0.00    -0.277 OA 
ENDROOT
BRANCH   2   3
HETATM    3  C   UNL     1      -8.258  19.626  67.216  1.00  0.00    -0.296 C  
BRANCH   3   4
HETATM    4  C   UNL     1      -8.553  19.261  68.668  1.00  0.00    -0.401 C  
BRANCH   4   5
HETATM    5  C   UNL     1      -9.899  18.542  68.756  1.00  0.00    -0.411 C  
BRANCH   5   6
HETATM    6  C   UNL     1     -10.131  17.582  67.587  1.00  0.00    -0.328 C  
BRANCH   6   7
HETATM    7  C   UNL     1     -10.317  16.129  68.064  1.00  0.00    -0.271 C  
BRANCH   7   8
HETATM    8  C   UNL     1     -11.082  15.849  69.335  1.00  0.00    -0.322 A  
HETATM    9  C   UNL     1     -12.483  15.766  69.280  1.00  0.00     0.165 A  
HETATM   10  C   UNL     1     -10.457  15.606  70.567  1.00  0.00    -0.125 A  
HETATM   11  F   UNL     1     -12.628  14.368  73.907  1.00  0.00    -0.520 F  
HETATM   12  F   UNL     1     -14.294  15.591  73.234  1.00  0.00    -0.177 F  
HETATM   13  C   UNL     1     -11.205  15.233  71.690  1.00  0.00    -0.369 A  
HETATM   14  F   UNL     1     -14.118  13.528  72.567  1.00  0.00    -0.594 F  
HETATM   15  C   UNL     1     -12.597  15.109  71.623  1.00  0.00    -0.422 A  
HETATM   16  C   UNL     1     -13.397  14.655  72.819  1.00  0.00    -0.499 C  
HETATM   17  C   UNL     1     -13.232  15.398  70.406  1.00  0.00    -0.139 A  
ENDBRANCH   7   8
BRANCH   7  18
HETATM   18  N   UNL     1      -9.789  15.118  67.425  1.00  0.00    -0.223 NA 
HETATM   19  H   UNL     1      -8.786  14.966  67.316  1.00  0.00     0.000 HD 
BRANCH  18  20
HETATM   20  O   UNL     1     -10.779  14.274  66.909  1.00  0.00    -0.285 OA 
BRANCH  20  21
HETATM   21  C   UNL     1     -10.188  13.215  66.158  1.00  0.00    -0.290 C  
BRANCH  21  22
HETATM   22  C   UNL     1      -9.646  12.206  67.176  1.00  0.00    -0.194 C  
HETATM   23  H2  UNL     1      -8.135  13.394  67.901  1.00  0.00     0.000 HD 
HETATM   24  H1  UNL     1      -7.896  11.769  68.238  1.00  0.00     0.000 HD 
HETATM   25  N   UNL     1      -8.257  12.441  67.560  1.00  0.00    -0.162 NA 
ENDBRANCH  21  22
ENDBRANCH  20  21
ENDBRANCH  18  20
ENDBRANCH   7  18
ENDBRANCH   6   7
ENDBRANCH   5   6
ENDBRANCH   4   5
ENDBRANCH   3   4
ENDBRANCH   2   3
TORSDOF 10
ENDMDL
MODEL      144
REMARK 921   NORMALIZED FREE ENERGY PREDICTED BY IDOCK:   -3.85 KCAL/MOL
REMARK 922        TOTAL FREE ENERGY PREDICTED BY IDOCK:   -7.21 KCAL/MOL
REMARK 923 INTER-LIGAND FREE ENERGY PREDICTED BY IDOCK:   -6.07 KCAL/MOL
REMARK 924 INTRA-LIGAND FREE ENERGY PREDICTED BY IDOCK:   -1.14 KCAL/MOL
REMARK 927      BINDING AFFINITY PREDICTED BY RF-SCORE:    0.00 PKD
ROOT
HETATM    1  C   UNL     1      -6.357  11.359  67.079  1.00  0.00    -0.122 C  
HETATM    2  O   UNL     1      -5.840  10.143  66.550  1.00  0.00    -0.056 OA 
ENDROOT
BRANCH   2   3
HETATM    3  C   UNL     1      -6.288   9.029  67.316  1.00  0.00    -0.060 C  
BRANCH   3   4
HETATM    4  C   UNL     1      -6.747   7.909  66.387  1.00  0.00    -0.054 C  
BRANCH   4   5
HETATM    5  C   UNL     1      -7.825   7.074  67.077  1.00  0.00    -0.108 C  
BRANCH   5   6
HETATM    6  C   UNL     1      -9.205   7.254  66.441  1.00  0.00    -0.201 C  
BRANCH   6   7
HETATM    7  C   UNL     1     -10.097   8.206  67.260  1.00  0.00    -0.241 C  
BRANCH   7   8
HETATM    8  C   UNL     1     -10.398   9.590  66.735  1.00  0.00    -0.298 A  
HETATM    9  C   UNL     1     -10.026   9.912  65.419  1.00  0.00    -0.349 A  
HETATM   10  C   UNL     1     -11.087  10.558  67.479  1.00  0.00    -0.358 A  
HETATM   11  F   UNL     1     -12.291  14.170  65.774  1.00  0.00    -0.395 F  
HETATM   12  F   UNL     1     -10.494  14.152  64.552  1.00  0.00    -0.427 F  
HETATM   13  C   UNL     1     -11.447  11.783  66.905  1.00  0.00    -0.364 A  
HETATM   14  F   UNL     1     -12.310  13.192  63.834  1.00  0.00    -0.445 F  
HETATM   15  C   UNL     1     -11.113  12.086  65.581  1.00  0.00    -0.361 A  
HETATM   16  C   UNL     1     -11.547  13.384  64.946  1.00  0.00    -0.330 C  
HETATM   17  C   UNL     1     -10.381  11.141  64.847  1.00  0.00    -0.375 A  
ENDBRANCH   7   8
BRANCH   7  18
HETATM   18  N   UNL     1     -10.571   7.874  68.432  1.00  0.00    -0.367 NA 
HETATM   19  H   UNL     1     -10.534   8.470  69.259  1.00  0.00     0.000 HD 
BRANCH  18  20
HETATM   20  O   UNL     1     -11.135   6.593  68.404  1.00  0.00    -0.253 OA 
BRANCH  20  21
HETATM   21  C   UNL     1     -10.620   5.798  69.471  1.00  0.00    -0.319 C  
BRANCH  21  22
HETATM   22  C   UNL     1     -10.741   6.644  70.744  1.00  0.00    -0.238 C  
HETATM   23  H2  UNL     1     -12.755   6.356  71.024  1.00  0.00     0.000 HD 
HETATM   24  H1  UNL     1     -12.174   7.693  71.852  1.00  0.00     0.000 HD 
HETATM   25  N   UNL     1     -12.093   7.131  71.005  1.00  0.00    -0.347 NA 
ENDBRANCH  21  22
ENDBRANCH  20  21
ENDBRANCH  18  20
ENDBRANCH   7  18
ENDBRANCH   6   7
ENDBRANCH   5   6
ENDBRANCH   4   5
ENDBRANCH   3   4
ENDBRANCH   2   3
TORSDOF 10
ENDMDL
MODEL      145
REMARK 921   NORMALIZED FREE ENERGY PREDICTED BY IDOCK:   -3.83 KCAL/MOL
REMARK 922        TOTAL FREE ENERGY PREDICTED BY IDOCK:   -7.17 KCAL/MOL
REMARK 923 INTER-LIGAND FREE ENERGY PREDICTED BY IDOCK:   -6.58 KCAL/MOL
REMARK 924 INTRA-LIGAND FREE ENERGY PREDICTED BY IDOCK:   -0.59 KCAL/MOL
REMARK 927      BINDING AFFINITY PREDICTED BY RF-SCORE:    0.00 PKD
ROOT
HETATM    1  C   UNL     1      -6.880  19.075  68.481  1.00  0.00    -0.268 C  
HETATM    2  O   UNL     1      -6.843  17.682  68.183  1.00  0.00    -0.196 OA 
ENDROOT
BRANCH   2   3
HETATM    3  C   UNL     1      -8.014  17.033  68.669  1.00  0.00    -0.258 C  
BRANCH   3   4
HETATM    4  C   UNL     1      -8.020  15.573  68.228  1.00  0.00    -0.132 C  
BRANCH   4   5
HETATM    5  C   UNL     1      -8.487  15.474  66.776  1.00  0.00    -0.314 C  
BRANCH   5   6
HETATM    6  C   UNL     1     -10.010  15.406  66.652  1.00  0.00    -0.271 C  
BRANCH   6   7
HETATM    7  C   UNL     1     -10.595  14.197  67.407  1.00  0.00    -0.279 C  
BRANCH   7   8
HETATM    8  C   UNL     1     -11.335  14.411  68.706  1.00  0.00    -0.299 A  
HETATM    9  C   UNL     1     -11.701  13.290  69.471  1.00  0.00    -0.384 A  
HETATM   10  C   UNL     1     -11.626  15.681  69.221  1.00  0.00    -0.375 A  
HETATM   11  F   UNL     1     -13.238  16.171  73.038  1.00  0.00    -0.513 F  
HETATM   12  F   UNL     1     -14.349  14.322  72.768  1.00  0.00    -0.426 F  
HETATM   13  C   UNL     1     -12.207  15.828  70.487  1.00  0.00    -0.399 A  
HETATM   14  F   UNL     1     -12.342  14.275  73.607  1.00  0.00    -0.396 F  
HETATM   15  C   UNL     1     -12.531  14.712  71.266  1.00  0.00    -0.408 A  
HETATM   16  C   UNL     1     -13.108  14.871  72.651  1.00  0.00    -0.427 C  
HETATM   17  C   UNL     1     -12.288  13.437  70.734  1.00  0.00    -0.433 A  
ENDBRANCH   7   8
BRANCH   7  18
HETATM   18  N   UNL     1     -10.432  12.972  66.983  1.00  0.00    -0.246 NA 
HETATM   19  H   UNL     1     -11.171  12.402  66.569  1.00  0.00     0.000 HD 
BRANCH  18  20
HETATM   20  O   UNL     1      -9.113  12.543  67.171  1.00  0.00    -0.190 OA 
BRANCH  20  21
HETATM   21  C   UNL     1      -9.016  11.133  66.979  1.00  0.00    -0.154 C  
BRANCH  21  22
HETATM   22  C   UNL     1      -7.722  10.887  66.193  1.00  0.00    -0.133 C  
HETATM   23  H2  UNL     1      -7.338   9.018  66.955  1.00  0.00     0.000 HD 
HETATM   24  H1  UNL     1      -5.980   9.730  66.279  1.00  0.00     0.000 HD 
HETATM   25  N   UNL     1      -6.840   9.894  66.802  1.00  0.00    -0.082 NA 
ENDBRANCH  21  22
ENDBRANCH  20  21
ENDBRANCH  18  20
ENDBRANCH   7  18
ENDBRANCH   6   7
ENDBRANCH   5   6
ENDBRANCH   4   5
ENDBRANCH   3   4
ENDBRANCH   2   3
TORSDOF 10
ENDMDL
MODEL      146
REMARK 921   NORMALIZED FREE ENERGY PREDICTED BY IDOCK:   -3.82 KCAL/MOL
REMARK 922        TOTAL FREE ENERGY PREDICTED BY IDOCK:   -7.16 KCAL/MOL
REMARK 923 INTER-LIGAND FREE ENERGY PREDICTED BY IDOCK:   -6.10 KCAL/MOL
REMARK 924 INTRA-LIGAND FREE ENERGY PREDICTED BY IDOCK:   -1.06 KCAL/MOL
REMARK 927      BINDING AFFINITY PREDICTED BY RF-SCORE:    0.00 PKD
ROOT
HETATM    1  C   UNL     1      -6.817  11.178  66.659  1.00  0.00    -0.137 C  
HETATM    2  O   UNL     1      -8.129  11.159  66.105  1.00  0.00    -0.165 OA 
ENDROOT
BRANCH   2   3
HETATM    3  C   UNL     1      -9.103  11.424  67.111  1.00  0.00    -0.164 C  
BRANCH   3   4
HETATM    4  C   UNL     1      -9.853  12.711  66.782  1.00  0.00    -0.236 C  
BRANCH   4   5
HETATM    5  C   UNL     1     -10.352  13.362  68.072  1.00  0.00    -0.242 C  
BRANCH   5   6
HETATM    6  C   UNL     1     -11.752  12.888  68.467  1.00  0.00    -0.374 C  
BRANCH   6   7
HETATM    7  C   UNL     1     -11.850  12.571  69.971  1.00  0.00    -0.289 C  
BRANCH   7   8
HETATM    8  C   UNL     1     -11.839  11.134  70.437  1.00  0.00    -0.462 A  
HETATM    9  C   UNL     1     -11.410  10.135  69.547  1.00  0.00    -0.260 A  
HETATM   10  C   UNL     1     -12.181  10.751  71.741  1.00  0.00    -0.012 A  
HETATM   11  F   UNL     1     -11.657   6.831  73.069  1.00  0.00    -0.212 F  
HETATM   12  F   UNL     1     -12.148   6.126  71.072  1.00  0.00    -0.332 F  
HETATM   13  C   UNL     1     -12.040   9.422  72.159  1.00  0.00    -0.293 A  
HETATM   14  F   UNL     1     -10.086   6.590  71.588  1.00  0.00    -0.187 F  
HETATM   15  C   UNL     1     -11.572   8.436  71.284  1.00  0.00    -0.326 A  
HETATM   16  C   UNL     1     -11.370   7.015  71.750  1.00  0.00    -0.258 C  
HETATM   17  C   UNL     1     -11.275   8.805  69.964  1.00  0.00    -0.113 A  
ENDBRANCH   7   8
BRANCH   7  18
HETATM   18  N   UNL     1     -11.992  13.511  70.868  1.00  0.00    -0.493 NA 
HETATM   19  H   UNL     1     -11.258  13.809  71.511  1.00  0.00     0.000 HD 
BRANCH  18  20
HETATM   20  O   UNL     1     -13.281  14.054  70.832  1.00  0.00    -0.286 OA 
BRANCH  20  21
HETATM   21  C   UNL     1     -13.231  15.468  71.019  1.00  0.00    -0.474 C  
BRANCH  21  22
HETATM   22  C   UNL     1     -11.764  15.822  71.286  1.00  0.00    -0.440 C  
HETATM   23  H2  UNL     1     -11.513  17.030  69.644  1.00  0.00     0.000 HD 
HETATM   24  H1  UNL     1     -10.057  16.489  70.274  1.00  0.00     0.000 HD 
HETATM   25  N   UNL     1     -11.033  16.253  70.097  1.00  0.00    -0.350 NA 
ENDBRANCH  21  22
ENDBRANCH  20  21
ENDBRANCH  18  20
ENDBRANCH   7  18
ENDBRANCH   6   7
ENDBRANCH   5   6
ENDBRANCH   4   5
ENDBRANCH   3   4
ENDBRANCH   2   3
TORSDOF 10
ENDMDL
MODEL      147
REMARK 921   NORMALIZED FREE ENERGY PREDICTED BY IDOCK:   -3.80 KCAL/MOL
REMARK 922        TOTAL FREE ENERGY PREDICTED BY IDOCK:   -7.13 KCAL/MOL
REMARK 923 INTER-LIGAND FREE ENERGY PREDICTED BY IDOCK:   -5.89 KCAL/MOL
REMARK 924 INTRA-LIGAND FREE ENERGY PREDICTED BY IDOCK:   -1.24 KCAL/MOL
REMARK 927      BINDING AFFINITY PREDICTED BY RF-SCORE:    0.00 PKD
ROOT
HETATM    1  C   UNL     1     -12.202  14.305  65.188  1.00  0.00    -0.421 C  
HETATM    2  O   UNL     1     -11.282  13.362  64.648  1.00  0.00    -0.330 OA 
ENDROOT
BRANCH   2   3
HETATM    3  C   UNL     1     -10.515  12.757  65.686  1.00  0.00    -0.278 C  
BRANCH   3   4
HETATM    4  C   UNL     1     -10.279  13.761  66.809  1.00  0.00    -0.268 C  
BRANCH   4   5
HETATM    5  C   UNL     1     -10.553  13.099  68.160  1.00  0.00    -0.257 C  
BRANCH   5   6
HETATM    6  C   UNL     1     -11.892  12.358  68.191  1.00  0.00    -0.372 C  
BRANCH   6   7
HETATM    7  C   UNL     1     -11.773  10.983  68.874  1.00  0.00    -0.330 C  
BRANCH   7   8
HETATM    8  C   UNL     1     -10.681  10.028  68.454  1.00  0.00    -0.271 A  
HETATM    9  C   UNL     1      -9.677   9.696  69.378  1.00  0.00    -0.203 A  
HETATM   10  C   UNL     1     -10.652   9.404  67.198  1.00  0.00    -0.294 A  
HETATM   11  F   UNL     1      -7.873   6.422  66.309  1.00  0.00    -0.093 F  
HETATM   12  F   UNL     1      -6.422   7.452  67.558  1.00  0.00    -0.050 F  
HETATM   13  C   UNL     1      -9.686   8.436  66.900  1.00  0.00    -0.292 A  
HETATM   14  F   UNL     1      -7.753   5.969  68.431  1.00  0.00    -0.091 F  
HETATM   15  C   UNL     1      -8.712   8.075  67.837  1.00  0.00    -0.128 A  
HETATM   16  C   UNL     1      -7.704   6.994  67.535  1.00  0.00    -0.111 C  
HETATM   17  C   UNL     1      -8.706   8.731  69.077  1.00  0.00    -0.133 A  
ENDBRANCH   7   8
BRANCH   7  18
HETATM   18  N   UNL     1     -12.623  10.587  69.785  1.00  0.00    -0.546 NA 
HETATM   19  H   UNL     1     -13.331   9.868  69.638  1.00  0.00     0.000 HD 
BRANCH  18  20
HETATM   20  O   UNL     1     -12.435  11.280  70.986  1.00  0.00    -0.382 OA 
BRANCH  20  21
HETATM   21  C   UNL     1     -13.299  10.764  71.998  1.00  0.00    -0.298 C  
BRANCH  21  22
HETATM   22  C   UNL     1     -13.506   9.278  71.681  1.00  0.00    -0.398 C  
HETATM   23  H2  UNL     1     -12.057   8.565  72.950  1.00  0.00     0.000 HD 
HETATM   24  H1  UNL     1     -12.484   7.454  71.770  1.00  0.00     0.000 HD 
HETATM   25  N   UNL     1     -12.347   8.442  71.980  1.00  0.00    -0.339 NA 
ENDBRANCH  21  22
ENDBRANCH  20  21
ENDBRANCH  18  20
ENDBRANCH   7  18
ENDBRANCH   6   7
ENDBRANCH   5   6
ENDBRANCH   4   5
ENDBRANCH   3   4
ENDBRANCH   2   3
TORSDOF 10
ENDMDL
MODEL      148
REMARK 921   NORMALIZED FREE ENERGY PREDICTED BY IDOCK:   -3.79 KCAL/MOL
REMARK 922        TOTAL FREE ENERGY PREDICTED BY IDOCK:   -7.11 KCAL/MOL
REMARK 923 INTER-LIGAND FREE ENERGY PREDICTED BY IDOCK:   -6.18 KCAL/MOL
REMARK 924 INTRA-LIGAND FREE ENERGY PREDICTED BY IDOCK:   -0.93 KCAL/MOL
REMARK 927      BINDING AFFINITY PREDICTED BY RF-SCORE:    0.00 PKD
ROOT
HETATM    1  C   UNL     1      -8.075   5.370  67.257  1.00  0.00    -0.101 C  
HETATM    2  O   UNL     1      -7.791   6.653  66.707  1.00  0.00    -0.104 OA 
ENDROOT
BRANCH   2   3
HETATM    3  C   UNL     1      -8.972   7.243  66.172  1.00  0.00    -0.149 C  
BRANCH   3   4
HETATM    4  C   UNL     1      -8.753   8.737  65.953  1.00  0.00    -0.198 C  
BRANCH   4   5
HETATM    5  C   UNL     1      -9.230   9.514  67.180  1.00  0.00    -0.158 C  
BRANCH   5   6
HETATM    6  C   UNL     1     -10.740   9.400  67.398  1.00  0.00    -0.280 C  
BRANCH   6   7
HETATM    7  C   UNL     1     -11.141   9.754  68.843  1.00  0.00    -0.099 C  
BRANCH   7   8
HETATM    8  C   UNL     1     -11.567  11.163  69.180  1.00  0.00    -0.393 A  
HETATM    9  C   UNL     1     -11.958  11.457  70.497  1.00  0.00    -0.451 A  
HETATM   10  C   UNL     1     -11.536  12.214  68.253  1.00  0.00    -0.382 A  
HETATM   11  F   UNL     1     -12.270  16.157  69.402  1.00  0.00    -0.289 F  
HETATM   12  F   UNL     1     -13.704  15.427  70.863  1.00  0.00    -0.484 F  
HETATM   13  C   UNL     1     -11.827  13.526  68.645  1.00  0.00    -0.404 A  
HETATM   14  F   UNL     1     -11.610  15.645  71.407  1.00  0.00    -0.322 F  
HETATM   15  C   UNL     1     -12.175  13.824  69.967  1.00  0.00    -0.407 A  
HETATM   16  C   UNL     1     -12.436  15.246  70.401  1.00  0.00    -0.381 C  
HETATM   17  C   UNL     1     -12.256  12.769  70.887  1.00  0.00    -0.284 A  
ENDBRANCH   7   8
BRANCH   7  18
HETATM   18  N   UNL     1     -11.079   8.878  69.812  1.00  0.00    -0.408 NA 
HETATM   19  H   UNL     1     -11.194   9.104  70.800  1.00  0.00     0.000 HD 
BRANCH  18  20
HETATM   20  O   UNL     1     -10.836   7.592  69.316  1.00  0.00    -0.198 OA 
BRANCH  20  21
HETATM   21  C   UNL     1      -9.805   6.955  70.069  1.00  0.00    -0.173 C  
BRANCH  21  22
HETATM   22  C   UNL     1     -10.487   5.873  70.915  1.00  0.00    -0.244 C  
HETATM   23  H2  UNL     1     -12.405   6.569  70.682  1.00  0.00     0.000 HD 
HETATM   24  H1  UNL     1     -12.246   5.546  72.001  1.00  0.00     0.000 HD 
HETATM   25  N   UNL     1     -11.793   6.266  71.439  1.00  0.00    -0.271 NA 
ENDBRANCH  21  22
ENDBRANCH  20  21
ENDBRANCH  18  20
ENDBRANCH   7  18
ENDBRANCH   6   7
ENDBRANCH   5   6
ENDBRANCH   4   5
ENDBRANCH   3   4
ENDBRANCH   2   3
TORSDOF 10
ENDMDL
MODEL      149
REMARK 921   NORMALIZED FREE ENERGY PREDICTED BY IDOCK:   -3.78 KCAL/MOL
REMARK 922        TOTAL FREE ENERGY PREDICTED BY IDOCK:   -7.10 KCAL/MOL
REMARK 923 INTER-LIGAND FREE ENERGY PREDICTED BY IDOCK:   -6.42 KCAL/MOL
REMARK 924 INTRA-LIGAND FREE ENERGY PREDICTED BY IDOCK:   -0.68 KCAL/MOL
REMARK 927      BINDING AFFINITY PREDICTED BY RF-SCORE:    0.00 PKD
ROOT
HETATM    1  C   UNL     1      -9.390   3.837  64.842  1.00  0.00    -0.156 C  
HETATM    2  O   UNL     1      -9.038   5.208  64.996  1.00  0.00    -0.147 OA 
ENDROOT
BRANCH   2   3
HETATM    3  C   UNL     1      -9.248   5.634  66.339  1.00  0.00    -0.152 C  
BRANCH   3   4
HETATM    4  C   UNL     1      -9.217   7.157  66.412  1.00  0.00    -0.196 C  
BRANCH   4   5
HETATM    5  C   UNL     1     -10.445   7.663  67.169  1.00  0.00    -0.412 C  
BRANCH   5   6
HETATM    6  C   UNL     1     -10.218   9.035  67.807  1.00  0.00    -0.284 C  
BRANCH   6   7
HETATM    7  C   UNL     1     -11.124   9.257  69.033  1.00  0.00     0.052 C  
BRANCH   7   8
HETATM    8  C   UNL     1     -11.589  10.652  69.379  1.00  0.00    -0.352 A  
HETATM    9  C   UNL     1     -11.994  10.924  70.697  1.00  0.00    -0.467 A  
HETATM   10  C   UNL     1     -11.582  11.711  68.462  1.00  0.00    -0.379 A  
HETATM   11  F   UNL     1     -12.424  15.623  69.640  1.00  0.00    -0.359 F  
HETATM   12  F   UNL     1     -13.846  14.844  71.088  1.00  0.00    -0.419 F  
HETATM   13  C   UNL     1     -11.909  13.012  68.863  1.00  0.00    -0.358 A  
HETATM   14  F   UNL     1     -11.760  15.112  71.645  1.00  0.00    -0.337 F  
HETATM   15  C   UNL     1     -12.271  13.290  70.186  1.00  0.00    -0.376 A  
HETATM   16  C   UNL     1     -12.571  14.700  70.631  1.00  0.00    -0.357 C  
HETATM   17  C   UNL     1     -12.327  12.225  71.097  1.00  0.00    -0.251 A  
ENDBRANCH   7   8
BRANCH   7  18
HETATM   18  N   UNL     1     -11.472   8.276  69.822  1.00  0.00    -0.431 NA 
HETATM   19  H   UNL     1     -12.427   7.934  69.930  1.00  0.00     0.000 HD 
BRANCH  18  20
HETATM   20  O   UNL     1     -10.364   7.756  70.500  1.00  0.00    -0.201 OA 
BRANCH  20  21
HETATM   21  C   UNL     1     -10.665   7.578  71.884  1.00  0.00    -0.217 C  
BRANCH  21  22
HETATM   22  C   UNL     1      -9.477   8.150  72.667  1.00  0.00    -0.276 C  
HETATM   23  H2  UNL     1      -9.172   9.787  71.465  1.00  0.00     0.000 HD 
HETATM   24  H1  UNL     1      -7.832   9.417  72.402  1.00  0.00     0.000 HD 
HETATM   25  N   UNL     1      -8.622   9.037  71.882  1.00  0.00    -0.344 NA 
ENDBRANCH  21  22
ENDBRANCH  20  21
ENDBRANCH  18  20
ENDBRANCH   7  18
ENDBRANCH   6   7
ENDBRANCH   5   6
ENDBRANCH   4   5
ENDBRANCH   3   4
ENDBRANCH   2   3
TORSDOF 10
ENDMDL
MODEL      150
REMARK 921   NORMALIZED FREE ENERGY PREDICTED BY IDOCK:   -3.78 KCAL/MOL
REMARK 922        TOTAL FREE ENERGY PREDICTED BY IDOCK:   -7.10 KCAL/MOL
REMARK 923 INTER-LIGAND FREE ENERGY PREDICTED BY IDOCK:   -6.02 KCAL/MOL
REMARK 924 INTRA-LIGAND FREE ENERGY PREDICTED BY IDOCK:   -1.08 KCAL/MOL
REMARK 927      BINDING AFFINITY PREDICTED BY RF-SCORE:    0.00 PKD
ROOT
HETATM    1  C   UNL     1     -12.758  10.169  71.681  1.00  0.00    -0.447 C  
HETATM    2  O   UNL     1     -12.591  11.508  71.227  1.00  0.00    -0.383 OA 
ENDROOT
BRANCH   2   3
HETATM    3  C   UNL     1     -13.421  12.397  71.970  1.00  0.00    -0.360 C  
BRANCH   3   4
HETATM    4  C   UNL     1     -12.806  13.793  71.982  1.00  0.00    -0.383 C  
BRANCH   4   5
HETATM    5  C   UNL     1     -12.635  14.295  70.548  1.00  0.00    -0.418 C  
BRANCH   5   6
HETATM    6  C   UNL     1     -11.315  15.041  70.340  1.00  0.00    -0.309 C  
BRANCH   6   7
HETATM    7  C   UNL     1     -11.021  15.285  68.847  1.00  0.00    -0.261 C  
BRANCH   7   8
HETATM    8  C   UNL     1     -10.246  14.258  68.057  1.00  0.00    -0.226 A  
HETATM    9  C   UNL     1      -9.151  13.620  68.664  1.00  0.00    -0.035 A  
HETATM   10  C   UNL     1     -10.602  13.862  66.760  1.00  0.00    -0.277 A  
HETATM   11  F   UNL     1      -8.695  10.680  64.851  1.00  0.00    -0.174 F  
HETATM   12  F   UNL     1      -6.843  11.241  65.842  1.00  0.00    -0.077 F  
HETATM   13  C   UNL     1      -9.924  12.820  66.116  1.00  0.00    -0.272 A  
HETATM   14  F   UNL     1      -8.218   9.857  66.804  1.00  0.00    -0.119 F  
HETATM   15  C   UNL     1      -8.861  12.157  66.738  1.00  0.00    -0.198 A  
HETATM   16  C   UNL     1      -8.165  10.999  66.065  1.00  0.00    -0.129 C  
HETATM   17  C   UNL     1      -8.469  12.582  68.016  1.00  0.00    -0.173 A  
ENDBRANCH   7   8
BRANCH   7  18
HETATM   18  N   UNL     1     -11.383  16.386  68.243  1.00  0.00    -0.313 NA 
HETATM   19  H   UNL     1     -12.035  16.425  67.459  1.00  0.00     0.000 HD 
BRANCH  18  20
HETATM   20  O   UNL     1     -10.758  17.502  68.810  1.00  0.00    -0.285 OA 
BRANCH  20  21
HETATM   21  C   UNL     1      -9.521  17.770  68.151  1.00  0.00    -0.282 C  
BRANCH  21  22
HETATM   22  C   UNL     1      -9.871  18.190  66.719  1.00  0.00    -0.337 C  
HETATM   23  H2  UNL     1     -10.391  16.320  66.047  1.00  0.00     0.000 HD 
HETATM   24  H1  UNL     1     -10.039  17.379  64.796  1.00  0.00     0.000 HD 
HETATM   25  N   UNL     1      -9.806  17.100  65.749  1.00  0.00    -0.558 NA 
ENDBRANCH  21  22
ENDBRANCH  20  21
ENDBRANCH  18  20
ENDBRANCH   7  18
ENDBRANCH   6   7
ENDBRANCH   5   6
ENDBRANCH   4   5
ENDBRANCH   3   4
ENDBRANCH   2   3
TORSDOF 10
ENDMDL
MODEL      151
REMARK 921   NORMALIZED FREE ENERGY PREDICTED BY IDOCK:   -3.76 KCAL/MOL
REMARK 922        TOTAL FREE ENERGY PREDICTED BY IDOCK:   -7.06 KCAL/MOL
REMARK 923 INTER-LIGAND FREE ENERGY PREDICTED BY IDOCK:   -5.43 KCAL/MOL
REMARK 924 INTRA-LIGAND FREE ENERGY PREDICTED BY IDOCK:   -1.62 KCAL/MOL
REMARK 927      BINDING AFFINITY PREDICTED BY RF-SCORE:    0.00 PKD
ROOT
HETATM    1  C   UNL     1     -11.788  12.377  69.723  1.00  0.00    -0.317 C  
HETATM    2  O   UNL     1     -12.234  11.610  68.609  1.00  0.00    -0.455 OA 
ENDROOT
BRANCH   2   3
HETATM    3  C   UNL     1     -11.569  10.350  68.567  1.00  0.00    -0.078 C  
BRANCH   3   4
HETATM    4  C   UNL     1     -10.323  10.392  69.446  1.00  0.00    -0.259 C  
BRANCH   4   5
HETATM    5  C   UNL     1      -9.084  10.097  68.600  1.00  0.00    -0.143 C  
BRANCH   5   6
HETATM    6  C   UNL     1      -9.354  10.222  67.099  1.00  0.00    -0.175 C  
BRANCH   6   7
HETATM    7  C   UNL     1      -8.651  11.449  66.488  1.00  0.00    -0.175 C  
BRANCH   7   8
HETATM    8  C   UNL     1      -9.095  12.839  66.877  1.00  0.00    -0.221 A  
HETATM    9  C   UNL     1     -10.315  13.326  66.380  1.00  0.00    -0.286 A  
HETATM   10  C   UNL     1      -8.375  13.652  67.763  1.00  0.00    -0.181 A  
HETATM   11  F   UNL     1      -9.921  17.271  69.149  1.00  0.00    -0.273 F  
HETATM   12  F   UNL     1     -10.880  17.559  67.220  1.00  0.00    -0.334 F  
HETATM   13  C   UNL     1      -8.888  14.885  68.186  1.00  0.00    -0.174 A  
HETATM   14  F   UNL     1     -11.920  16.493  68.805  1.00  0.00    -0.236 F  
HETATM   15  C   UNL     1     -10.123  15.349  67.723  1.00  0.00    -0.227 A  
HETATM   16  C   UNL     1     -10.701  16.652  68.219  1.00  0.00    -0.351 C  
HETATM   17  C   UNL     1     -10.825  14.562  66.798  1.00  0.00    -0.305 A  
ENDBRANCH   7   8
BRANCH   7  18
HETATM   18  N   UNL     1      -7.702  11.330  65.597  1.00  0.00    -0.354 NA 
HETATM   19  H   UNL     1      -7.002  12.046  65.402  1.00  0.00     0.000 HD 
BRANCH  18  20
HETATM   20  O   UNL     1      -7.773  10.094  64.945  1.00  0.00    -0.139 OA 
BRANCH  20  21
HETATM   21  C   UNL     1      -7.763  10.275  63.530  1.00  0.00    -0.115 C  
BRANCH  21  22
HETATM   22  C   UNL     1      -9.219  10.166  63.065  1.00  0.00    -0.293 C  
HETATM   23  H2  UNL     1      -9.440  12.136  62.525  1.00  0.00     0.000 HD 
HETATM   24  H1  UNL     1     -10.909  11.365  62.763  1.00  0.00     0.000 HD 
HETATM   25  N   UNL     1      -9.940  11.437  63.073  1.00  0.00    -0.343 NA 
ENDBRANCH  21  22
ENDBRANCH  20  21
ENDBRANCH  18  20
ENDBRANCH   7  18
ENDBRANCH   6   7
ENDBRANCH   5   6
ENDBRANCH   4   5
ENDBRANCH   3   4
ENDBRANCH   2   3
TORSDOF 10
ENDMDL
MODEL      152
REMARK 921   NORMALIZED FREE ENERGY PREDICTED BY IDOCK:   -3.75 KCAL/MOL
REMARK 922        TOTAL FREE ENERGY PREDICTED BY IDOCK:   -7.06 KCAL/MOL
REMARK 923 INTER-LIGAND FREE ENERGY PREDICTED BY IDOCK:   -5.99 KCAL/MOL
REMARK 924 INTRA-LIGAND FREE ENERGY PREDICTED BY IDOCK:   -1.07 KCAL/MOL
REMARK 927      BINDING AFFINITY PREDICTED BY RF-SCORE:    0.00 PKD
ROOT
HETATM    1  C   UNL     1     -11.981  12.817  69.587  1.00  0.00    -0.288 C  
HETATM    2  O   UNL     1     -10.993  11.807  69.407  1.00  0.00    -0.211 OA 
ENDROOT
BRANCH   2   3
HETATM    3  C   UNL     1     -11.520  10.716  68.658  1.00  0.00    -0.263 C  
BRANCH   3   4
HETATM    4  C   UNL     1     -11.220  10.911  67.175  1.00  0.00    -0.258 C  
BRANCH   4   5
HETATM    5  C   UNL     1      -9.820  11.502  67.006  1.00  0.00    -0.212 C  
BRANCH   5   6
HETATM    6  C   UNL     1      -9.839  12.868  66.315  1.00  0.00    -0.273 C  
BRANCH   6   7
HETATM    7  C   UNL     1      -8.862  13.860  66.975  1.00  0.00    -0.218 C  
BRANCH   7   8
HETATM    8  C   UNL     1      -9.217  15.326  67.047  1.00  0.00    -0.235 A  
HETATM    9  C   UNL     1      -8.466  16.244  66.294  1.00  0.00    -0.369 A  
HETATM   10  C   UNL     1     -10.303  15.815  67.786  1.00  0.00    -0.275 A  
HETATM   11  F   UNL     1     -11.490  19.806  67.538  1.00  0.00    -0.371 F  
HETATM   12  F   UNL     1      -9.406  20.374  67.294  1.00  0.00    -0.445 F  
HETATM   13  C   UNL     1     -10.663  17.166  67.726  1.00  0.00    -0.329 A  
HETATM   14  F   UNL     1     -10.615  19.893  65.551  1.00  0.00    -0.568 F  
HETATM   15  C   UNL     1      -9.940  18.072  66.942  1.00  0.00    -0.340 A  
HETATM   16  C   UNL     1     -10.359  19.517  66.835  1.00  0.00    -0.454 C  
HETATM   17  C   UNL     1      -8.822  17.598  66.239  1.00  0.00    -0.209 A  
ENDBRANCH   7   8
BRANCH   7  18
HETATM   18  N   UNL     1      -7.700  13.481  67.438  1.00  0.00    -0.265 NA 
HETATM   19  H   UNL     1      -6.993  12.990  66.891  1.00  0.00     0.000 HD 
BRANCH  18  20
HETATM   20  O   UNL     1      -7.553  13.838  68.784  1.00  0.00    -0.132 OA 
BRANCH  20  21
HETATM   21  C   UNL     1      -6.200  14.200  69.057  1.00  0.00    -0.094 C  
BRANCH  21  22
HETATM   22  C   UNL     1      -5.429  12.890  69.257  1.00  0.00    -0.073 C  
HETATM   23  H2  UNL     1      -6.998  11.630  68.843  1.00  0.00     0.000 HD 
HETATM   24  H1  UNL     1      -5.768  10.870  69.692  1.00  0.00     0.000 HD 
HETATM   25  N   UNL     1      -6.280  11.742  69.559  1.00  0.00    -0.103 NA 
ENDBRANCH  21  22
ENDBRANCH  20  21
ENDBRANCH  18  20
ENDBRANCH   7  18
ENDBRANCH   6   7
ENDBRANCH   5   6
ENDBRANCH   4   5
ENDBRANCH   3   4
ENDBRANCH   2   3
TORSDOF 10
ENDMDL
MODEL      153
REMARK 921   NORMALIZED FREE ENERGY PREDICTED BY IDOCK:   -3.73 KCAL/MOL
REMARK 922        TOTAL FREE ENERGY PREDICTED BY IDOCK:   -7.01 KCAL/MOL
REMARK 923 INTER-LIGAND FREE ENERGY PREDICTED BY IDOCK:   -5.97 KCAL/MOL
REMARK 924 INTRA-LIGAND FREE ENERGY PREDICTED BY IDOCK:   -1.04 KCAL/MOL
REMARK 927      BINDING AFFINITY PREDICTED BY RF-SCORE:    0.00 PKD
ROOT
HETATM    1  C   UNL     1      -8.085   6.193  70.707  1.00  0.00    -0.124 C  
HETATM    2  O   UNL     1      -8.598   6.923  71.816  1.00  0.00    -0.120 OA 
ENDROOT
BRANCH   2   3
HETATM    3  C   UNL     1      -9.812   6.341  72.282  1.00  0.00    -0.161 C  
BRANCH   3   4
HETATM    4  C   UNL     1     -10.775   7.437  72.729  1.00  0.00    -0.362 C  
BRANCH   4   5
HETATM    5  C   UNL     1     -10.507   8.715  71.933  1.00  0.00    -0.410 C  
BRANCH   5   6
HETATM    6  C   UNL     1     -11.441   8.866  70.731  1.00  0.00    -0.319 C  
BRANCH   6   7
HETATM    7  C   UNL     1     -10.742   9.549  69.541  1.00  0.00    -0.228 C  
BRANCH   7   8
HETATM    8  C   UNL     1     -10.854  11.045  69.362  1.00  0.00    -0.278 A  
HETATM    9  C   UNL     1      -9.991  11.687  68.460  1.00  0.00    -0.198 A  
HETATM   10  C   UNL     1     -11.823  11.822  70.012  1.00  0.00    -0.422 A  
HETATM   11  F   UNL     1     -12.363  15.854  69.087  1.00  0.00    -0.348 F  
HETATM   12  F   UNL     1     -10.224  16.025  68.740  1.00  0.00    -0.200 F  
HETATM   13  C   UNL     1     -11.964  13.185  69.722  1.00  0.00    -0.382 A  
HETATM   14  F   UNL     1     -11.551  15.461  67.111  1.00  0.00    -0.314 F  
HETATM   15  C   UNL     1     -11.130  13.814  68.791  1.00  0.00    -0.295 A  
HETATM   16  C   UNL     1     -11.316  15.270  68.439  1.00  0.00    -0.329 C  
HETATM   17  C   UNL     1     -10.127  13.052  68.174  1.00  0.00    -0.237 A  
ENDBRANCH   7   8
BRANCH   7  18
HETATM   18  N   UNL     1     -10.084   8.867  68.640  1.00  0.00    -0.183 NA 
HETATM   19  H   UNL     1      -9.116   8.562  68.742  1.00  0.00     0.000 HD 
BRANCH  18  20
HETATM   20  O   UNL     1     -10.881   8.611  67.518  1.00  0.00    -0.202 OA 
BRANCH  20  21
HETATM   21  C   UNL     1     -10.256   7.647  66.673  1.00  0.00    -0.202 C  
BRANCH  21  22
HETATM   22  C   UNL     1     -10.907   6.296  66.993  1.00  0.00    -0.383 C  
HETATM   23  H2  UNL     1     -11.611   6.812  68.852  1.00  0.00     0.000 HD 
HETATM   24  H1  UNL     1     -11.521   5.152  68.634  1.00  0.00     0.000 HD 
HETATM   25  N   UNL     1     -11.088   6.050  68.421  1.00  0.00    -0.274 NA 
ENDBRANCH  21  22
ENDBRANCH  20  21
ENDBRANCH  18  20
ENDBRANCH   7  18
ENDBRANCH   6   7
ENDBRANCH   5   6
ENDBRANCH   4   5
ENDBRANCH   3   4
ENDBRANCH   2   3
TORSDOF 10
ENDMDL
MODEL      154
REMARK 921   NORMALIZED FREE ENERGY PREDICTED BY IDOCK:   -3.72 KCAL/MOL
REMARK 922        TOTAL FREE ENERGY PREDICTED BY IDOCK:   -7.00 KCAL/MOL
REMARK 923 INTER-LIGAND FREE ENERGY PREDICTED BY IDOCK:   -6.23 KCAL/MOL
REMARK 924 INTRA-LIGAND FREE ENERGY PREDICTED BY IDOCK:   -0.78 KCAL/MOL
REMARK 927      BINDING AFFINITY PREDICTED BY RF-SCORE:    0.00 PKD
ROOT
HETATM    1  C   UNL     1     -13.432  13.051  72.235  1.00  0.00    -0.547 C  
HETATM    2  O   UNL     1     -12.547  13.756  71.370  1.00  0.00    -0.348 OA 
ENDROOT
BRANCH   2   3
HETATM    3  C   UNL     1     -12.919  15.128  71.280  1.00  0.00    -0.407 C  
BRANCH   3   4
HETATM    4  C   UNL     1     -12.172  15.794  70.130  1.00  0.00    -0.340 C  
BRANCH   4   5
HETATM    5  C   UNL     1     -11.110  14.841  69.583  1.00  0.00    -0.299 C  
BRANCH   5   6
HETATM    6  C   UNL     1     -10.940  14.956  68.067  1.00  0.00    -0.282 C  
BRANCH   6   7
HETATM    7  C   UNL     1     -11.075  13.590  67.367  1.00  0.00    -0.281 C  
BRANCH   7   8
HETATM    8  C   UNL     1     -10.846  12.320  68.150  1.00  0.00    -0.258 A  
HETATM    9  C   UNL     1     -11.959  11.597  68.612  1.00  0.00    -0.311 A  
HETATM   10  C   UNL     1      -9.572  11.789  68.391  1.00  0.00    -0.191 A  
HETATM   11  F   UNL     1      -9.068   8.035  70.140  1.00  0.00    -0.146 F  
HETATM   12  F   UNL     1     -10.844   8.395  71.341  1.00  0.00    -0.249 F  
HETATM   13  C   UNL     1      -9.418  10.546  69.019  1.00  0.00    -0.211 A  
HETATM   14  F   UNL     1     -11.023   7.471  69.379  1.00  0.00    -0.236 F  
HETATM   15  C   UNL     1     -10.529   9.808  69.439  1.00  0.00    -0.241 A  
HETATM   16  C   UNL     1     -10.365   8.445  70.067  1.00  0.00    -0.211 C  
HETATM   17  C   UNL     1     -11.805  10.357  69.245  1.00  0.00    -0.165 A  
ENDBRANCH   7   8
BRANCH   7  18
HETATM   18  N   UNL     1     -11.338  13.490  66.090  1.00  0.00    -0.303 NA 
HETATM   19  H   UNL     1     -12.034  14.052  65.600  1.00  0.00     0.000 HD 
BRANCH  18  20
HETATM   20  O   UNL     1     -10.541  12.512  65.485  1.00  0.00    -0.263 OA 
BRANCH  20  21
HETATM   21  C   UNL     1     -11.186  11.993  64.323  1.00  0.00    -0.357 C  
BRANCH  21  22
HETATM   22  C   UNL     1     -10.118  11.226  63.536  1.00  0.00    -0.396 C  
HETATM   23  H2  UNL     1      -9.248  10.309  65.155  1.00  0.00     0.000 HD 
HETATM   24  H1  UNL     1      -8.247  10.328  63.811  1.00  0.00     0.000 HD 
HETATM   25  N   UNL     1      -8.958  10.839  64.334  1.00  0.00    -0.185 NA 
ENDBRANCH  21  22
ENDBRANCH  20  21
ENDBRANCH  18  20
ENDBRANCH   7  18
ENDBRANCH   6   7
ENDBRANCH   5   6
ENDBRANCH   4   5
ENDBRANCH   3   4
ENDBRANCH   2   3
TORSDOF 10
ENDMDL
MODEL      155
REMARK 921   NORMALIZED FREE ENERGY PREDICTED BY IDOCK:   -3.72 KCAL/MOL
REMARK 922        TOTAL FREE ENERGY PREDICTED BY IDOCK:   -7.00 KCAL/MOL
REMARK 923 INTER-LIGAND FREE ENERGY PREDICTED BY IDOCK:   -5.64 KCAL/MOL
REMARK 924 INTRA-LIGAND FREE ENERGY PREDICTED BY IDOCK:   -1.36 KCAL/MOL
REMARK 927      BINDING AFFINITY PREDICTED BY RF-SCORE:    0.00 PKD
ROOT
HETATM    1  C   UNL     1     -10.381   9.845  70.385  1.00  0.00    -0.260 C  
HETATM    2  O   UNL     1     -10.963   8.717  69.740  1.00  0.00    -0.223 OA 
ENDROOT
BRANCH   2   3
HETATM    3  C   UNL     1      -9.952   7.824  69.280  1.00  0.00    -0.182 C  
BRANCH   3   4
HETATM    4  C   UNL     1     -10.514   6.923  68.186  1.00  0.00    -0.243 C  
BRANCH   4   5
HETATM    5  C   UNL     1     -10.428   7.634  66.835  1.00  0.00    -0.388 C  
BRANCH   5   6
HETATM    6  C   UNL     1      -9.295   8.662  66.783  1.00  0.00    -0.229 C  
BRANCH   6   7
HETATM    7  C   UNL     1      -9.722   9.954  66.062  1.00  0.00    -0.247 C  
BRANCH   7   8
HETATM    8  C   UNL     1     -10.095  11.175  66.868  1.00  0.00    -0.250 A  
HETATM    9  C   UNL     1     -11.451  11.417  67.146  1.00  0.00    -0.268 A  
HETATM   10  C   UNL     1      -9.147  12.055  67.407  1.00  0.00    -0.178 A  
HETATM   11  F   UNL     1     -10.248  15.119  70.016  1.00  0.00    -0.260 F  
HETATM   12  F   UNL     1     -12.110  15.339  68.915  1.00  0.00    -0.336 F  
HETATM   13  C   UNL     1      -9.536  13.105  68.247  1.00  0.00    -0.218 A  
HETATM   14  F   UNL     1     -11.988  13.946  70.582  1.00  0.00    -0.358 F  
HETATM   15  C   UNL     1     -10.884  13.319  68.558  1.00  0.00    -0.286 A  
HETATM   16  C   UNL     1     -11.299  14.417  69.505  1.00  0.00    -0.276 C  
HETATM   17  C   UNL     1     -11.842  12.471  67.982  1.00  0.00    -0.382 A  
ENDBRANCH   7   8
BRANCH   7  18
HETATM   18  N   UNL     1      -9.821  10.019  64.760  1.00  0.00    -0.373 NA 
HETATM   19  H   UNL     1     -10.537   9.542  64.212  1.00  0.00     0.000 HD 
BRANCH  18  20
HETATM   20  O   UNL     1      -8.816  10.827  64.217  1.00  0.00    -0.175 OA 
BRANCH  20  21
HETATM   21  C   UNL     1      -8.628  10.527  62.834  1.00  0.00    -0.200 C  
BRANCH  21  22
HETATM   22  C   UNL     1      -8.740   9.004  62.698  1.00  0.00    -0.172 C  
HETATM   23  H2  UNL     1      -7.704   8.541  64.411  1.00  0.00     0.000 HD 
HETATM   24  H1  UNL     1      -7.785   7.255  63.338  1.00  0.00     0.000 HD 
HETATM   25  N   UNL     1      -7.711   8.268  63.428  1.00  0.00    -0.135 NA 
ENDBRANCH  21  22
ENDBRANCH  20  21
ENDBRANCH  18  20
ENDBRANCH   7  18
ENDBRANCH   6   7
ENDBRANCH   5   6
ENDBRANCH   4   5
ENDBRANCH   3   4
ENDBRANCH   2   3
TORSDOF 10
ENDMDL
MODEL      156
REMARK 921   NORMALIZED FREE ENERGY PREDICTED BY IDOCK:   -3.72 KCAL/MOL
REMARK 922        TOTAL FREE ENERGY PREDICTED BY IDOCK:   -6.99 KCAL/MOL
REMARK 923 INTER-LIGAND FREE ENERGY PREDICTED BY IDOCK:   -6.39 KCAL/MOL
REMARK 924 INTRA-LIGAND FREE ENERGY PREDICTED BY IDOCK:   -0.60 KCAL/MOL
REMARK 927      BINDING AFFINITY PREDICTED BY RF-SCORE:    0.00 PKD
ROOT
HETATM    1  C   UNL     1     -12.064  16.062  72.218  1.00  0.00    -0.527 C  
HETATM    2  O   UNL     1     -12.892  15.603  71.155  1.00  0.00    -0.462 OA 
ENDROOT
BRANCH   2   3
HETATM    3  C   UNL     1     -12.155  15.532  69.937  1.00  0.00    -0.355 C  
BRANCH   3   4
HETATM    4  C   UNL     1     -12.656  14.363  69.095  1.00  0.00     0.176 C  
BRANCH   4   5
HETATM    5  C   UNL     1     -11.483  13.720  68.355  1.00  0.00    -0.351 C  
BRANCH   5   6
HETATM    6  C   UNL     1     -11.900  12.486  67.552  1.00  0.00    -0.389 C  
BRANCH   6   7
HETATM    7  C   UNL     1     -10.884  11.337  67.694  1.00  0.00    -0.238 C  
BRANCH   7   8
HETATM    8  C   UNL     1     -11.046  10.325  68.803  1.00  0.00    -0.276 A  
HETATM    9  C   UNL     1     -10.559   9.021  68.608  1.00  0.00    -0.194 A  
HETATM   10  C   UNL     1     -11.608  10.637  70.048  1.00  0.00    -0.406 A  
HETATM   11  F   UNL     1     -11.571   7.909  73.204  1.00  0.00    -0.436 F  
HETATM   12  F   UNL     1     -11.802   6.296  71.766  1.00  0.00    -0.334 F  
HETATM   13  C   UNL     1     -11.627   9.696  71.085  1.00  0.00    -0.456 A  
HETATM   14  F   UNL     1      -9.815   6.984  72.321  1.00  0.00    -0.158 F  
HETATM   15  C   UNL     1     -11.103   8.412  70.903  1.00  0.00    -0.289 A  
HETATM   16  C   UNL     1     -11.075   7.415  72.036  1.00  0.00    -0.242 C  
HETATM   17  C   UNL     1     -10.584   8.077  69.643  1.00  0.00    -0.223 A  
ENDBRANCH   7   8
BRANCH   7  18
HETATM   18  N   UNL     1      -9.845  11.231  66.908  1.00  0.00    -0.191 NA 
HETATM   19  H   UNL     1      -8.881  11.394  67.201  1.00  0.00     0.000 HD 
BRANCH  18  20
HETATM   20  O   UNL     1     -10.227  10.865  65.612  1.00  0.00    -0.247 OA 
BRANCH  20  21
HETATM   21  C   UNL     1      -9.130  11.007  64.710  1.00  0.00    -0.137 C  
BRANCH  21  22
HETATM   22  C   UNL     1      -9.723  11.001  63.296  1.00  0.00    -0.364 C  
HETATM   23  H2  UNL     1      -9.363   9.017  62.902  1.00  0.00     0.000 HD 
HETATM   24  H1  UNL     1      -9.617   9.916  61.509  1.00  0.00     0.000 HD 
HETATM   25  N   UNL     1      -9.223   9.920  62.450  1.00  0.00    -0.292 NA 
ENDBRANCH  21  22
ENDBRANCH  20  21
ENDBRANCH  18  20
ENDBRANCH   7  18
ENDBRANCH   6   7
ENDBRANCH   5   6
ENDBRANCH   4   5
ENDBRANCH   3   4
ENDBRANCH   2   3
TORSDOF 10
ENDMDL
MODEL      157
REMARK 921   NORMALIZED FREE ENERGY PREDICTED BY IDOCK:   -3.71 KCAL/MOL
REMARK 922        TOTAL FREE ENERGY PREDICTED BY IDOCK:   -6.98 KCAL/MOL
REMARK 923 INTER-LIGAND FREE ENERGY PREDICTED BY IDOCK:   -6.04 KCAL/MOL
REMARK 924 INTRA-LIGAND FREE ENERGY PREDICTED BY IDOCK:   -0.94 KCAL/MOL
REMARK 927      BINDING AFFINITY PREDICTED BY RF-SCORE:    0.00 PKD
ROOT
HETATM    1  C   UNL     1      -8.225   3.994  68.777  1.00  0.00    -0.074 C  
HETATM    2  O   UNL     1      -8.149   4.389  67.411  1.00  0.00    -0.099 OA 
ENDROOT
BRANCH   2   3
HETATM    3  C   UNL     1      -8.421   5.781  67.274  1.00  0.00    -0.107 C  
BRANCH   3   4
HETATM    4  C   UNL     1      -9.744   5.982  66.542  1.00  0.00    -0.183 C  
BRANCH   4   5
HETATM    5  C   UNL     1     -10.711   6.768  67.428  1.00  0.00    -0.405 C  
BRANCH   5   6
HETATM    6  C   UNL     1      -9.990   7.733  68.372  1.00  0.00    -0.195 C  
BRANCH   6   7
HETATM    7  C   UNL     1     -10.922   8.853  68.871  1.00  0.00     0.080 C  
BRANCH   7   8
HETATM    8  C   UNL     1     -11.083  10.114  68.056  1.00  0.00    -0.302 A  
HETATM    9  C   UNL     1     -11.774  11.201  68.617  1.00  0.00    -0.389 A  
HETATM   10  C   UNL     1     -10.523  10.279  66.782  1.00  0.00    -0.279 A  
HETATM   11  F   UNL     1     -10.611  13.959  64.819  1.00  0.00    -0.343 F  
HETATM   12  F   UNL     1     -12.552  14.351  65.715  1.00  0.00    -0.426 F  
HETATM   13  C   UNL     1     -10.598  11.509  66.117  1.00  0.00    -0.314 A  
HETATM   14  F   UNL     1     -10.734  14.935  66.756  1.00  0.00    -0.287 F  
HETATM   15  C   UNL     1     -11.250  12.603  66.695  1.00  0.00    -0.346 A  
HETATM   16  C   UNL     1     -11.285  13.944  66.003  1.00  0.00    -0.300 C  
HETATM   17  C   UNL     1     -11.855  12.430  67.949  1.00  0.00    -0.370 A  
ENDBRANCH   7   8
BRANCH   7  18
HETATM   18  N   UNL     1     -11.552   8.771  70.013  1.00  0.00    -0.448 NA 
HETATM   19  H   UNL     1     -12.301   9.399  70.304  1.00  0.00     0.000 HD 
BRANCH  18  20
HETATM   20  O   UNL     1     -11.063   7.711  70.785  1.00  0.00    -0.255 OA 
BRANCH  20  21
HETATM   21  C   UNL     1     -12.121   6.818  71.131  1.00  0.00    -0.370 C  
BRANCH  21  22
HETATM   22  C   UNL     1     -13.317   7.691  71.529  1.00  0.00    -0.332 C  
HETATM   23  H2  UNL     1     -12.228   9.182  72.430  1.00  0.00     0.000 HD 
HETATM   24  H1  UNL     1     -13.837   9.184  72.901  1.00  0.00     0.000 HD 
HETATM   25  N   UNL     1     -13.042   8.603  72.636  1.00  0.00    -0.297 NA 
ENDBRANCH  21  22
ENDBRANCH  20  21
ENDBRANCH  18  20
ENDBRANCH   7  18
ENDBRANCH   6   7
ENDBRANCH   5   6
ENDBRANCH   4   5
ENDBRANCH   3   4
ENDBRANCH   2   3
TORSDOF 10
ENDMDL
MODEL      158
REMARK 921   NORMALIZED FREE ENERGY PREDICTED BY IDOCK:   -3.70 KCAL/MOL
REMARK 922        TOTAL FREE ENERGY PREDICTED BY IDOCK:   -6.97 KCAL/MOL
REMARK 923 INTER-LIGAND FREE ENERGY PREDICTED BY IDOCK:   -5.97 KCAL/MOL
REMARK 924 INTRA-LIGAND FREE ENERGY PREDICTED BY IDOCK:   -1.00 KCAL/MOL
REMARK 927      BINDING AFFINITY PREDICTED BY RF-SCORE:    0.00 PKD
ROOT
HETATM    1  C   UNL     1      -5.253  12.996  67.866  1.00  0.00    -0.109 C  
HETATM    2  O   UNL     1      -5.627  11.978  66.944  1.00  0.00    -0.205 OA 
ENDROOT
BRANCH   2   3
HETATM    3  C   UNL     1      -6.961  11.541  67.191  1.00  0.00    -0.138 C  
BRANCH   3   4
HETATM    4  C   UNL     1      -6.980  10.570  68.366  1.00  0.00    -0.066 C  
BRANCH   4   5
HETATM    5  C   UNL     1      -8.307  10.692  69.116  1.00  0.00    -0.140 C  
BRANCH   5   6
HETATM    6  C   UNL     1      -9.136   9.408  69.055  1.00  0.00    -0.142 C  
BRANCH   6   7
HETATM    7  C   UNL     1     -10.646   9.701  68.978  1.00  0.00    -0.218 C  
BRANCH   7   8
HETATM    8  C   UNL     1     -11.158  10.754  68.024  1.00  0.00    -0.359 A  
HETATM    9  C   UNL     1     -11.627  11.972  68.544  1.00  0.00    -0.363 A  
HETATM   10  C   UNL     1     -11.135  10.601  66.630  1.00  0.00    -0.053 A  
HETATM   11  F   UNL     1     -12.119  13.747  64.073  1.00  0.00    -0.432 F  
HETATM   12  F   UNL     1     -13.584  14.425  65.528  1.00  0.00    -0.351 F  
HETATM   13  C   UNL     1     -11.509  11.652  65.785  1.00  0.00    -0.175 A  
HETATM   14  F   UNL     1     -11.531  15.137  65.636  1.00  0.00    -0.344 F  
HETATM   15  C   UNL     1     -11.935  12.879  66.305  1.00  0.00    -0.472 A  
HETATM   16  C   UNL     1     -12.287  14.030  65.395  1.00  0.00    -0.478 C  
HETATM   17  C   UNL     1     -12.007  13.022  67.699  1.00  0.00    -0.353 A  
ENDBRANCH   7   8
BRANCH   7  18
HETATM   18  N   UNL     1     -11.509   9.097  69.752  1.00  0.00    -0.434 NA 
HETATM   19  H   UNL     1     -12.012   8.246  69.500  1.00  0.00     0.000 HD 
BRANCH  18  20
HETATM   20  O   UNL     1     -11.653   9.771  70.970  1.00  0.00    -0.314 OA 
BRANCH  20  21
HETATM   21  C   UNL     1     -11.178   8.963  72.045  1.00  0.00    -0.352 C  
BRANCH  21  22
HETATM   22  C   UNL     1     -11.566   7.518  71.712  1.00  0.00    -0.270 C  
HETATM   23  H2  UNL     1     -13.584   7.855  71.530  1.00  0.00     0.000 HD 
HETATM   24  H1  UNL     1     -13.221   6.238  71.778  1.00  0.00     0.000 HD 
HETATM   25  N   UNL     1     -12.962   7.199  72.000  1.00  0.00    -0.207 NA 
ENDBRANCH  21  22
ENDBRANCH  20  21
ENDBRANCH  18  20
ENDBRANCH   7  18
ENDBRANCH   6   7
ENDBRANCH   5   6
ENDBRANCH   4   5
ENDBRANCH   3   4
ENDBRANCH   2   3
TORSDOF 10
ENDMDL
MODEL      159
REMARK 921   NORMALIZED FREE ENERGY PREDICTED BY IDOCK:   -3.69 KCAL/MOL
REMARK 922        TOTAL FREE ENERGY PREDICTED BY IDOCK:   -6.96 KCAL/MOL
REMARK 923 INTER-LIGAND FREE ENERGY PREDICTED BY IDOCK:   -6.10 KCAL/MOL
REMARK 924 INTRA-LIGAND FREE ENERGY PREDICTED BY IDOCK:   -0.86 KCAL/MOL
REMARK 927      BINDING AFFINITY PREDICTED BY RF-SCORE:    0.00 PKD
ROOT
HETATM    1  C   UNL     1      -6.222  17.006  69.567  1.00  0.00    -0.237 C  
HETATM    2  O   UNL     1      -7.588  16.635  69.419  1.00  0.00    -0.201 OA 
ENDROOT
BRANCH   2   3
HETATM    3  C   UNL     1      -7.991  16.732  68.056  1.00  0.00    -0.178 C  
BRANCH   3   4
HETATM    4  C   UNL     1      -7.901  15.364  67.389  1.00  0.00    -0.215 C  
BRANCH   4   5
HETATM    5  C   UNL     1      -9.306  14.798  67.178  1.00  0.00    -0.233 C  
BRANCH   5   6
HETATM    6  C   UNL     1      -9.574  13.557  68.030  1.00  0.00    -0.221 C  
BRANCH   6   7
HETATM    7  C   UNL     1     -10.292  12.453  67.230  1.00  0.00    -0.215 C  
BRANCH   7   8
HETATM    8  C   UNL     1     -10.499  11.092  67.849  1.00  0.00    -0.223 A  
HETATM    9  C   UNL     1     -10.408   9.953  67.031  1.00  0.00    -0.303 A  
HETATM   10  C   UNL     1     -10.721  10.900  69.220  1.00  0.00    -0.271 A  
HETATM   11  F   UNL     1     -10.799   7.083  70.903  1.00  0.00    -0.239 F  
HETATM   12  F   UNL     1     -11.699   6.332  69.073  1.00  0.00    -0.432 F  
HETATM   13  C   UNL     1     -10.788   9.611  69.763  1.00  0.00    -0.274 A  
HETATM   14  F   UNL     1      -9.534   6.393  69.278  1.00  0.00    -0.136 F  
HETATM   15  C   UNL     1     -10.654   8.478  68.953  1.00  0.00    -0.166 A  
HETATM   16  C   UNL     1     -10.672   7.091  69.547  1.00  0.00    -0.241 C  
HETATM   17  C   UNL     1     -10.481   8.664  67.574  1.00  0.00    -0.335 A  
ENDBRANCH   7   8
BRANCH   7  18
HETATM   18  N   UNL     1     -10.693  12.640  66.000  1.00  0.00    -0.264 NA 
HETATM   19  H   UNL     1     -10.074  12.660  65.189  1.00  0.00     0.000 HD 
BRANCH  18  20
HETATM   20  O   UNL     1     -12.081  12.810  65.941  1.00  0.00    -0.432 OA 
BRANCH  20  21
HETATM   21  C   UNL     1     -12.567  12.488  64.639  1.00  0.00    -0.426 C  
BRANCH  21  22
HETATM   22  C   UNL     1     -11.380  12.637  63.680  1.00  0.00    -0.481 C  
HETATM   23  H2  UNL     1     -11.325  10.676  63.070  1.00  0.00     0.000 HD 
HETATM   24  H1  UNL     1      -9.887  11.485  62.772  1.00  0.00     0.000 HD 
HETATM   25  N   UNL     1     -10.676  11.386  63.410  1.00  0.00    -0.373 NA 
ENDBRANCH  21  22
ENDBRANCH  20  21
ENDBRANCH  18  20
ENDBRANCH   7  18
ENDBRANCH   6   7
ENDBRANCH   5   6
ENDBRANCH   4   5
ENDBRANCH   3   4
ENDBRANCH   2   3
TORSDOF 10
ENDMDL
MODEL      160
REMARK 921   NORMALIZED FREE ENERGY PREDICTED BY IDOCK:   -3.69 KCAL/MOL
REMARK 922        TOTAL FREE ENERGY PREDICTED BY IDOCK:   -6.96 KCAL/MOL
REMARK 923 INTER-LIGAND FREE ENERGY PREDICTED BY IDOCK:   -6.01 KCAL/MOL
REMARK 924 INTRA-LIGAND FREE ENERGY PREDICTED BY IDOCK:   -0.95 KCAL/MOL
REMARK 927      BINDING AFFINITY PREDICTED BY RF-SCORE:    0.00 PKD
ROOT
HETATM    1  C   UNL     1     -10.678  14.604  65.060  1.00  0.00    -0.430 C  
HETATM    2  O   UNL     1     -10.782  13.207  65.314  1.00  0.00    -0.289 OA 
ENDROOT
BRANCH   2   3
HETATM    3  C   UNL     1     -11.793  12.945  66.283  1.00  0.00    -0.416 C  
BRANCH   3   4
HETATM    4  C   UNL     1     -11.492  11.637  67.007  1.00  0.00    -0.336 C  
BRANCH   4   5
HETATM    5  C   UNL     1     -11.170  11.921  68.475  1.00  0.00    -0.308 C  
BRANCH   5   6
HETATM    6  C   UNL     1     -10.193  10.905  69.070  1.00  0.00    -0.219 C  
BRANCH   6   7
HETATM    7  C   UNL     1     -10.842   9.520  69.248  1.00  0.00    -0.191 C  
BRANCH   7   8
HETATM    8  C   UNL     1     -10.369   8.356  68.409  1.00  0.00    -0.239 A  
HETATM    9  C   UNL     1     -10.858   7.070  68.695  1.00  0.00    -0.191 A  
HETATM   10  C   UNL     1      -9.507   8.503  67.314  1.00  0.00    -0.199 A  
HETATM   11  F   UNL     1      -8.645   5.309  64.772  1.00  0.00    -0.137 F  
HETATM   12  F   UNL     1      -8.761   3.967  66.478  1.00  0.00    -0.107 F  
HETATM   13  C   UNL     1      -9.193   7.412  66.495  1.00  0.00    -0.206 A  
HETATM   14  F   UNL     1     -10.549   4.419  65.324  1.00  0.00    -0.256 F  
HETATM   15  C   UNL     1      -9.715   6.140  66.756  1.00  0.00    -0.191 A  
HETATM   16  C   UNL     1      -9.419   4.976  65.843  1.00  0.00    -0.162 C  
HETATM   17  C   UNL     1     -10.539   5.977  67.879  1.00  0.00    -0.337 A  
ENDBRANCH   7   8
BRANCH   7  18
HETATM   18  N   UNL     1     -11.833   9.321  70.077  1.00  0.00    -0.450 NA 
HETATM   19  H   UNL     1     -12.795   9.137  69.792  1.00  0.00     0.000 HD 
BRANCH  18  20
HETATM   20  O   UNL     1     -11.401   9.395  71.407  1.00  0.00    -0.327 OA 
BRANCH  20  21
HETATM   21  C   UNL     1     -12.213   8.568  72.240  1.00  0.00    -0.389 C  
BRANCH  21  22
HETATM   22  C   UNL     1     -11.333   7.392  72.680  1.00  0.00    -0.313 C  
HETATM   23  H2  UNL     1     -11.785   6.160  71.099  1.00  0.00     0.000 HD 
HETATM   24  H1  UNL     1     -11.153   5.325  72.408  1.00  0.00     0.000 HD 
HETATM   25  N   UNL     1     -11.738   6.107  72.116  1.00  0.00    -0.319 NA 
ENDBRANCH  21  22
ENDBRANCH  20  21
ENDBRANCH  18  20
ENDBRANCH   7  18
ENDBRANCH   6   7
ENDBRANCH   5   6
ENDBRANCH   4   5
ENDBRANCH   3   4
ENDBRANCH   2   3
TORSDOF 10
ENDMDL
MODEL      161
REMARK 921   NORMALIZED FREE ENERGY PREDICTED BY IDOCK:   -3.69 KCAL/MOL
REMARK 922        TOTAL FREE ENERGY PREDICTED BY IDOCK:   -6.95 KCAL/MOL
REMARK 923 INTER-LIGAND FREE ENERGY PREDICTED BY IDOCK:   -6.56 KCAL/MOL
REMARK 924 INTRA-LIGAND FREE ENERGY PREDICTED BY IDOCK:   -0.39 KCAL/MOL
REMARK 927      BINDING AFFINITY PREDICTED BY RF-SCORE:    0.00 PKD
ROOT
HETATM    1  C   UNL     1     -11.611  14.122  64.442  1.00  0.00    -0.362 C  
HETATM    2  O   UNL     1     -11.864  12.828  63.906  1.00  0.00    -0.392 OA 
ENDROOT
BRANCH   2   3
HETATM    3  C   UNL     1     -11.612  11.821  64.883  1.00  0.00    -0.158 C  
BRANCH   3   4
HETATM    4  C   UNL     1     -10.206  11.989  65.450  1.00  0.00    -0.295 C  
BRANCH   4   5
HETATM    5  C   UNL     1     -10.258  11.962  66.978  1.00  0.00    -0.233 C  
BRANCH   5   6
HETATM    6  C   UNL     1     -10.922  10.695  67.521  1.00  0.00    -0.371 C  
BRANCH   6   7
HETATM    7  C   UNL     1     -11.395  10.872  68.977  1.00  0.00    -0.281 C  
BRANCH   7   8
HETATM    8  C   UNL     1     -10.801  10.014  70.068  1.00  0.00    -0.352 A  
HETATM    9  C   UNL     1     -11.641   9.538  71.089  1.00  0.00    -0.439 A  
HETATM   10  C   UNL     1      -9.457   9.617  70.084  1.00  0.00    -0.298 A  
HETATM   11  F   UNL     1      -8.028   6.861  72.870  1.00  0.00    -0.101 F  
HETATM   12  F   UNL     1      -9.416   7.673  74.333  1.00  0.00    -0.231 F  
HETATM   13  C   UNL     1      -8.982   8.724  71.052  1.00  0.00    -0.269 A  
HETATM   14  F   UNL     1     -10.038   6.049  73.026  1.00  0.00    -0.169 F  
HETATM   15  C   UNL     1      -9.830   8.217  72.043  1.00  0.00    -0.327 A  
HETATM   16  C   UNL     1      -9.332   7.214  73.054  1.00  0.00    -0.153 C  
HETATM   17  C   UNL     1     -11.164   8.649  72.062  1.00  0.00    -0.434 A  
ENDBRANCH   7   8
BRANCH   7  18
HETATM   18  N   UNL     1     -12.340  11.716  69.299  1.00  0.00    -0.199 NA 
HETATM   19  H   UNL     1     -13.311  11.456  69.472  1.00  0.00     0.000 HD 
BRANCH  18  20
HETATM   20  O   UNL     1     -11.845  13.023  69.375  1.00  0.00    -0.306 OA 
BRANCH  20  21
HETATM   21  C   UNL     1     -12.167  13.605  70.637  1.00  0.00    -0.360 C  
BRANCH  21  22
HETATM   22  C   UNL     1     -12.693  15.015  70.348  1.00  0.00    -0.325 C  
HETATM   23  H2  UNL     1     -13.210  15.473  72.282  1.00  0.00     0.000 HD 
HETATM   24  H1  UNL     1     -13.977  16.455  71.160  1.00  0.00     0.000 HD 
HETATM   25  N   UNL     1     -13.627  15.517  71.352  1.00  0.00    -0.507 NA 
ENDBRANCH  21  22
ENDBRANCH  20  21
ENDBRANCH  18  20
ENDBRANCH   7  18
ENDBRANCH   6   7
ENDBRANCH   5   6
ENDBRANCH   4   5
ENDBRANCH   3   4
ENDBRANCH   2   3
TORSDOF 10
ENDMDL
MODEL      162
REMARK 921   NORMALIZED FREE ENERGY PREDICTED BY IDOCK:   -3.68 KCAL/MOL
REMARK 922        TOTAL FREE ENERGY PREDICTED BY IDOCK:   -6.93 KCAL/MOL
REMARK 923 INTER-LIGAND FREE ENERGY PREDICTED BY IDOCK:   -6.01 KCAL/MOL
REMARK 924 INTRA-LIGAND FREE ENERGY PREDICTED BY IDOCK:   -0.92 KCAL/MOL
REMARK 927      BINDING AFFINITY PREDICTED BY RF-SCORE:    0.00 PKD
ROOT
HETATM    1  C   UNL     1     -10.515   7.224  73.522  1.00  0.00    -0.374 C  
HETATM    2  O   UNL     1     -11.597   7.861  72.851  1.00  0.00    -0.383 OA 
ENDROOT
BRANCH   2   3
HETATM    3  C   UNL     1     -11.205   8.273  71.545  1.00  0.00    -0.262 C  
BRANCH   3   4
HETATM    4  C   UNL     1      -9.970   9.164  71.631  1.00  0.00    -0.319 C  
BRANCH   4   5
HETATM    5  C   UNL     1      -9.132   9.009  70.361  1.00  0.00    -0.242 C  
BRANCH   5   6
HETATM    6  C   UNL     1      -9.899   8.318  69.232  1.00  0.00    -0.186 C  
BRANCH   6   7
HETATM    7  C   UNL     1      -9.283   8.615  67.852  1.00  0.00    -0.139 C  
BRANCH   7   8
HETATM    8  C   UNL     1      -9.931   9.633  66.943  1.00  0.00    -0.272 A  
HETATM    9  C   UNL     1     -10.686  10.670  67.516  1.00  0.00    -0.321 A  
HETATM   10  C   UNL     1      -9.769   9.629  65.551  1.00  0.00    -0.372 A  
HETATM   11  F   UNL     1     -11.198  12.751  63.180  1.00  0.00    -0.497 F  
HETATM   12  F   UNL     1     -12.881  12.965  64.539  1.00  0.00    -0.432 F  
HETATM   13  C   UNL     1     -10.291  10.662  64.764  1.00  0.00    -0.353 A  
HETATM   14  F   UNL     1     -11.041  14.066  64.902  1.00  0.00    -0.315 F  
HETATM   15  C   UNL     1     -11.007  11.718  65.340  1.00  0.00    -0.352 A  
HETATM   16  C   UNL     1     -11.524  12.858  64.499  1.00  0.00    -0.344 C  
HETATM   17  C   UNL     1     -11.215  11.701  66.728  1.00  0.00    -0.371 A  
ENDBRANCH   7   8
BRANCH   7  18
HETATM   18  N   UNL     1      -8.230   7.976  67.412  1.00  0.00    -0.121 NA 
HETATM   19  H   UNL     1      -7.273   8.320  67.489  1.00  0.00     0.000 HD 
BRANCH  18  20
HETATM   20  O   UNL     1      -8.589   6.759  66.821  1.00  0.00    -0.114 OA 
BRANCH  20  21
HETATM   21  C   UNL     1      -7.809   5.694  67.362  1.00  0.00    -0.101 C  
BRANCH  21  22
HETATM   22  C   UNL     1      -6.741   6.342  68.251  1.00  0.00    -0.068 C  
HETATM   23  H2  UNL     1      -7.064   5.163  69.901  1.00  0.00     0.000 HD 
HETATM   24  H1  UNL     1      -6.256   6.584  70.272  1.00  0.00     0.000 HD 
HETATM   25  N   UNL     1      -6.967   6.153  69.681  1.00  0.00    -0.068 NA 
ENDBRANCH  21  22
ENDBRANCH  20  21
ENDBRANCH  18  20
ENDBRANCH   7  18
ENDBRANCH   6   7
ENDBRANCH   5   6
ENDBRANCH   4   5
ENDBRANCH   3   4
ENDBRANCH   2   3
TORSDOF 10
ENDMDL
MODEL      163
REMARK 921   NORMALIZED FREE ENERGY PREDICTED BY IDOCK:   -3.66 KCAL/MOL
REMARK 922        TOTAL FREE ENERGY PREDICTED BY IDOCK:   -6.91 KCAL/MOL
REMARK 923 INTER-LIGAND FREE ENERGY PREDICTED BY IDOCK:   -6.04 KCAL/MOL
REMARK 924 INTRA-LIGAND FREE ENERGY PREDICTED BY IDOCK:   -0.87 KCAL/MOL
REMARK 927      BINDING AFFINITY PREDICTED BY RF-SCORE:    0.00 PKD
ROOT
HETATM    1  C   UNL     1      -6.697   7.752  73.642  1.00  0.00    -0.091 C  
HETATM    2  O   UNL     1      -6.885   6.725  72.675  1.00  0.00    -0.063 OA 
ENDROOT
BRANCH   2   3
HETATM    3  C   UNL     1      -7.491   7.248  71.497  1.00  0.00    -0.082 C  
BRANCH   3   4
HETATM    4  C   UNL     1      -7.880   8.707  71.717  1.00  0.00    -0.138 C  
BRANCH   4   5
HETATM    5  C   UNL     1      -8.081   9.398  70.368  1.00  0.00    -0.197 C  
BRANCH   5   6
HETATM    6  C   UNL     1      -8.936   8.571  69.406  1.00  0.00    -0.149 C  
BRANCH   6   7
HETATM    7  C   UNL     1     -10.375   9.111  69.306  1.00  0.00    -0.216 C  
BRANCH   7   8
HETATM    8  C   UNL     1     -10.638  10.421  68.602  1.00  0.00    -0.234 A  
HETATM    9  C   UNL     1     -10.648  10.447  67.197  1.00  0.00    -0.319 A  
HETATM   10  C   UNL     1     -10.933  11.610  69.283  1.00  0.00    -0.246 A  
HETATM   11  F   UNL     1     -12.117  15.054  67.247  1.00  0.00    -0.338 F  
HETATM   12  F   UNL     1     -10.799  14.497  65.611  1.00  0.00    -0.290 F  
HETATM   13  C   UNL     1     -11.288  12.770  68.583  1.00  0.00    -0.333 A  
HETATM   14  F   UNL     1     -12.856  13.792  65.640  1.00  0.00    -0.501 F  
HETATM   15  C   UNL     1     -11.339  12.782  67.185  1.00  0.00    -0.365 A  
HETATM   16  C   UNL     1     -11.772  14.017  66.433  1.00  0.00    -0.391 C  
HETATM   17  C   UNL     1     -10.996  11.609  66.497  1.00  0.00    -0.349 A  
ENDBRANCH   7   8
BRANCH   7  18
HETATM   18  N   UNL     1     -11.386   8.492  69.857  1.00  0.00    -0.456 NA 
HETATM   19  H   UNL     1     -11.791   7.624  69.506  1.00  0.00     0.000 HD 
BRANCH  18  20
HETATM   20  O   UNL     1     -11.840   9.176  70.990  1.00  0.00    -0.280 OA 
BRANCH  20  21
HETATM   21  C   UNL     1     -12.934   8.480  71.586  1.00  0.00    -0.343 C  
BRANCH  21  22
HETATM   22  C   UNL     1     -12.621   6.984  71.462  1.00  0.00    -0.385 C  
HETATM   23  H2  UNL     1     -11.594   6.814  73.233  1.00  0.00     0.000 HD 
HETATM   24  H1  UNL     1     -11.264   5.558  72.173  1.00  0.00     0.000 HD 
HETATM   25  N   UNL     1     -11.472   6.553  72.255  1.00  0.00    -0.279 NA 
ENDBRANCH  21  22
ENDBRANCH  20  21
ENDBRANCH  18  20
ENDBRANCH   7  18
ENDBRANCH   6   7
ENDBRANCH   5   6
ENDBRANCH   4   5
ENDBRANCH   3   4
ENDBRANCH   2   3
TORSDOF 10
ENDMDL
MODEL      164
REMARK 921   NORMALIZED FREE ENERGY PREDICTED BY IDOCK:   -3.65 KCAL/MOL
REMARK 922        TOTAL FREE ENERGY PREDICTED BY IDOCK:   -6.89 KCAL/MOL
REMARK 923 INTER-LIGAND FREE ENERGY PREDICTED BY IDOCK:   -5.90 KCAL/MOL
REMARK 924 INTRA-LIGAND FREE ENERGY PREDICTED BY IDOCK:   -0.99 KCAL/MOL
REMARK 927      BINDING AFFINITY PREDICTED BY RF-SCORE:    0.00 PKD
ROOT
HETATM    1  C   UNL     1      -7.787  15.191  67.822  1.00  0.00    -0.147 C  
HETATM    2  O   UNL     1      -8.429  13.992  68.243  1.00  0.00    -0.158 OA 
ENDROOT
BRANCH   2   3
HETATM    3  C   UNL     1      -8.036  12.896  67.422  1.00  0.00    -0.178 C  
BRANCH   3   4
HETATM    4  C   UNL     1      -8.926  11.690  67.705  1.00  0.00    -0.166 C  
BRANCH   4   5
HETATM    5  C   UNL     1     -10.267  11.860  66.990  1.00  0.00    -0.233 C  
BRANCH   5   6
HETATM    6  C   UNL     1     -11.347  10.923  67.536  1.00  0.00    -0.309 C  
BRANCH   6   7
HETATM    7  C   UNL     1     -11.610  11.159  69.035  1.00  0.00    -0.324 C  
BRANCH   7   8
HETATM    8  C   UNL     1     -11.220  10.103  70.041  1.00  0.00    -0.361 A  
HETATM    9  C   UNL     1     -12.059   9.872  71.144  1.00  0.00    -0.466 A  
HETATM   10  C   UNL     1     -10.084   9.293  69.899  1.00  0.00    -0.230 A  
HETATM   11  F   UNL     1      -9.354   6.089  72.469  1.00  0.00    -0.142 F  
HETATM   12  F   UNL     1     -10.244   7.232  74.090  1.00  0.00    -0.354 F  
HETATM   13  C   UNL     1      -9.830   8.248  70.796  1.00  0.00    -0.205 A  
HETATM   14  F   UNL     1     -11.491   5.962  72.840  1.00  0.00    -0.297 F  
HETATM   15  C   UNL     1     -10.690   7.993  71.869  1.00  0.00    -0.311 A  
HETATM   16  C   UNL     1     -10.445   6.834  72.804  1.00  0.00    -0.220 C  
HETATM   17  C   UNL     1     -11.802   8.830  72.044  1.00  0.00    -0.442 A  
ENDBRANCH   7   8
BRANCH   7  18
HETATM   18  N   UNL     1     -12.211  12.235  69.470  1.00  0.00    -0.160 NA 
HETATM   19  H   UNL     1     -13.222  12.331  69.568  1.00  0.00     0.000 HD 
BRANCH  18  20
HETATM   20  O   UNL     1     -11.286  13.237  69.785  1.00  0.00    -0.183 OA 
BRANCH  20  21
HETATM   21  C   UNL     1     -11.933  14.508  69.851  1.00  0.00    -0.328 C  
BRANCH  21  22
HETATM   22  C   UNL     1     -11.532  15.268  68.581  1.00  0.00    -0.337 C  
HETATM   23  H2  UNL     1     -13.034  14.535  67.387  1.00  0.00     0.000 HD 
HETATM   24  H1  UNL     1     -11.757  15.165  66.502  1.00  0.00     0.000 HD 
HETATM   25  N   UNL     1     -12.023  14.660  67.347  1.00  0.00    -0.350 NA 
ENDBRANCH  21  22
ENDBRANCH  20  21
ENDBRANCH  18  20
ENDBRANCH   7  18
ENDBRANCH   6   7
ENDBRANCH   5   6
ENDBRANCH   4   5
ENDBRANCH   3   4
ENDBRANCH   2   3
TORSDOF 10
ENDMDL
MODEL      165
REMARK 921   NORMALIZED FREE ENERGY PREDICTED BY IDOCK:   -3.65 KCAL/MOL
REMARK 922        TOTAL FREE ENERGY PREDICTED BY IDOCK:   -6.89 KCAL/MOL
REMARK 923 INTER-LIGAND FREE ENERGY PREDICTED BY IDOCK:   -5.47 KCAL/MOL
REMARK 924 INTRA-LIGAND FREE ENERGY PREDICTED BY IDOCK:   -1.42 KCAL/MOL
REMARK 927      BINDING AFFINITY PREDICTED BY RF-SCORE:    0.00 PKD
ROOT
HETATM    1  C   UNL     1     -10.045   4.720  70.904  1.00  0.00    -0.205 C  
HETATM    2  O   UNL     1     -10.795   5.917  70.722  1.00  0.00    -0.267 OA 
ENDROOT
BRANCH   2   3
HETATM    3  C   UNL     1     -11.352   6.353  71.959  1.00  0.00    -0.294 C  
BRANCH   3   4
HETATM    4  C   UNL     1     -10.736   7.689  72.364  1.00  0.00    -0.333 C  
BRANCH   4   5
HETATM    5  C   UNL     1     -10.823   8.672  71.197  1.00  0.00    -0.320 C  
BRANCH   5   6
HETATM    6  C   UNL     1      -9.497   9.388  70.931  1.00  0.00    -0.279 C  
BRANCH   6   7
HETATM    7  C   UNL     1      -9.202   9.515  69.425  1.00  0.00    -0.176 C  
BRANCH   7   8
HETATM    8  C   UNL     1      -9.370   8.315  68.524  1.00  0.00    -0.138 A  
HETATM    9  C   UNL     1      -8.363   7.335  68.502  1.00  0.00    -0.125 A  
HETATM   10  C   UNL     1     -10.516   8.096  67.746  1.00  0.00    -0.279 A  
HETATM   11  F   UNL     1     -11.094   4.525  65.668  1.00  0.00    -0.327 F  
HETATM   12  F   UNL     1      -8.950   4.419  65.325  1.00  0.00    -0.122 F  
HETATM   13  C   UNL     1     -10.676   6.910  67.019  1.00  0.00    -0.432 A  
HETATM   14  F   UNL     1      -9.812   3.532  67.115  1.00  0.00    -0.238 F  
HETATM   15  C   UNL     1      -9.691   5.917  67.033  1.00  0.00    -0.158 A  
HETATM   16  C   UNL     1      -9.886   4.616  66.294  1.00  0.00    -0.226 C  
HETATM   17  C   UNL     1      -8.521   6.151  67.771  1.00  0.00    -0.115 A  
ENDBRANCH   7   8
BRANCH   7  18
HETATM   18  N   UNL     1      -8.760  10.626  68.898  1.00  0.00    -0.157 NA 
HETATM   19  H   UNL     1      -7.811  10.761  68.548  1.00  0.00     0.000 HD 
BRANCH  18  20
HETATM   20  O   UNL     1      -9.758  11.607  68.876  1.00  0.00    -0.137 OA 
BRANCH  20  21
HETATM   21  C   UNL     1      -9.843  12.203  67.582  1.00  0.00    -0.194 C  
BRANCH  21  22
HETATM   22  C   UNL     1     -11.238  11.870  67.039  1.00  0.00    -0.323 C  
HETATM   23  H2  UNL     1     -12.208  11.908  68.849  1.00  0.00     0.000 HD 
HETATM   24  H1  UNL     1     -13.068  11.077  67.673  1.00  0.00     0.000 HD 
HETATM   25  N   UNL     1     -12.140  11.298  68.034  1.00  0.00    -0.624 NA 
ENDBRANCH  21  22
ENDBRANCH  20  21
ENDBRANCH  18  20
ENDBRANCH   7  18
ENDBRANCH   6   7
ENDBRANCH   5   6
ENDBRANCH   4   5
ENDBRANCH   3   4
ENDBRANCH   2   3
TORSDOF 10
ENDMDL
MODEL      166
REMARK 921   NORMALIZED FREE ENERGY PREDICTED BY IDOCK:   -3.65 KCAL/MOL
REMARK 922        TOTAL FREE ENERGY PREDICTED BY IDOCK:   -6.88 KCAL/MOL
REMARK 923 INTER-LIGAND FREE ENERGY PREDICTED BY IDOCK:   -6.03 KCAL/MOL
REMARK 924 INTRA-LIGAND FREE ENERGY PREDICTED BY IDOCK:   -0.85 KCAL/MOL
REMARK 927      BINDING AFFINITY PREDICTED BY RF-SCORE:    0.00 PKD
ROOT
HETATM    1  C   UNL     1     -10.669  15.058  65.370  1.00  0.00    -0.374 C  
HETATM    2  O   UNL     1     -10.724  15.496  66.724  1.00  0.00    -0.303 OA 
ENDROOT
BRANCH   2   3
HETATM    3  C   UNL     1     -11.446  14.565  67.525  1.00  0.00    -0.356 C  
BRANCH   3   4
HETATM    4  C   UNL     1     -11.699  13.286  66.733  1.00  0.00    -0.434 C  
BRANCH   4   5
HETATM    5  C   UNL     1     -11.325  12.071  67.581  1.00  0.00    -0.375 C  
BRANCH   5   6
HETATM    6  C   UNL     1      -9.817  11.810  67.602  1.00  0.00    -0.192 C  
BRANCH   6   7
HETATM    7  C   UNL     1      -9.491  10.307  67.517  1.00  0.00    -0.152 C  
BRANCH   7   8
HETATM    8  C   UNL     1      -9.791   9.407  68.691  1.00  0.00    -0.174 A  
HETATM    9  C   UNL     1      -9.449   9.840  69.983  1.00  0.00    -0.278 A  
HETATM   10  C   UNL     1     -10.452   8.177  68.564  1.00  0.00    -0.199 A  
HETATM   11  F   UNL     1     -11.661   5.994  71.907  1.00  0.00    -0.334 F  
HETATM   12  F   UNL     1      -9.895   6.697  72.962  1.00  0.00    -0.160 F  
HETATM   13  C   UNL     1     -10.813   7.435  69.695  1.00  0.00    -0.222 A  
HETATM   14  F   UNL     1     -11.738   7.852  73.032  1.00  0.00    -0.413 F  
HETATM   15  C   UNL     1     -10.510   7.889  70.983  1.00  0.00    -0.223 A  
HETATM   16  C   UNL     1     -10.946   7.116  72.204  1.00  0.00    -0.241 C  
HETATM   17  C   UNL     1      -9.806   9.095  71.115  1.00  0.00    -0.371 A  
ENDBRANCH   7   8
BRANCH   7  18
HETATM   18  N   UNL     1      -8.913   9.783  66.468  1.00  0.00    -0.148 NA 
HETATM   19  H   UNL     1      -8.512   8.845  66.440  1.00  0.00     0.000 HD 
BRANCH  18  20
HETATM   20  O   UNL     1      -8.917  10.675  65.390  1.00  0.00    -0.177 OA 
BRANCH  20  21
HETATM   21  C   UNL     1      -9.323  10.009  64.194  1.00  0.00    -0.280 C  
BRANCH  21  22
HETATM   22  C   UNL     1     -10.300  10.951  63.480  1.00  0.00    -0.277 C  
HETATM   23  H2  UNL     1      -8.899  12.329  62.881  1.00  0.00     0.000 HD 
HETATM   24  H1  UNL     1     -10.458  12.945  62.866  1.00  0.00     0.000 HD 
HETATM   25  N   UNL     1      -9.809  12.319  63.342  1.00  0.00    -0.347 NA 
ENDBRANCH  21  22
ENDBRANCH  20  21
ENDBRANCH  18  20
ENDBRANCH   7  18
ENDBRANCH   6   7
ENDBRANCH   5   6
ENDBRANCH   4   5
ENDBRANCH   3   4
ENDBRANCH   2   3
TORSDOF 10
ENDMDL
MODEL      167
REMARK 921   NORMALIZED FREE ENERGY PREDICTED BY IDOCK:   -3.64 KCAL/MOL
REMARK 922        TOTAL FREE ENERGY PREDICTED BY IDOCK:   -6.88 KCAL/MOL
REMARK 923 INTER-LIGAND FREE ENERGY PREDICTED BY IDOCK:   -5.66 KCAL/MOL
REMARK 924 INTRA-LIGAND FREE ENERGY PREDICTED BY IDOCK:   -1.22 KCAL/MOL
REMARK 927      BINDING AFFINITY PREDICTED BY RF-SCORE:    0.00 PKD
ROOT
HETATM    1  C   UNL     1      -5.392   7.007  67.443  1.00  0.00    -0.013 C  
HETATM    2  O   UNL     1      -5.150   7.995  68.439  1.00  0.00    -0.029 OA 
ENDROOT
BRANCH   2   3
HETATM    3  C   UNL     1      -6.176   7.973  69.428  1.00  0.00    -0.034 C  
BRANCH   3   4
HETATM    4  C   UNL     1      -6.746   9.376  69.616  1.00  0.00    -0.048 C  
BRANCH   4   5
HETATM    5  C   UNL     1      -8.115   9.290  70.291  1.00  0.00    -0.165 C  
BRANCH   5   6
HETATM    6  C   UNL     1      -8.978   8.159  69.729  1.00  0.00    -0.144 C  
BRANCH   6   7
HETATM    7  C   UNL     1     -10.454   8.578  69.586  1.00  0.00    -0.221 C  
BRANCH   7   8
HETATM    8  C   UNL     1     -10.812   9.804  68.781  1.00  0.00    -0.219 A  
HETATM    9  C   UNL     1     -11.349  10.920  69.445  1.00  0.00    -0.347 A  
HETATM   10  C   UNL     1     -10.579   9.910  67.403  1.00  0.00    -0.338 A  
HETATM   11  F   UNL     1     -11.152  13.503  65.362  1.00  0.00    -0.289 F  
HETATM   12  F   UNL     1     -12.818  13.948  66.686  1.00  0.00    -0.355 F  
HETATM   13  C   UNL     1     -10.817  11.111  66.723  1.00  0.00    -0.322 A  
HETATM   14  F   UNL     1     -10.802  14.562  67.227  1.00  0.00    -0.277 F  
HETATM   15  C   UNL     1     -11.312  12.234  67.395  1.00  0.00    -0.389 A  
HETATM   16  C   UNL     1     -11.518  13.543  66.674  1.00  0.00    -0.339 C  
HETATM   17  C   UNL     1     -11.593  12.119  68.765  1.00  0.00    -0.380 A  
ENDBRANCH   7   8
BRANCH   7  18
HETATM   18  N   UNL     1     -11.418   7.928  70.184  1.00  0.00    -0.466 NA 
HETATM   19  H   UNL     1     -12.324   7.725  69.762  1.00  0.00     0.000 HD 
BRANCH  18  20
HETATM   20  O   UNL     1     -11.045   7.548  71.478  1.00  0.00    -0.233 OA 
BRANCH  20  21
HETATM   21  C   UNL     1     -11.523   8.495  72.432  1.00  0.00    -0.349 C  
BRANCH  21  22
HETATM   22  C   UNL     1     -13.052   8.499  72.316  1.00  0.00    -0.334 C  
HETATM   23  H2  UNL     1     -13.168   9.887  70.807  1.00  0.00     0.000 HD 
HETATM   24  H1  UNL     1     -14.614   9.716  71.637  1.00  0.00     0.000 HD 
HETATM   25  N   UNL     1     -13.597   9.713  71.715  1.00  0.00    -0.368 NA 
ENDBRANCH  21  22
ENDBRANCH  20  21
ENDBRANCH  18  20
ENDBRANCH   7  18
ENDBRANCH   6   7
ENDBRANCH   5   6
ENDBRANCH   4   5
ENDBRANCH   3   4
ENDBRANCH   2   3
TORSDOF 10
ENDMDL
MODEL      168
REMARK 921   NORMALIZED FREE ENERGY PREDICTED BY IDOCK:   -3.62 KCAL/MOL
REMARK 922        TOTAL FREE ENERGY PREDICTED BY IDOCK:   -6.85 KCAL/MOL
REMARK 923 INTER-LIGAND FREE ENERGY PREDICTED BY IDOCK:   -6.25 KCAL/MOL
REMARK 924 INTRA-LIGAND FREE ENERGY PREDICTED BY IDOCK:   -0.60 KCAL/MOL
REMARK 927      BINDING AFFINITY PREDICTED BY RF-SCORE:    0.00 PKD
ROOT
HETATM    1  C   UNL     1      -9.419   3.853  63.865  1.00  0.00    -0.155 C  
HETATM    2  O   UNL     1     -10.111   3.658  65.094  1.00  0.00    -0.128 OA 
ENDROOT
BRANCH   2   3
HETATM    3  C   UNL     1     -10.626   4.893  65.582  1.00  0.00    -0.121 C  
BRANCH   3   4
HETATM    4  C   UNL     1     -10.186   5.105  67.027  1.00  0.00    -0.265 C  
BRANCH   4   5
HETATM    5  C   UNL     1     -10.913   6.313  67.617  1.00  0.00    -0.438 C  
BRANCH   5   6
HETATM    6  C   UNL     1      -9.970   7.262  68.361  1.00  0.00    -0.172 C  
BRANCH   6   7
HETATM    7  C   UNL     1     -10.733   8.410  69.048  1.00  0.00    -0.080 C  
BRANCH   7   8
HETATM    8  C   UNL     1     -10.892   9.735  68.341  1.00  0.00    -0.244 A  
HETATM    9  C   UNL     1     -10.428   9.860  67.021  1.00  0.00    -0.296 A  
HETATM   10  C   UNL     1     -11.537  10.837  68.918  1.00  0.00    -0.361 A  
HETATM   11  F   UNL     1     -12.352  14.285  66.715  1.00  0.00    -0.447 F  
HETATM   12  F   UNL     1     -10.501  13.979  65.618  1.00  0.00    -0.278 F  
HETATM   13  C   UNL     1     -11.765  12.004  68.178  1.00  0.00    -0.398 A  
HETATM   14  F   UNL     1     -12.349  13.075  64.911  1.00  0.00    -0.398 F  
HETATM   15  C   UNL     1     -11.340  12.111  66.850  1.00  0.00    -0.402 A  
HETATM   16  C   UNL     1     -11.632  13.348  66.036  1.00  0.00    -0.344 C  
HETATM   17  C   UNL     1     -10.650  11.029  66.283  1.00  0.00    -0.295 A  
ENDBRANCH   7   8
BRANCH   7  18
HETATM   18  N   UNL     1     -11.215   8.293  70.258  1.00  0.00    -0.379 NA 
HETATM   19  H   UNL     1     -12.157   8.572  70.532  1.00  0.00     0.000 HD 
BRANCH  18  20
HETATM   20  O   UNL     1     -10.269   7.737  71.127  1.00  0.00    -0.195 OA 
BRANCH  20  21
HETATM   21  C   UNL     1     -10.127   8.547  72.293  1.00  0.00    -0.316 C  
BRANCH  21  22
HETATM   22  C   UNL     1      -9.216   7.775  73.254  1.00  0.00    -0.258 C  
HETATM   23  H2  UNL     1      -7.768   9.223  73.418  1.00  0.00     0.000 HD 
HETATM   24  H1  UNL     1      -7.219   7.707  73.878  1.00  0.00     0.000 HD 
HETATM   25  N   UNL     1      -7.825   8.221  73.238  1.00  0.00    -0.276 NA 
ENDBRANCH  21  22
ENDBRANCH  20  21
ENDBRANCH  18  20
ENDBRANCH   7  18
ENDBRANCH   6   7
ENDBRANCH   5   6
ENDBRANCH   4   5
ENDBRANCH   3   4
ENDBRANCH   2   3
TORSDOF 10
ENDMDL
MODEL      169
REMARK 921   NORMALIZED FREE ENERGY PREDICTED BY IDOCK:   -3.60 KCAL/MOL
REMARK 922        TOTAL FREE ENERGY PREDICTED BY IDOCK:   -6.82 KCAL/MOL
REMARK 923 INTER-LIGAND FREE ENERGY PREDICTED BY IDOCK:   -6.67 KCAL/MOL
REMARK 924 INTRA-LIGAND FREE ENERGY PREDICTED BY IDOCK:   -0.15 KCAL/MOL
REMARK 927      BINDING AFFINITY PREDICTED BY RF-SCORE:    0.00 PKD
ROOT
HETATM    1  C   UNL     1      -5.449  20.002  66.603  1.00  0.00    -0.171 C  
HETATM    2  O   UNL     1      -6.120  20.565  67.726  1.00  0.00    -0.223 OA 
ENDROOT
BRANCH   2   3
HETATM    3  C   UNL     1      -7.528  20.379  67.616  1.00  0.00    -0.299 C  
BRANCH   3   4
HETATM    4  C   UNL     1      -8.014  19.438  68.713  1.00  0.00    -0.391 C  
BRANCH   4   5
HETATM    5  C   UNL     1      -9.461  19.028  68.437  1.00  0.00    -0.417 C  
BRANCH   5   6
HETATM    6  C   UNL     1      -9.580  18.032  67.282  1.00  0.00    -0.269 C  
BRANCH   6   7
HETATM    7  C   UNL     1      -9.941  16.618  67.776  1.00  0.00    -0.262 C  
BRANCH   7   8
HETATM    8  C   UNL     1     -10.557  15.624  66.820  1.00  0.00    -0.307 A  
HETATM    9  C   UNL     1      -9.792  15.159  65.738  1.00  0.00    -0.384 A  
HETATM   10  C   UNL     1     -11.843  15.091  66.993  1.00  0.00    -0.124 A  
HETATM   11  F   UNL     1     -13.265  12.000  64.580  1.00  0.00    -0.364 F  
HETATM   12  F   UNL     1     -12.151  12.836  62.912  1.00  0.00    -0.521 F  
HETATM   13  C   UNL     1     -12.322  14.084  66.148  1.00  0.00    -0.491 A  
HETATM   14  F   UNL     1     -11.209  11.388  64.235  1.00  0.00    -0.403 F  
HETATM   15  C   UNL     1     -11.542  13.592  65.096  1.00  0.00    -0.333 A  
HETATM   16  C   UNL     1     -12.038  12.469  64.218  1.00  0.00    -0.428 C  
HETATM   17  C   UNL     1     -10.274  14.155  64.888  1.00  0.00    -0.371 A  
ENDBRANCH   7   8
BRANCH   7  18
HETATM   18  N   UNL     1      -9.776  16.257  69.021  1.00  0.00    -0.242 NA 
HETATM   19  H   UNL     1     -10.536  16.117  69.687  1.00  0.00     0.000 HD 
BRANCH  18  20
HETATM   20  O   UNL     1      -8.419  16.088  69.322  1.00  0.00    -0.251 OA 
BRANCH  20  21
HETATM   21  C   UNL     1      -7.852  15.065  68.504  1.00  0.00    -0.137 C  
BRANCH  21  22
HETATM   22  C   UNL     1      -6.408  14.873  68.985  1.00  0.00    -0.099 C  
HETATM   23  H2  UNL     1      -6.868  13.820  70.688  1.00  0.00     0.000 HD 
HETATM   24  H1  UNL     1      -5.331  14.487  70.737  1.00  0.00     0.000 HD 
HETATM   25  N   UNL     1      -6.291  14.616  70.418  1.00  0.00    -0.180 NA 
ENDBRANCH  21  22
ENDBRANCH  20  21
ENDBRANCH  18  20
ENDBRANCH   7  18
ENDBRANCH   6   7
ENDBRANCH   5   6
ENDBRANCH   4   5
ENDBRANCH   3   4
ENDBRANCH   2   3
TORSDOF 10
ENDMDL
MODEL      170
REMARK 921   NORMALIZED FREE ENERGY PREDICTED BY IDOCK:   -3.58 KCAL/MOL
REMARK 922        TOTAL FREE ENERGY PREDICTED BY IDOCK:   -6.78 KCAL/MOL
REMARK 923 INTER-LIGAND FREE ENERGY PREDICTED BY IDOCK:   -6.12 KCAL/MOL
REMARK 924 INTRA-LIGAND FREE ENERGY PREDICTED BY IDOCK:   -0.67 KCAL/MOL
REMARK 927      BINDING AFFINITY PREDICTED BY RF-SCORE:    0.00 PKD
ROOT
HETATM    1  C   UNL     1      -6.061  10.458  65.722  1.00  0.00    -0.122 C  
HETATM    2  O   UNL     1      -6.443  10.108  67.048  1.00  0.00    -0.067 OA 
ENDROOT
BRANCH   2   3
HETATM    3  C   UNL     1      -7.470  10.975  67.521  1.00  0.00    -0.102 C  
BRANCH   3   4
HETATM    4  C   UNL     1      -8.772  10.691  66.780  1.00  0.00    -0.133 C  
BRANCH   4   5
HETATM    5  C   UNL     1      -9.959  10.914  67.717  1.00  0.00    -0.198 C  
BRANCH   5   6
HETATM    6  C   UNL     1      -9.708  10.368  69.124  1.00  0.00    -0.234 C  
BRANCH   6   7
HETATM    7  C   UNL     1     -11.019   9.981  69.834  1.00  0.00    -0.293 C  
BRANCH   7   8
HETATM    8  C   UNL     1     -11.044   8.794  70.768  1.00  0.00    -0.306 A  
HETATM    9  C   UNL     1     -11.421   7.539  70.261  1.00  0.00    -0.173 A  
HETATM   10  C   UNL     1     -10.651   8.868  72.112  1.00  0.00    -0.323 A  
HETATM   11  F   UNL     1     -10.297   5.448  74.474  1.00  0.00    -0.235 F  
HETATM   12  F   UNL     1     -11.974   4.576  73.401  1.00  0.00    -0.375 F  
HETATM   13  C   UNL     1     -10.578   7.716  72.904  1.00  0.00    -0.411 A  
HETATM   14  F   UNL     1      -9.946   4.295  72.666  1.00  0.00    -0.168 F  
HETATM   15  C   UNL     1     -10.913   6.461  72.385  1.00  0.00    -0.284 A  
HETATM   16  C   UNL     1     -10.784   5.213  73.223  1.00  0.00    -0.266 C  
HETATM   17  C   UNL     1     -11.354   6.387  71.055  1.00  0.00    -0.386 A  
ENDBRANCH   7   8
BRANCH   7  18
HETATM   18  N   UNL     1     -12.137  10.622  69.619  1.00  0.00    -0.474 NA 
HETATM   19  H   UNL     1     -12.746  10.465  68.816  1.00  0.00     0.000 HD 
BRANCH  18  20
HETATM   20  O   UNL     1     -12.390  11.551  70.634  1.00  0.00    -0.361 OA 
BRANCH  20  21
HETATM   21  C   UNL     1     -12.161  12.878  70.163  1.00  0.00    -0.302 C  
BRANCH  21  22
HETATM   22  C   UNL     1     -12.514  13.820  71.320  1.00  0.00    -0.345 C  
HETATM   23  H2  UNL     1     -13.210  12.371  72.598  1.00  0.00     0.000 HD 
HETATM   24  H1  UNL     1     -13.742  13.905  73.012  1.00  0.00     0.000 HD 
HETATM   25  N   UNL     1     -13.508  13.279  72.242  1.00  0.00    -0.561 NA 
ENDBRANCH  21  22
ENDBRANCH  20  21
ENDBRANCH  18  20
ENDBRANCH   7  18
ENDBRANCH   6   7
ENDBRANCH   5   6
ENDBRANCH   4   5
ENDBRANCH   3   4
ENDBRANCH   2   3
TORSDOF 10
ENDMDL
MODEL      171
REMARK 921   NORMALIZED FREE ENERGY PREDICTED BY IDOCK:   -3.57 KCAL/MOL
REMARK 922        TOTAL FREE ENERGY PREDICTED BY IDOCK:   -6.77 KCAL/MOL
REMARK 923 INTER-LIGAND FREE ENERGY PREDICTED BY IDOCK:   -5.98 KCAL/MOL
REMARK 924 INTRA-LIGAND FREE ENERGY PREDICTED BY IDOCK:   -0.79 KCAL/MOL
REMARK 927      BINDING AFFINITY PREDICTED BY RF-SCORE:    0.00 PKD
ROOT
HETATM    1  C   UNL     1      -7.093   5.610  64.392  1.00  0.00    -0.053 C  
HETATM    2  O   UNL     1      -6.643   6.930  64.099  1.00  0.00    -0.040 OA 
ENDROOT
BRANCH   2   3
HETATM    3  C   UNL     1      -6.994   7.825  65.151  1.00  0.00    -0.059 C  
BRANCH   3   4
HETATM    4  C   UNL     1      -6.836   7.128  66.499  1.00  0.00    -0.065 C  
BRANCH   4   5
HETATM    5  C   UNL     1      -7.787   7.755  67.519  1.00  0.00    -0.122 C  
BRANCH   5   6
HETATM    6  C   UNL     1      -9.233   7.286  67.340  1.00  0.00    -0.140 C  
BRANCH   6   7
HETATM    7  C   UNL     1     -10.244   8.328  67.855  1.00  0.00    -0.220 C  
BRANCH   7   8
HETATM    8  C   UNL     1     -10.442   9.620  67.099  1.00  0.00    -0.317 A  
HETATM    9  C   UNL     1      -9.871   9.753  65.822  1.00  0.00    -0.360 A  
HETATM   10  C   UNL     1     -11.222  10.679  67.583  1.00  0.00    -0.361 A  
HETATM   11  F   UNL     1     -12.103  14.000  65.217  1.00  0.00    -0.343 F  
HETATM   12  F   UNL     1     -10.141  13.821  64.298  1.00  0.00    -0.438 F  
HETATM   13  C   UNL     1     -11.474  11.807  66.793  1.00  0.00    -0.352 A  
HETATM   14  F   UNL     1     -11.840  12.755  63.456  1.00  0.00    -0.462 F  
HETATM   15  C   UNL     1     -10.939  11.919  65.505  1.00  0.00    -0.347 A  
HETATM   16  C   UNL     1     -11.253  13.110  64.633  1.00  0.00    -0.340 C  
HETATM   17  C   UNL     1     -10.117  10.884  65.033  1.00  0.00    -0.362 A  
ENDBRANCH   7   8
BRANCH   7  18
HETATM   18  N   UNL     1     -10.912   8.153  68.965  1.00  0.00    -0.428 NA 
HETATM   19  H   UNL     1     -11.881   7.837  69.011  1.00  0.00     0.000 HD 
BRANCH  18  20
HETATM   20  O   UNL     1     -10.125   8.458  70.082  1.00  0.00    -0.186 OA 
BRANCH  20  21
HETATM   21  C   UNL     1     -10.916   8.434  71.270  1.00  0.00    -0.252 C  
BRANCH  21  22
HETATM   22  C   UNL     1     -11.528   9.831  71.416  1.00  0.00    -0.365 C  
HETATM   23  H2  UNL     1     -13.401   9.207  71.982  1.00  0.00     0.000 HD 
HETATM   24  H1  UNL     1     -13.392  10.783  71.410  1.00  0.00     0.000 HD 
HETATM   25  N   UNL     1     -12.985   9.853  71.312  1.00  0.00    -0.373 NA 
ENDBRANCH  21  22
ENDBRANCH  20  21
ENDBRANCH  18  20
ENDBRANCH   7  18
ENDBRANCH   6   7
ENDBRANCH   5   6
ENDBRANCH   4   5
ENDBRANCH   3   4
ENDBRANCH   2   3
TORSDOF 10
ENDMDL
MODEL      172
REMARK 921   NORMALIZED FREE ENERGY PREDICTED BY IDOCK:   -3.56 KCAL/MOL
REMARK 922        TOTAL FREE ENERGY PREDICTED BY IDOCK:   -6.75 KCAL/MOL
REMARK 923 INTER-LIGAND FREE ENERGY PREDICTED BY IDOCK:   -5.73 KCAL/MOL
REMARK 924 INTRA-LIGAND FREE ENERGY PREDICTED BY IDOCK:   -1.02 KCAL/MOL
REMARK 927      BINDING AFFINITY PREDICTED BY RF-SCORE:    0.00 PKD
ROOT
HETATM    1  C   UNL     1     -10.212   3.853  73.533  1.00  0.00    -0.143 C  
HETATM    2  O   UNL     1      -9.401   4.896  74.066  1.00  0.00    -0.120 OA 
ENDROOT
BRANCH   2   3
HETATM    3  C   UNL     1     -10.210   5.968  74.542  1.00  0.00    -0.290 C  
BRANCH   3   4
HETATM    4  C   UNL     1     -10.145   7.139  73.567  1.00  0.00    -0.374 C  
BRANCH   4   5
HETATM    5  C   UNL     1     -11.551   7.472  73.066  1.00  0.00    -0.154 C  
BRANCH   5   6
HETATM    6  C   UNL     1     -11.966   6.619  71.866  1.00  0.00    -0.386 C  
BRANCH   6   7
HETATM    7  C   UNL     1     -11.521   7.246  70.532  1.00  0.00    -0.279 C  
BRANCH   7   8
HETATM    8  C   UNL     1     -10.940   6.371  69.447  1.00  0.00    -0.421 A  
HETATM    9  C   UNL     1     -11.065   6.776  68.108  1.00  0.00    -0.229 A  
HETATM   10  C   UNL     1     -10.226   5.194  69.714  1.00  0.00    -0.357 A  
HETATM   11  F   UNL     1      -8.252   3.108  66.688  1.00  0.00    -0.085 F  
HETATM   12  F   UNL     1      -9.836   3.675  65.312  1.00  0.00    -0.167 F  
HETATM   13  C   UNL     1      -9.605   4.481  68.681  1.00  0.00    -0.222 A  
HETATM   14  F   UNL     1      -8.104   4.965  65.570  1.00  0.00    -0.104 F  
HETATM   15  C   UNL     1      -9.694   4.910  67.353  1.00  0.00    -0.195 A  
HETATM   16  C   UNL     1      -8.980   4.172  66.247  1.00  0.00    -0.123 C  
HETATM   17  C   UNL     1     -10.448   6.060  67.074  1.00  0.00    -0.334 A  
ENDBRANCH   7   8
BRANCH   7  18
HETATM   18  N   UNL     1     -11.585   8.534  70.318  1.00  0.00    -0.469 NA 
HETATM   19  H   UNL     1     -12.426   9.028  70.021  1.00  0.00     0.000 HD 
BRANCH  18  20
HETATM   20  O   UNL     1     -10.348   9.147  70.550  1.00  0.00    -0.203 OA 
BRANCH  20  21
HETATM   21  C   UNL     1     -10.186  10.280  69.699  1.00  0.00    -0.235 C  
BRANCH  21  22
HETATM   22  C   UNL     1     -11.592  10.692  69.247  1.00  0.00    -0.275 C  
HETATM   23  H2  UNL     1     -11.415  10.041  67.307  1.00  0.00     0.000 HD 
HETATM   24  H1  UNL     1     -12.656  11.151  67.504  1.00  0.00     0.000 HD 
HETATM   25  N   UNL     1     -11.720  10.877  67.804  1.00  0.00    -0.565 NA 
ENDBRANCH  21  22
ENDBRANCH  20  21
ENDBRANCH  18  20
ENDBRANCH   7  18
ENDBRANCH   6   7
ENDBRANCH   5   6
ENDBRANCH   4   5
ENDBRANCH   3   4
ENDBRANCH   2   3
TORSDOF 10
ENDMDL
MODEL      173
REMARK 921   NORMALIZED FREE ENERGY PREDICTED BY IDOCK:   -3.54 KCAL/MOL
REMARK 922        TOTAL FREE ENERGY PREDICTED BY IDOCK:   -6.71 KCAL/MOL
REMARK 923 INTER-LIGAND FREE ENERGY PREDICTED BY IDOCK:   -5.57 KCAL/MOL
REMARK 924 INTRA-LIGAND FREE ENERGY PREDICTED BY IDOCK:   -1.14 KCAL/MOL
REMARK 927      BINDING AFFINITY PREDICTED BY RF-SCORE:    0.00 PKD
ROOT
HETATM    1  C   UNL     1     -10.471   5.003  66.326  1.00  0.00    -0.303 C  
HETATM    2  O   UNL     1      -9.647   6.099  66.708  1.00  0.00    -0.139 OA 
ENDROOT
BRANCH   2   3
HETATM    3  C   UNL     1      -9.007   5.836  67.954  1.00  0.00    -0.111 C  
BRANCH   3   4
HETATM    4  C   UNL     1      -9.650   4.626  68.623  1.00  0.00    -0.226 C  
BRANCH   4   5
HETATM    5  C   UNL     1      -9.212   4.551  70.086  1.00  0.00    -0.197 C  
BRANCH   5   6
HETATM    6  C   UNL     1      -8.257   5.682  70.473  1.00  0.00    -0.116 C  
BRANCH   6   7
HETATM    7  C   UNL     1      -8.614   6.295  71.840  1.00  0.00    -0.128 C  
BRANCH   7   8
HETATM    8  C   UNL     1      -9.780   7.248  71.954  1.00  0.00    -0.171 A  
HETATM    9  C   UNL     1      -9.757   8.441  71.212  1.00  0.00    -0.245 A  
HETATM   10  C   UNL     1     -10.920   6.973  72.721  1.00  0.00    -0.329 A  
HETATM   11  F   UNL     1     -14.284   9.437  72.588  1.00  0.00    -0.450 F  
HETATM   12  F   UNL     1     -12.975  11.152  72.327  1.00  0.00    -0.540 F  
HETATM   13  C   UNL     1     -12.026   7.832  72.699  1.00  0.00    -0.257 A  
HETATM   14  F   UNL     1     -13.693  10.055  70.591  1.00  0.00    -0.396 F  
HETATM   15  C   UNL     1     -12.017   8.999  71.927  1.00  0.00    -0.445 A  
HETATM   16  C   UNL     1     -13.228   9.897  71.862  1.00  0.00    -0.458 C  
HETATM   17  C   UNL     1     -10.860   9.304  71.196  1.00  0.00    -0.407 A  
ENDBRANCH   7   8
BRANCH   7  18
HETATM   18  N   UNL     1      -7.905   6.055  72.912  1.00  0.00    -0.106 NA 
HETATM   19  H   UNL     1      -8.257   5.573  73.739  1.00  0.00     0.000 HD 
BRANCH  18  20
HETATM   20  O   UNL     1      -6.601   6.546  72.776  1.00  0.00    -0.062 OA 
BRANCH  20  21
HETATM   21  C   UNL     1      -6.173   7.162  73.990  1.00  0.00    -0.069 C  
BRANCH  21  22
HETATM   22  C   UNL     1      -5.766   8.596  73.632  1.00  0.00    -0.111 C  
HETATM   23  H2  UNL     1      -7.484   9.079  72.614  1.00  0.00     0.000 HD 
HETATM   24  H1  UNL     1      -6.205  10.097  72.240  1.00  0.00     0.000 HD 
HETATM   25  N   UNL     1      -6.475   9.143  72.478  1.00  0.00    -0.305 NA 
ENDBRANCH  21  22
ENDBRANCH  20  21
ENDBRANCH  18  20
ENDBRANCH   7  18
ENDBRANCH   6   7
ENDBRANCH   5   6
ENDBRANCH   4   5
ENDBRANCH   3   4
ENDBRANCH   2   3
TORSDOF 10
ENDMDL
MODEL      174
REMARK 921   NORMALIZED FREE ENERGY PREDICTED BY IDOCK:   -3.54 KCAL/MOL
REMARK 922        TOTAL FREE ENERGY PREDICTED BY IDOCK:   -6.71 KCAL/MOL
REMARK 923 INTER-LIGAND FREE ENERGY PREDICTED BY IDOCK:   -5.41 KCAL/MOL
REMARK 924 INTRA-LIGAND FREE ENERGY PREDICTED BY IDOCK:   -1.30 KCAL/MOL
REMARK 927      BINDING AFFINITY PREDICTED BY RF-SCORE:    0.00 PKD
ROOT
HETATM    1  C   UNL     1     -11.375  14.744  67.294  1.00  0.00    -0.357 C  
HETATM    2  O   UNL     1     -12.121  14.052  68.289  1.00  0.00    -0.355 OA 
ENDROOT
BRANCH   2   3
HETATM    3  C   UNL     1     -11.540  12.778  68.558  1.00  0.00    -0.321 C  
BRANCH   3   4
HETATM    4  C   UNL     1     -10.679  12.341  67.377  1.00  0.00    -0.261 C  
BRANCH   4   5
HETATM    5  C   UNL     1     -11.143  10.973  66.878  1.00  0.00    -0.280 C  
BRANCH   5   6
HETATM    6  C   UNL     1      -9.984  10.102  66.388  1.00  0.00    -0.295 C  
BRANCH   6   7
HETATM    7  C   UNL     1      -9.097   9.617  67.550  1.00  0.00    -0.130 C  
BRANCH   7   8
HETATM    8  C   UNL     1      -9.735   9.054  68.798  1.00  0.00    -0.165 A  
HETATM    9  C   UNL     1      -9.722   9.822  69.973  1.00  0.00    -0.292 A  
HETATM   10  C   UNL     1     -10.397   7.818  68.827  1.00  0.00    -0.219 A  
HETATM   11  F   UNL     1     -12.540   6.572  72.183  1.00  0.00    -0.359 F  
HETATM   12  F   UNL     1     -11.079   7.572  73.444  1.00  0.00    -0.410 F  
HETATM   13  C   UNL     1     -11.076   7.394  69.976  1.00  0.00    -0.238 A  
HETATM   14  F   UNL     1     -12.819   8.658  72.720  1.00  0.00    -0.428 F  
HETATM   15  C   UNL     1     -11.098   8.181  71.133  1.00  0.00    -0.279 A  
HETATM   16  C   UNL     1     -11.874   7.749  72.353  1.00  0.00    -0.321 C  
HETATM   17  C   UNL     1     -10.396   9.395  71.125  1.00  0.00    -0.377 A  
ENDBRANCH   7   8
BRANCH   7  18
HETATM   18  N   UNL     1      -7.794   9.721  67.516  1.00  0.00    -0.095 NA 
HETATM   19  H   UNL     1      -7.237  10.218  68.211  1.00  0.00     0.000 HD 
BRANCH  18  20
HETATM   20  O   UNL     1      -7.264   9.062  66.401  1.00  0.00    -0.085 OA 
BRANCH  20  21
HETATM   21  C   UNL     1      -6.995   7.695  66.712  1.00  0.00    -0.079 C  
BRANCH  21  22
HETATM   22  C   UNL     1      -5.581   7.652  67.304  1.00  0.00    -0.035 C  
HETATM   23  H2  UNL     1      -6.157   7.526  69.272  1.00  0.00     0.000 HD 
HETATM   24  H1  UNL     1      -4.572   8.043  69.096  1.00  0.00     0.000 HD 
HETATM   25  N   UNL     1      -5.512   8.072  68.701  1.00  0.00    -0.031 NA 
ENDBRANCH  21  22
ENDBRANCH  20  21
ENDBRANCH  18  20
ENDBRANCH   7  18
ENDBRANCH   6   7
ENDBRANCH   5   6
ENDBRANCH   4   5
ENDBRANCH   3   4
ENDBRANCH   2   3
TORSDOF 10
ENDMDL
MODEL      175
REMARK 921   NORMALIZED FREE ENERGY PREDICTED BY IDOCK:   -3.53 KCAL/MOL
REMARK 922        TOTAL FREE ENERGY PREDICTED BY IDOCK:   -6.70 KCAL/MOL
REMARK 923 INTER-LIGAND FREE ENERGY PREDICTED BY IDOCK:   -5.27 KCAL/MOL
REMARK 924 INTRA-LIGAND FREE ENERGY PREDICTED BY IDOCK:   -1.43 KCAL/MOL
REMARK 927      BINDING AFFINITY PREDICTED BY RF-SCORE:    0.00 PKD
ROOT
HETATM    1  C   UNL     1     -11.024  12.418  63.717  1.00  0.00    -0.447 C  
HETATM    2  O   UNL     1     -10.556  11.572  64.762  1.00  0.00    -0.277 OA 
ENDROOT
BRANCH   2   3
HETATM    3  C   UNL     1     -10.003  10.372  64.227  1.00  0.00    -0.298 C  
BRANCH   3   4
HETATM    4  C   UNL     1      -8.976   9.796  65.197  1.00  0.00    -0.237 C  
BRANCH   4   5
HETATM    5  C   UNL     1      -8.212  10.933  65.875  1.00  0.00    -0.133 C  
BRANCH   5   6
HETATM    6  C   UNL     1      -8.063  10.724  67.383  1.00  0.00    -0.112 C  
BRANCH   6   7
HETATM    7  C   UNL     1      -9.397  10.923  68.126  1.00  0.00    -0.165 C  
BRANCH   7   8
HETATM    8  C   UNL     1      -9.888   9.863  69.084  1.00  0.00    -0.204 A  
HETATM    9  C   UNL     1      -9.185   8.650  69.173  1.00  0.00    -0.152 A  
HETATM   10  C   UNL     1     -10.983  10.052  69.938  1.00  0.00    -0.339 A  
HETATM   11  F   UNL     1     -11.963   7.260  72.879  1.00  0.00    -0.186 F  
HETATM   12  F   UNL     1     -11.297   5.676  71.548  1.00  0.00    -0.313 F  
HETATM   13  C   UNL     1     -11.326   9.086  70.892  1.00  0.00    -0.351 A  
HETATM   14  F   UNL     1      -9.884   6.627  72.902  1.00  0.00    -0.159 F  
HETATM   15  C   UNL     1     -10.598   7.897  71.008  1.00  0.00    -0.232 A  
HETATM   16  C   UNL     1     -10.934   6.880  72.071  1.00  0.00    -0.235 C  
HETATM   17  C   UNL     1      -9.531   7.681  70.123  1.00  0.00    -0.161 A  
ENDBRANCH   7   8
BRANCH   7  18
HETATM   18  N   UNL     1     -10.154  11.968  67.921  1.00  0.00    -0.190 NA 
HETATM   19  H   UNL     1     -11.060  11.940  67.453  1.00  0.00     0.000 HD 
BRANCH  18  20
HETATM   20  O   UNL     1      -9.559  13.130  68.425  1.00  0.00    -0.225 OA 
BRANCH  20  21
HETATM   21  C   UNL     1     -10.419  14.253  68.234  1.00  0.00    -0.247 C  
BRANCH  21  22
HETATM   22  C   UNL     1     -11.855  13.724  68.323  1.00  0.00    -0.378 C  
HETATM   23  H2  UNL     1     -12.244  14.425  70.215  1.00  0.00     0.000 HD 
HETATM   24  H1  UNL     1     -13.295  13.204  69.751  1.00  0.00     0.000 HD 
HETATM   25  N   UNL     1     -12.340  13.556  69.691  1.00  0.00    -0.227 NA 
ENDBRANCH  21  22
ENDBRANCH  20  21
ENDBRANCH  18  20
ENDBRANCH   7  18
ENDBRANCH   6   7
ENDBRANCH   5   6
ENDBRANCH   4   5
ENDBRANCH   3   4
ENDBRANCH   2   3
TORSDOF 10
ENDMDL
MODEL      176
REMARK 921   NORMALIZED FREE ENERGY PREDICTED BY IDOCK:   -3.49 KCAL/MOL
REMARK 922        TOTAL FREE ENERGY PREDICTED BY IDOCK:   -6.64 KCAL/MOL
REMARK 923 INTER-LIGAND FREE ENERGY PREDICTED BY IDOCK:   -5.56 KCAL/MOL
REMARK 924 INTRA-LIGAND FREE ENERGY PREDICTED BY IDOCK:   -1.08 KCAL/MOL
REMARK 927      BINDING AFFINITY PREDICTED BY RF-SCORE:    0.00 PKD
ROOT
HETATM    1  C   UNL     1      -8.753   4.242  69.909  1.00  0.00    -0.070 C  
HETATM    2  O   UNL     1      -9.927   4.488  69.142  1.00  0.00    -0.178 OA 
ENDROOT
BRANCH   2   3
HETATM    3  C   UNL     1      -9.619   4.534  67.752  1.00  0.00    -0.160 C  
BRANCH   3   4
HETATM    4  C   UNL     1     -10.224   5.787  67.128  1.00  0.00    -0.250 C  
BRANCH   4   5
HETATM    5  C   UNL     1      -9.339   6.996  67.434  1.00  0.00    -0.141 C  
BRANCH   5   6
HETATM    6  C   UNL     1      -9.972   8.316  66.989  1.00  0.00    -0.325 C  
BRANCH   6   7
HETATM    7  C   UNL     1     -10.655   9.050  68.159  1.00  0.00    -0.171 C  
BRANCH   7   8
HETATM    8  C   UNL     1     -10.348   8.644  69.581  1.00  0.00    -0.213 A  
HETATM    9  C   UNL     1     -11.109   7.624  70.176  1.00  0.00    -0.229 A  
HETATM   10  C   UNL     1      -9.296   9.197  70.324  1.00  0.00    -0.253 A  
HETATM   11  F   UNL     1      -8.227   7.676  74.058  1.00  0.00    -0.158 F  
HETATM   12  F   UNL     1     -10.321   7.234  74.438  1.00  0.00    -0.281 F  
HETATM   13  C   UNL     1      -8.976   8.704  71.595  1.00  0.00    -0.305 A  
HETATM   14  F   UNL     1      -9.056   5.758  73.461  1.00  0.00    -0.131 F  
HETATM   15  C   UNL     1      -9.709   7.659  72.168  1.00  0.00    -0.220 A  
HETATM   16  C   UNL     1      -9.331   7.091  73.514  1.00  0.00    -0.179 C  
HETATM   17  C   UNL     1     -10.793   7.134  71.450  1.00  0.00    -0.253 A  
ENDBRANCH   7   8
BRANCH   7  18
HETATM   18  N   UNL     1     -11.539   9.992  67.962  1.00  0.00    -0.621 NA 
HETATM   19  H   UNL     1     -12.546   9.835  67.902  1.00  0.00     0.000 HD 
BRANCH  18  20
HETATM   20  O   UNL     1     -10.925  11.244  67.845  1.00  0.00    -0.213 OA 
BRANCH  20  21
HETATM   21  C   UNL     1     -11.863  12.286  68.113  1.00  0.00    -0.311 C  
BRANCH  21  22
HETATM   22  C   UNL     1     -11.969  13.120  66.832  1.00  0.00    -0.362 C  
HETATM   23  H2  UNL     1     -12.710  11.621  65.638  1.00  0.00     0.000 HD 
HETATM   24  H1  UNL     1     -12.044  12.880  64.754  1.00  0.00     0.000 HD 
HETATM   25  N   UNL     1     -11.973  12.325  65.606  1.00  0.00    -0.538 NA 
ENDBRANCH  21  22
ENDBRANCH  20  21
ENDBRANCH  18  20
ENDBRANCH   7  18
ENDBRANCH   6   7
ENDBRANCH   5   6
ENDBRANCH   4   5
ENDBRANCH   3   4
ENDBRANCH   2   3
TORSDOF 10
ENDMDL
MODEL      177
REMARK 921   NORMALIZED FREE ENERGY PREDICTED BY IDOCK:   -3.46 KCAL/MOL
REMARK 922        TOTAL FREE ENERGY PREDICTED BY IDOCK:   -6.59 KCAL/MOL
REMARK 923 INTER-LIGAND FREE ENERGY PREDICTED BY IDOCK:   -5.95 KCAL/MOL
REMARK 924 INTRA-LIGAND FREE ENERGY PREDICTED BY IDOCK:   -0.63 KCAL/MOL
REMARK 927      BINDING AFFINITY PREDICTED BY RF-SCORE:    0.00 PKD
ROOT
HETATM    1  C   UNL     1      -6.394  19.553  67.671  1.00  0.00    -0.207 C  
HETATM    2  O   UNL     1      -7.629  19.873  68.304  1.00  0.00    -0.302 OA 
ENDROOT
BRANCH   2   3
HETATM    3  C   UNL     1      -8.602  18.864  68.048  1.00  0.00    -0.299 C  
BRANCH   3   4
HETATM    4  C   UNL     1      -8.170  17.551  68.692  1.00  0.00    -0.265 C  
BRANCH   4   5
HETATM    5  C   UNL     1      -9.395  16.672  68.943  1.00  0.00    -0.244 C  
BRANCH   5   6
HETATM    6  C   UNL     1     -10.125  16.296  67.652  1.00  0.00    -0.260 C  
BRANCH   6   7
HETATM    7  C   UNL     1     -10.923  14.987  67.801  1.00  0.00    -0.298 C  
BRANCH   7   8
HETATM    8  C   UNL     1     -10.367  13.701  67.238  1.00  0.00    -0.249 A  
HETATM    9  C   UNL     1      -9.300  13.073  67.903  1.00  0.00    -0.212 A  
HETATM   10  C   UNL     1     -10.903  13.064  66.110  1.00  0.00    -0.296 A  
HETATM   11  F   UNL     1      -9.612   9.279  64.922  1.00  0.00    -0.299 F  
HETATM   12  F   UNL     1      -7.612   9.786  65.604  1.00  0.00    -0.097 F  
HETATM   13  C   UNL     1     -10.430  11.812  65.698  1.00  0.00    -0.308 A  
HETATM   14  F   UNL     1      -9.036   8.883  66.979  1.00  0.00    -0.123 F  
HETATM   15  C   UNL     1      -9.396  11.169  66.387  1.00  0.00    -0.207 A  
HETATM   16  C   UNL     1      -8.922   9.797  65.976  1.00  0.00    -0.155 C  
HETATM   17  C   UNL     1      -8.822  11.824  67.487  1.00  0.00    -0.162 A  
ENDBRANCH   7   8
BRANCH   7  18
HETATM   18  N   UNL     1     -12.102  14.956  68.364  1.00  0.00    -0.573 NA 
HETATM   19  H   UNL     1     -12.718  15.764  68.456  1.00  0.00     0.000 HD 
BRANCH  18  20
HETATM   20  O   UNL     1     -12.409  13.671  68.824  1.00  0.00    -0.261 OA 
BRANCH  20  21
HETATM   21  C   UNL     1     -12.141  13.564  70.221  1.00  0.00    -0.355 C  
BRANCH  21  22
HETATM   22  C   UNL     1     -13.234  14.364  70.939  1.00  0.00    -0.288 C  
HETATM   23  H2  UNL     1     -12.758  16.190  70.128  1.00  0.00     0.000 HD 
HETATM   24  H1  UNL     1     -13.677  16.324  71.524  1.00  0.00     0.000 HD 
HETATM   25  N   UNL     1     -12.949  15.792  71.047  1.00  0.00    -0.494 NA 
ENDBRANCH  21  22
ENDBRANCH  20  21
ENDBRANCH  18  20
ENDBRANCH   7  18
ENDBRANCH   6   7
ENDBRANCH   5   6
ENDBRANCH   4   5
ENDBRANCH   3   4
ENDBRANCH   2   3
TORSDOF 10
ENDMDL
MODEL      178
REMARK 921   NORMALIZED FREE ENERGY PREDICTED BY IDOCK:   -3.46 KCAL/MOL
REMARK 922        TOTAL FREE ENERGY PREDICTED BY IDOCK:   -6.59 KCAL/MOL
REMARK 923 INTER-LIGAND FREE ENERGY PREDICTED BY IDOCK:   -5.69 KCAL/MOL
REMARK 924 INTRA-LIGAND FREE ENERGY PREDICTED BY IDOCK:   -0.90 KCAL/MOL
REMARK 927      BINDING AFFINITY PREDICTED BY RF-SCORE:    0.00 PKD
ROOT
HETATM    1  C   UNL     1      -9.045  16.299  68.813  1.00  0.00    -0.245 C  
HETATM    2  O   UNL     1      -8.054  15.585  69.546  1.00  0.00    -0.240 OA 
ENDROOT
BRANCH   2   3
HETATM    3  C   UNL     1      -6.977  15.203  68.694  1.00  0.00    -0.113 C  
BRANCH   3   4
HETATM    4  C   UNL     1      -6.752  13.697  68.786  1.00  0.00    -0.104 C  
BRANCH   4   5
HETATM    5  C   UNL     1      -7.920  12.959  68.131  1.00  0.00    -0.153 C  
BRANCH   5   6
HETATM    6  C   UNL     1      -7.636  11.469  67.932  1.00  0.00    -0.113 C  
BRANCH   6   7
HETATM    7  C   UNL     1      -8.927  10.663  67.697  1.00  0.00    -0.139 C  
BRANCH   7   8
HETATM    8  C   UNL     1      -9.924  10.498  68.820  1.00  0.00    -0.200 A  
HETATM    9  C   UNL     1     -11.183  11.110  68.705  1.00  0.00    -0.314 A  
HETATM   10  C   UNL     1      -9.677   9.710  69.952  1.00  0.00    -0.262 A  
HETATM   11  F   UNL     1     -12.663   8.927  72.758  1.00  0.00    -0.455 F  
HETATM   12  F   UNL     1     -13.467  10.915  72.405  1.00  0.00    -0.512 F  
HETATM   13  C   UNL     1     -10.677   9.491  70.908  1.00  0.00    -0.403 A  
HETATM   14  F   UNL     1     -14.143   9.237  71.198  1.00  0.00    -0.404 F  
HETATM   15  C   UNL     1     -11.944  10.067  70.770  1.00  0.00    -0.426 A  
HETATM   16  C   UNL     1     -13.038   9.789  71.772  1.00  0.00    -0.431 C  
HETATM   17  C   UNL     1     -12.182  10.897  69.664  1.00  0.00    -0.354 A  
ENDBRANCH   7   8
BRANCH   7  18
HETATM   18  N   UNL     1      -9.174  10.069  66.559  1.00  0.00    -0.148 NA 
HETATM   19  H   UNL     1      -9.613  10.521  65.756  1.00  0.00     0.000 HD 
BRANCH  18  20
HETATM   20  O   UNL     1      -8.759   8.733  66.586  1.00  0.00    -0.119 OA 
BRANCH  20  21
HETATM   21  C   UNL     1      -8.442   8.284  65.269  1.00  0.00    -0.162 C  
BRANCH  21  22
HETATM   22  C   UNL     1      -8.103   9.535  64.450  1.00  0.00    -0.141 C  
HETATM   23  H2  UNL     1      -9.971   9.794  63.637  1.00  0.00     0.000 HD 
HETATM   24  H1  UNL     1      -8.777  10.597  62.777  1.00  0.00     0.000 HD 
HETATM   25  N   UNL     1      -9.002   9.765  63.322  1.00  0.00    -0.248 NA 
ENDBRANCH  21  22
ENDBRANCH  20  21
ENDBRANCH  18  20
ENDBRANCH   7  18
ENDBRANCH   6   7
ENDBRANCH   5   6
ENDBRANCH   4   5
ENDBRANCH   3   4
ENDBRANCH   2   3
TORSDOF 10
ENDMDL
MODEL      179
REMARK 921   NORMALIZED FREE ENERGY PREDICTED BY IDOCK:   -3.46 KCAL/MOL
REMARK 922        TOTAL FREE ENERGY PREDICTED BY IDOCK:   -6.58 KCAL/MOL
REMARK 923 INTER-LIGAND FREE ENERGY PREDICTED BY IDOCK:   -5.46 KCAL/MOL
REMARK 924 INTRA-LIGAND FREE ENERGY PREDICTED BY IDOCK:   -1.12 KCAL/MOL
REMARK 927      BINDING AFFINITY PREDICTED BY RF-SCORE:    0.00 PKD
ROOT
HETATM    1  C   UNL     1      -6.707  11.576  66.881  1.00  0.00    -0.139 C  
HETATM    2  O   UNL     1      -6.304  10.224  66.685  1.00  0.00    -0.067 OA 
ENDROOT
BRANCH   2   3
HETATM    3  C   UNL     1      -6.795   9.396  67.735  1.00  0.00    -0.079 C  
BRANCH   3   4
HETATM    4  C   UNL     1      -7.540   8.201  67.149  1.00  0.00    -0.096 C  
BRANCH   4   5
HETATM    5  C   UNL     1      -8.518   7.643  68.183  1.00  0.00    -0.124 C  
BRANCH   5   6
HETATM    6  C   UNL     1      -9.978   7.931  67.828  1.00  0.00    -0.221 C  
BRANCH   6   7
HETATM    7  C   UNL     1     -10.707   8.684  68.956  1.00  0.00    -0.101 C  
BRANCH   7   8
HETATM    8  C   UNL     1     -10.864  10.184  68.879  1.00  0.00    -0.256 A  
HETATM    9  C   UNL     1     -10.284  10.872  67.801  1.00  0.00    -0.209 A  
HETATM   10  C   UNL     1     -11.615  10.923  69.804  1.00  0.00    -0.399 A  
HETATM   11  F   UNL     1     -12.387  14.983  69.236  1.00  0.00    -0.302 F  
HETATM   12  F   UNL     1     -10.428  15.192  68.318  1.00  0.00    -0.228 F  
HETATM   13  C   UNL     1     -11.829  12.295  69.622  1.00  0.00    -0.393 A  
HETATM   14  F   UNL     1     -12.154  14.679  67.097  1.00  0.00    -0.406 F  
HETATM   15  C   UNL     1     -11.286  12.971  68.524  1.00  0.00    -0.323 A  
HETATM   16  C   UNL     1     -11.561  14.437  68.299  1.00  0.00    -0.328 C  
HETATM   17  C   UNL     1     -10.493  12.246  67.622  1.00  0.00    -0.230 A  
ENDBRANCH   7   8
BRANCH   7  18
HETATM   18  N   UNL     1     -11.161   8.069  70.017  1.00  0.00    -0.432 NA 
HETATM   19  H   UNL     1     -11.241   8.495  70.940  1.00  0.00     0.000 HD 
BRANCH  18  20
HETATM   20  O   UNL     1     -11.522   6.749  69.720  1.00  0.00    -0.304 OA 
BRANCH  20  21
HETATM   21  C   UNL     1     -10.880   5.844  70.617  1.00  0.00    -0.292 C  
BRANCH  21  22
HETATM   22  C   UNL     1     -11.456   6.125  72.009  1.00  0.00    -0.313 C  
HETATM   23  H2  UNL     1     -13.434   5.959  71.481  1.00  0.00     0.000 HD 
HETATM   24  H1  UNL     1     -13.219   6.793  72.920  1.00  0.00     0.000 HD 
HETATM   25  N   UNL     1     -12.835   6.606  71.993  1.00  0.00    -0.218 NA 
ENDBRANCH  21  22
ENDBRANCH  20  21
ENDBRANCH  18  20
ENDBRANCH   7  18
ENDBRANCH   6   7
ENDBRANCH   5   6
ENDBRANCH   4   5
ENDBRANCH   3   4
ENDBRANCH   2   3
TORSDOF 10
ENDMDL
MODEL      180
REMARK 921   NORMALIZED FREE ENERGY PREDICTED BY IDOCK:   -3.45 KCAL/MOL
REMARK 922        TOTAL FREE ENERGY PREDICTED BY IDOCK:   -6.57 KCAL/MOL
REMARK 923 INTER-LIGAND FREE ENERGY PREDICTED BY IDOCK:   -6.02 KCAL/MOL
REMARK 924 INTRA-LIGAND FREE ENERGY PREDICTED BY IDOCK:   -0.55 KCAL/MOL
REMARK 927      BINDING AFFINITY PREDICTED BY RF-SCORE:    0.00 PKD
ROOT
HETATM    1  C   UNL     1     -10.698  14.944  65.652  1.00  0.00    -0.342 C  
HETATM    2  O   UNL     1     -11.172  15.452  66.895  1.00  0.00    -0.307 OA 
ENDROOT
BRANCH   2   3
HETATM    3  C   UNL     1     -11.863  14.440  67.622  1.00  0.00    -0.378 C  
BRANCH   3   4
HETATM    4  C   UNL     1     -11.223  13.081  67.355  1.00  0.00    -0.325 C  
BRANCH   4   5
HETATM    5  C   UNL     1     -10.991  12.351  68.678  1.00  0.00    -0.283 C  
BRANCH   5   6
HETATM    6  C   UNL     1     -11.992  11.218  68.908  1.00  0.00    -0.378 C  
BRANCH   6   7
HETATM    7  C   UNL     1     -11.819  10.568  70.294  1.00  0.00    -0.331 C  
BRANCH   7   8
HETATM    8  C   UNL     1     -10.804   9.466  70.484  1.00  0.00    -0.336 A  
HETATM    9  C   UNL     1     -10.374   8.738  69.362  1.00  0.00    -0.217 A  
HETATM   10  C   UNL     1     -10.220   9.169  71.723  1.00  0.00    -0.305 A  
HETATM   11  F   UNL     1      -7.083   6.439  72.058  1.00  0.00    -0.074 F  
HETATM   12  F   UNL     1      -7.969   5.277  70.449  1.00  0.00    -0.082 F  
HETATM   13  C   UNL     1      -9.197   8.218  71.826  1.00  0.00    -0.261 A  
HETATM   14  F   UNL     1      -6.555   6.866  69.994  1.00  0.00    -0.039 F  
HETATM   15  C   UNL     1      -8.740   7.525  70.700  1.00  0.00    -0.141 A  
HETATM   16  C   UNL     1      -7.602   6.540  70.802  1.00  0.00    -0.089 C  
HETATM   17  C   UNL     1      -9.354   7.783  69.466  1.00  0.00    -0.149 A  
ENDBRANCH   7   8
BRANCH   7  18
HETATM   18  N   UNL     1     -12.560  10.908  71.315  1.00  0.00    -0.407 NA 
HETATM   19  H   UNL     1     -12.693  10.333  72.147  1.00  0.00     0.000 HD 
BRANCH  18  20
HETATM   20  O   UNL     1     -13.148  12.162  71.117  1.00  0.00    -0.212 OA 
BRANCH  20  21
HETATM   21  C   UNL     1     -13.751  12.626  72.325  1.00  0.00    -0.332 C  
BRANCH  21  22
HETATM   22  C   UNL     1     -13.452  14.127  72.414  1.00  0.00    -0.517 C  
HETATM   23  H2  UNL     1     -15.330  14.770  71.885  1.00  0.00     0.000 HD 
HETATM   24  H1  UNL     1     -14.162  15.958  71.690  1.00  0.00     0.000 HD 
HETATM   25  N   UNL     1     -14.361  14.959  71.630  1.00  0.00    -0.519 NA 
ENDBRANCH  21  22
ENDBRANCH  20  21
ENDBRANCH  18  20
ENDBRANCH   7  18
ENDBRANCH   6   7
ENDBRANCH   5   6
ENDBRANCH   4   5
ENDBRANCH   3   4
ENDBRANCH   2   3
TORSDOF 10
ENDMDL
MODEL      181
REMARK 921   NORMALIZED FREE ENERGY PREDICTED BY IDOCK:   -3.44 KCAL/MOL
REMARK 922        TOTAL FREE ENERGY PREDICTED BY IDOCK:   -6.55 KCAL/MOL
REMARK 923 INTER-LIGAND FREE ENERGY PREDICTED BY IDOCK:   -5.51 KCAL/MOL
REMARK 924 INTRA-LIGAND FREE ENERGY PREDICTED BY IDOCK:   -1.04 KCAL/MOL
REMARK 927      BINDING AFFINITY PREDICTED BY RF-SCORE:    0.00 PKD
ROOT
HETATM    1  C   UNL     1      -9.799  14.374  67.129  1.00  0.00    -0.254 C  
HETATM    2  O   UNL     1     -10.214  14.628  68.467  1.00  0.00    -0.227 OA 
ENDROOT
BRANCH   2   3
HETATM    3  C   UNL     1     -11.234  13.714  68.859  1.00  0.00    -0.270 C  
BRANCH   3   4
HETATM    4  C   UNL     1     -11.491  12.711  67.739  1.00  0.00    -0.375 C  
BRANCH   4   5
HETATM    5  C   UNL     1     -11.929  11.373  68.335  1.00  0.00    -0.270 C  
BRANCH   5   6
HETATM    6  C   UNL     1     -11.274  11.088  69.688  1.00  0.00    -0.345 C  
BRANCH   6   7
HETATM    7  C   UNL     1     -10.405   9.816  69.650  1.00  0.00    -0.238 C  
BRANCH   7   8
HETATM    8  C   UNL     1     -10.712   8.670  70.585  1.00  0.00    -0.259 A  
HETATM    9  C   UNL     1     -11.195   7.466  70.046  1.00  0.00    -0.200 A  
HETATM   10  C   UNL     1     -10.482   8.727  71.967  1.00  0.00    -0.414 A  
HETATM   11  F   UNL     1     -10.905   5.356  74.388  1.00  0.00    -0.283 F  
HETATM   12  F   UNL     1     -12.542   4.694  73.120  1.00  0.00    -0.228 F  
HETATM   13  C   UNL     1     -10.670   7.598  72.773  1.00  0.00    -0.401 A  
HETATM   14  F   UNL     1     -10.498   4.116  72.651  1.00  0.00    -0.220 F  
HETATM   15  C   UNL     1     -11.110   6.387  72.228  1.00  0.00    -0.302 A  
HETATM   16  C   UNL     1     -11.262   5.156  73.088  1.00  0.00    -0.330 C  
HETATM   17  C   UNL     1     -11.389   6.338  70.854  1.00  0.00    -0.389 A  
ENDBRANCH   7   8
BRANCH   7  18
HETATM   18  N   UNL     1      -9.369   9.709  68.861  1.00  0.00    -0.147 NA 
HETATM   19  H   UNL     1      -9.404   9.815  67.847  1.00  0.00     0.000 HD 
BRANCH  18  20
HETATM   20  O   UNL     1      -8.206   9.430  69.589  1.00  0.00    -0.112 OA 
BRANCH  20  21
HETATM   21  C   UNL     1      -7.048   9.744  68.816  1.00  0.00    -0.067 C  
BRANCH  21  22
HETATM   22  C   UNL     1      -7.390  11.000  68.006  1.00  0.00    -0.088 C  
HETATM   23  H2  UNL     1      -6.828  12.361  69.439  1.00  0.00     0.000 HD 
HETATM   24  H1  UNL     1      -7.850  13.022  68.287  1.00  0.00     0.000 HD 
HETATM   25  N   UNL     1      -7.623  12.187  68.825  1.00  0.00    -0.094 NA 
ENDBRANCH  21  22
ENDBRANCH  20  21
ENDBRANCH  18  20
ENDBRANCH   7  18
ENDBRANCH   6   7
ENDBRANCH   5   6
ENDBRANCH   4   5
ENDBRANCH   3   4
ENDBRANCH   2   3
TORSDOF 10
ENDMDL
MODEL      182
REMARK 921   NORMALIZED FREE ENERGY PREDICTED BY IDOCK:   -3.43 KCAL/MOL
REMARK 922        TOTAL FREE ENERGY PREDICTED BY IDOCK:   -6.55 KCAL/MOL
REMARK 923 INTER-LIGAND FREE ENERGY PREDICTED BY IDOCK:   -5.41 KCAL/MOL
REMARK 924 INTRA-LIGAND FREE ENERGY PREDICTED BY IDOCK:   -1.14 KCAL/MOL
REMARK 927      BINDING AFFINITY PREDICTED BY RF-SCORE:    0.00 PKD
ROOT
HETATM    1  C   UNL     1     -11.058  15.608  68.240  1.00  0.00    -0.336 C  
HETATM    2  O   UNL     1     -12.142  14.760  68.607  1.00  0.00    -0.277 OA 
ENDROOT
BRANCH   2   3
HETATM    3  C   UNL     1     -11.958  13.451  68.077  1.00  0.00    -0.322 C  
BRANCH   3   4
HETATM    4  C   UNL     1     -11.332  13.536  66.688  1.00  0.00    -0.344 C  
BRANCH   4   5
HETATM    5  C   UNL     1     -11.472  12.191  65.975  1.00  0.00    -0.427 C  
BRANCH   5   6
HETATM    6  C   UNL     1     -10.120  11.561  65.637  1.00  0.00    -0.278 C  
BRANCH   6   7
HETATM    7  C   UNL     1      -9.297  11.251  66.901  1.00  0.00    -0.177 C  
BRANCH   7   8
HETATM    8  C   UNL     1      -9.715  10.118  67.808  1.00  0.00    -0.176 A  
HETATM    9  C   UNL     1     -10.031  10.401  69.148  1.00  0.00    -0.237 A  
HETATM   10  C   UNL     1      -9.861   8.796  67.365  1.00  0.00    -0.250 A  
HETATM   11  F   UNL     1     -11.479   5.837  69.820  1.00  0.00    -0.441 F  
HETATM   12  F   UNL     1     -10.546   6.797  71.532  1.00  0.00    -0.226 F  
HETATM   13  C   UNL     1     -10.366   7.804  68.214  1.00  0.00    -0.239 A  
HETATM   14  F   UNL     1     -12.543   7.388  70.907  1.00  0.00    -0.336 F  
HETATM   15  C   UNL     1     -10.720   8.098  69.535  1.00  0.00    -0.180 A  
HETATM   16  C   UNL     1     -11.314   7.042  70.435  1.00  0.00    -0.310 C  
HETATM   17  C   UNL     1     -10.529   9.408  70.000  1.00  0.00    -0.266 A  
ENDBRANCH   7   8
BRANCH   7  18
HETATM   18  N   UNL     1      -8.264  11.972  67.249  1.00  0.00    -0.166 NA 
HETATM   19  H   UNL     1      -8.227  12.990  67.196  1.00  0.00     0.000 HD 
BRANCH  18  20
HETATM   20  O   UNL     1      -7.214  11.165  67.703  1.00  0.00    -0.088 OA 
BRANCH  20  21
HETATM   21  C   UNL     1      -5.964  11.658  67.224  1.00  0.00    -0.112 C  
BRANCH  21  22
HETATM   22  C   UNL     1      -5.686  10.934  65.901  1.00  0.00    -0.142 C  
HETATM   23  H2  UNL     1      -7.427   9.844  65.861  1.00  0.00     0.000 HD 
HETATM   24  H1  UNL     1      -6.242   9.204  64.863  1.00  0.00     0.000 HD 
HETATM   25  N   UNL     1      -6.426   9.685  65.743  1.00  0.00    -0.076 NA 
ENDBRANCH  21  22
ENDBRANCH  20  21
ENDBRANCH  18  20
ENDBRANCH   7  18
ENDBRANCH   6   7
ENDBRANCH   5   6
ENDBRANCH   4   5
ENDBRANCH   3   4
ENDBRANCH   2   3
TORSDOF 10
ENDMDL
MODEL      183
REMARK 921   NORMALIZED FREE ENERGY PREDICTED BY IDOCK:   -3.41 KCAL/MOL
REMARK 922        TOTAL FREE ENERGY PREDICTED BY IDOCK:   -6.52 KCAL/MOL
REMARK 923 INTER-LIGAND FREE ENERGY PREDICTED BY IDOCK:   -5.30 KCAL/MOL
REMARK 924 INTRA-LIGAND FREE ENERGY PREDICTED BY IDOCK:   -1.22 KCAL/MOL
REMARK 927      BINDING AFFINITY PREDICTED BY RF-SCORE:    0.00 PKD
ROOT
HETATM    1  C   UNL     1      -8.124   6.130  64.874  1.00  0.00    -0.132 C  
HETATM    2  O   UNL     1      -9.156   6.148  65.855  1.00  0.00    -0.151 OA 
ENDROOT
BRANCH   2   3
HETATM    3  C   UNL     1      -9.089   7.340  66.633  1.00  0.00    -0.154 C  
BRANCH   3   4
HETATM    4  C   UNL     1      -8.494   7.033  68.003  1.00  0.00    -0.125 C  
BRANCH   4   5
HETATM    5  C   UNL     1      -7.824   8.286  68.567  1.00  0.00    -0.121 C  
BRANCH   5   6
HETATM    6  C   UNL     1      -8.818   9.229  69.248  1.00  0.00    -0.146 C  
BRANCH   6   7
HETATM    7  C   UNL     1      -8.738  10.658  68.679  1.00  0.00    -0.148 C  
BRANCH   7   8
HETATM    8  C   UNL     1      -9.610  11.051  67.510  1.00  0.00    -0.178 A  
HETATM    9  C   UNL     1     -10.832  11.698  67.762  1.00  0.00    -0.264 A  
HETATM   10  C   UNL     1      -9.234  10.855  66.174  1.00  0.00    -0.205 A  
HETATM   11  F   UNL     1     -11.486  12.407  63.024  1.00  0.00    -0.455 F  
HETATM   12  F   UNL     1     -13.289  12.059  64.188  1.00  0.00    -0.486 F  
HETATM   13  C   UNL     1     -10.023  11.345  65.126  1.00  0.00    -0.310 A  
HETATM   14  F   UNL     1     -12.221  13.945  64.370  1.00  0.00    -0.406 F  
HETATM   15  C   UNL     1     -11.218  12.026  65.380  1.00  0.00    -0.374 A  
HETATM   16  C   UNL     1     -12.041  12.600  64.253  1.00  0.00    -0.426 C  
HETATM   17  C   UNL     1     -11.624  12.182  66.714  1.00  0.00    -0.412 A  
ENDBRANCH   7   8
BRANCH   7  18
HETATM   18  N   UNL     1      -7.897  11.542  69.146  1.00  0.00    -0.346 NA 
HETATM   19  H   UNL     1      -8.030  12.062  70.015  1.00  0.00     0.000 HD 
BRANCH  18  20
HETATM   20  O   UNL     1      -6.790  11.684  68.301  1.00  0.00    -0.061 OA 
BRANCH  20  21
HETATM   21  C   UNL     1      -6.177  12.958  68.492  1.00  0.00    -0.077 C  
BRANCH  21  22
HETATM   22  C   UNL     1      -7.008  13.968  67.691  1.00  0.00    -0.183 C  
HETATM   23  H2  UNL     1      -8.015  14.766  69.293  1.00  0.00     0.000 HD 
HETATM   24  H1  UNL     1      -8.781  15.070  67.833  1.00  0.00     0.000 HD 
HETATM   25  N   UNL     1      -8.229  14.399  68.366  1.00  0.00    -0.140 NA 
ENDBRANCH  21  22
ENDBRANCH  20  21
ENDBRANCH  18  20
ENDBRANCH   7  18
ENDBRANCH   6   7
ENDBRANCH   5   6
ENDBRANCH   4   5
ENDBRANCH   3   4
ENDBRANCH   2   3
TORSDOF 10
ENDMDL
MODEL      184
REMARK 921   NORMALIZED FREE ENERGY PREDICTED BY IDOCK:   -3.41 KCAL/MOL
REMARK 922        TOTAL FREE ENERGY PREDICTED BY IDOCK:   -6.50 KCAL/MOL
REMARK 923 INTER-LIGAND FREE ENERGY PREDICTED BY IDOCK:   -5.24 KCAL/MOL
REMARK 924 INTRA-LIGAND FREE ENERGY PREDICTED BY IDOCK:   -1.26 KCAL/MOL
REMARK 927      BINDING AFFINITY PREDICTED BY RF-SCORE:    0.00 PKD
ROOT
HETATM    1  C   UNL     1     -11.314  14.923  67.485  1.00  0.00    -0.342 C  
HETATM    2  O   UNL     1     -12.104  14.014  68.245  1.00  0.00    -0.355 OA 
ENDROOT
BRANCH   2   3
HETATM    3  C   UNL     1     -11.607  12.685  68.115  1.00  0.00    -0.338 C  
BRANCH   3   4
HETATM    4  C   UNL     1     -10.676  12.594  66.910  1.00  0.00    -0.264 C  
BRANCH   4   5
HETATM    5  C   UNL     1     -10.749  11.192  66.306  1.00  0.00    -0.298 C  
BRANCH   5   6
HETATM    6  C   UNL     1      -9.395  10.480  66.307  1.00  0.00    -0.202 C  
BRANCH   6   7
HETATM    7  C   UNL     1      -8.822  10.337  67.730  1.00  0.00    -0.125 C  
BRANCH   7   8
HETATM    8  C   UNL     1      -9.577   9.540  68.767  1.00  0.00    -0.159 A  
HETATM    9  C   UNL     1     -10.106   8.289  68.409  1.00  0.00    -0.227 A  
HETATM   10  C   UNL     1      -9.728   9.961  70.095  1.00  0.00    -0.255 A  
HETATM   11  F   UNL     1     -11.407   7.475  72.994  1.00  0.00    -0.353 F  
HETATM   12  F   UNL     1     -12.727   6.654  71.475  1.00  0.00    -0.381 F  
HETATM   13  C   UNL     1     -10.333   9.132  71.048  1.00  0.00    -0.363 A  
HETATM   14  F   UNL     1     -10.774   5.760  71.821  1.00  0.00    -0.260 F  
HETATM   15  C   UNL     1     -10.821   7.868  70.699  1.00  0.00    -0.238 A  
HETATM   16  C   UNL     1     -11.424   6.953  71.736  1.00  0.00    -0.275 C  
HETATM   17  C   UNL     1     -10.717   7.462  69.360  1.00  0.00    -0.220 A  
ENDBRANCH   7   8
BRANCH   7  18
HETATM   18  N   UNL     1      -7.713  10.927  68.091  1.00  0.00    -0.100 NA 
HETATM   19  H   UNL     1      -7.199  10.713  68.946  1.00  0.00     0.000 HD 
BRANCH  18  20
HETATM   20  O   UNL     1      -7.325  11.891  67.154  1.00  0.00    -0.136 OA 
BRANCH  20  21
HETATM   21  C   UNL     1      -6.097  12.502  67.547  1.00  0.00    -0.154 C  
BRANCH  21  22
HETATM   22  C   UNL     1      -6.449  13.538  68.621  1.00  0.00    -0.094 C  
HETATM   23  H2  UNL     1      -8.397  12.945  68.889  1.00  0.00     0.000 HD 
HETATM   24  H1  UNL     1      -8.114  14.499  69.450  1.00  0.00     0.000 HD 
HETATM   25  N   UNL     1      -7.880  13.810  68.736  1.00  0.00    -0.102 NA 
ENDBRANCH  21  22
ENDBRANCH  20  21
ENDBRANCH  18  20
ENDBRANCH   7  18
ENDBRANCH   6   7
ENDBRANCH   5   6
ENDBRANCH   4   5
ENDBRANCH   3   4
ENDBRANCH   2   3
TORSDOF 10
ENDMDL
MODEL      185
REMARK 921   NORMALIZED FREE ENERGY PREDICTED BY IDOCK:   -3.38 KCAL/MOL
REMARK 922        TOTAL FREE ENERGY PREDICTED BY IDOCK:   -6.47 KCAL/MOL
REMARK 923 INTER-LIGAND FREE ENERGY PREDICTED BY IDOCK:   -5.49 KCAL/MOL
REMARK 924 INTRA-LIGAND FREE ENERGY PREDICTED BY IDOCK:   -0.98 KCAL/MOL
REMARK 927      BINDING AFFINITY PREDICTED BY RF-SCORE:    0.00 PKD
ROOT
HETATM    1  C   UNL     1      -6.258  19.374  67.230  1.00  0.00    -0.186 C  
HETATM    2  O   UNL     1      -7.277  20.285  67.631  1.00  0.00    -0.275 OA 
ENDROOT
BRANCH   2   3
HETATM    3  C   UNL     1      -8.566  19.701  67.467  1.00  0.00    -0.311 C  
BRANCH   3   4
HETATM    4  C   UNL     1      -8.866  18.770  68.637  1.00  0.00    -0.360 C  
BRANCH   4   5
HETATM    5  C   UNL     1     -10.074  17.894  68.303  1.00  0.00    -0.376 C  
BRANCH   5   6
HETATM    6  C   UNL     1     -10.405  17.893  66.809  1.00  0.00    -0.357 C  
BRANCH   6   7
HETATM    7  C   UNL     1      -9.994  16.573  66.130  1.00  0.00    -0.343 C  
BRANCH   7   8
HETATM    8  C   UNL     1      -9.063  15.620  66.842  1.00  0.00    -0.260 A  
HETATM    9  C   UNL     1      -9.607  14.511  67.510  1.00  0.00    -0.210 A  
HETATM   10  C   UNL     1      -7.668  15.755  66.821  1.00  0.00    -0.216 A  
HETATM   11  F   UNL     1      -5.168  12.815  68.405  1.00  0.00    -0.055 F  
HETATM   12  F   UNL     1      -6.659  12.422  69.937  1.00  0.00    -0.113 F  
HETATM   13  C   UNL     1      -6.843  14.780  67.395  1.00  0.00    -0.101 A  
HETATM   14  F   UNL     1      -6.736  11.355  68.043  1.00  0.00    -0.056 F  
HETATM   15  C   UNL     1      -7.386  13.654  68.023  1.00  0.00    -0.131 A  
HETATM   16  C   UNL     1      -6.496  12.577  68.594  1.00  0.00    -0.078 C  
HETATM   17  C   UNL     1      -8.782  13.539  68.090  1.00  0.00    -0.174 A  
ENDBRANCH   7   8
BRANCH   7  18
HETATM   18  N   UNL     1     -10.390  16.263  64.924  1.00  0.00    -0.534 NA 
HETATM   19  H   UNL     1      -9.770  16.184  64.116  1.00  0.00     0.000 HD 
BRANCH  18  20
HETATM   20  O   UNL     1     -11.773  16.054  64.883  1.00  0.00    -0.053 OA 
BRANCH  20  21
HETATM   21  C   UNL     1     -12.092  15.008  63.967  1.00  0.00    -0.094 C  
BRANCH  21  22
HETATM   22  C   UNL     1     -11.785  13.689  64.685  1.00  0.00    -0.388 C  
HETATM   23  H2  UNL     1     -13.556  12.756  64.227  1.00  0.00     0.000 HD 
HETATM   24  H1  UNL     1     -12.769  12.043  65.524  1.00  0.00     0.000 HD 
HETATM   25  N   UNL     1     -12.973  12.921  65.047  1.00  0.00    -0.815 NA 
ENDBRANCH  21  22
ENDBRANCH  20  21
ENDBRANCH  18  20
ENDBRANCH   7  18
ENDBRANCH   6   7
ENDBRANCH   5   6
ENDBRANCH   4   5
ENDBRANCH   3   4
ENDBRANCH   2   3
TORSDOF 10
ENDMDL
MODEL      186
REMARK 921   NORMALIZED FREE ENERGY PREDICTED BY IDOCK:   -3.37 KCAL/MOL
REMARK 922        TOTAL FREE ENERGY PREDICTED BY IDOCK:   -6.44 KCAL/MOL
REMARK 923 INTER-LIGAND FREE ENERGY PREDICTED BY IDOCK:   -6.00 KCAL/MOL
REMARK 924 INTRA-LIGAND FREE ENERGY PREDICTED BY IDOCK:   -0.43 KCAL/MOL
REMARK 927      BINDING AFFINITY PREDICTED BY RF-SCORE:    0.00 PKD
ROOT
HETATM    1  C   UNL     1     -12.322  12.855  63.376  1.00  0.00    -0.410 C  
HETATM    2  O   UNL     1     -12.218  12.727  64.790  1.00  0.00    -0.406 OA 
ENDROOT
BRANCH   2   3
HETATM    3  C   UNL     1     -10.865  12.509  65.177  1.00  0.00    -0.288 C  
BRANCH   3   4
HETATM    4  C   UNL     1     -10.441  13.560  66.198  1.00  0.00    -0.296 C  
BRANCH   4   5
HETATM    5  C   UNL     1     -11.672  14.098  66.927  1.00  0.00    -0.437 C  
BRANCH   5   6
HETATM    6  C   UNL     1     -11.315  15.112  68.016  1.00  0.00    -0.346 C  
BRANCH   6   7
HETATM    7  C   UNL     1      -9.793  15.205  68.239  1.00  0.00    -0.223 C  
BRANCH   7   8
HETATM    8  C   UNL     1      -9.053  16.462  67.850  1.00  0.00    -0.201 A  
HETATM    9  C   UNL     1      -8.286  16.462  66.672  1.00  0.00    -0.305 A  
HETATM   10  C   UNL     1      -9.140  17.657  68.577  1.00  0.00    -0.279 A  
HETATM   11  F   UNL     1      -7.451  21.200  67.161  1.00  0.00    -0.391 F  
HETATM   12  F   UNL     1      -5.836  20.038  66.285  1.00  0.00    -0.171 F  
HETATM   13  C   UNL     1      -8.531  18.829  68.110  1.00  0.00    -0.335 A  
HETATM   14  F   UNL     1      -7.644  20.427  65.139  1.00  0.00    -0.272 F  
HETATM   15  C   UNL     1      -7.803  18.836  66.915  1.00  0.00    -0.252 A  
HETATM   16  C   UNL     1      -7.192  20.110  66.384  1.00  0.00    -0.273 C  
HETATM   17  C   UNL     1      -7.672  17.632  66.208  1.00  0.00    -0.324 A  
ENDBRANCH   7   8
BRANCH   7  18
HETATM   18  N   UNL     1      -9.102  14.203  68.715  1.00  0.00    -0.349 NA 
HETATM   19  H   UNL     1      -9.354  13.221  68.600  1.00  0.00     0.000 HD 
BRANCH  18  20
HETATM   20  O   UNL     1      -7.970  14.653  69.405  1.00  0.00    -0.110 OA 
BRANCH  20  21
HETATM   21  C   UNL     1      -6.887  13.740  69.234  1.00  0.00    -0.078 C  
BRANCH  21  22
HETATM   22  C   UNL     1      -7.333  12.726  68.174  1.00  0.00    -0.118 C  
HETATM   23  H2  UNL     1      -8.466  11.560  69.429  1.00  0.00     0.000 HD 
HETATM   24  H1  UNL     1      -8.037  10.761  68.019  1.00  0.00     0.000 HD 
HETATM   25  N   UNL     1      -7.741  11.436  68.724  1.00  0.00    -0.139 NA 
ENDBRANCH  21  22
ENDBRANCH  20  21
ENDBRANCH  18  20
ENDBRANCH   7  18
ENDBRANCH   6   7
ENDBRANCH   5   6
ENDBRANCH   4   5
ENDBRANCH   3   4
ENDBRANCH   2   3
TORSDOF 10
ENDMDL
MODEL      187
REMARK 921   NORMALIZED FREE ENERGY PREDICTED BY IDOCK:   -3.36 KCAL/MOL
REMARK 922        TOTAL FREE ENERGY PREDICTED BY IDOCK:   -6.43 KCAL/MOL
REMARK 923 INTER-LIGAND FREE ENERGY PREDICTED BY IDOCK:   -5.31 KCAL/MOL
REMARK 924 INTRA-LIGAND FREE ENERGY PREDICTED BY IDOCK:   -1.12 KCAL/MOL
REMARK 927      BINDING AFFINITY PREDICTED BY RF-SCORE:    0.00 PKD
ROOT
HETATM    1  C   UNL     1     -10.851  17.489  65.538  1.00  0.00     0.028 C  
HETATM    2  O   UNL     1     -10.794  16.291  64.770  1.00  0.00    -0.671 OA 
ENDROOT
BRANCH   2   3
HETATM    3  C   UNL     1     -10.082  15.276  65.472  1.00  0.00    -0.375 C  
BRANCH   3   4
HETATM    4  C   UNL     1     -10.603  13.901  65.067  1.00  0.00    -0.418 C  
BRANCH   4   5
HETATM    5  C   UNL     1     -11.364  13.272  66.234  1.00  0.00    -0.336 C  
BRANCH   5   6
HETATM    6  C   UNL     1     -10.743  13.610  67.591  1.00  0.00    -0.253 C  
BRANCH   6   7
HETATM    7  C   UNL     1      -9.523  12.723  67.903  1.00  0.00    -0.208 C  
BRANCH   7   8
HETATM    8  C   UNL     1      -9.617  11.227  67.719  1.00  0.00    -0.181 A  
HETATM    9  C   UNL     1     -10.456  10.489  68.571  1.00  0.00    -0.210 A  
HETATM   10  C   UNL     1      -8.950  10.538  66.696  1.00  0.00    -0.155 A  
HETATM   11  F   UNL     1      -9.652   6.489  65.975  1.00  0.00    -0.171 F  
HETATM   12  F   UNL     1      -9.928   6.193  68.111  1.00  0.00    -0.125 F  
HETATM   13  C   UNL     1      -9.164   9.169  66.493  1.00  0.00    -0.221 A  
HETATM   14  F   UNL     1     -11.624   6.724  66.855  1.00  0.00    -0.421 F  
HETATM   15  C   UNL     1     -10.033   8.445  67.317  1.00  0.00    -0.291 A  
HETATM   16  C   UNL     1     -10.303   6.982  67.066  1.00  0.00    -0.290 C  
HETATM   17  C   UNL     1     -10.665   9.118  68.372  1.00  0.00    -0.163 A  
ENDBRANCH   7   8
BRANCH   7  18
HETATM   18  N   UNL     1      -8.409  13.219  68.372  1.00  0.00    -0.229 NA 
HETATM   19  H   UNL     1      -7.635  12.659  68.730  1.00  0.00     0.000 HD 
BRANCH  18  20
HETATM   20  O   UNL     1      -8.417  14.617  68.319  1.00  0.00    -0.145 OA 
BRANCH  20  21
HETATM   21  C   UNL     1      -7.721  15.162  69.440  1.00  0.00    -0.213 C  
BRANCH  21  22
HETATM   22  C   UNL     1      -6.315  14.552  69.421  1.00  0.00    -0.125 C  
HETATM   23  H2  UNL     1      -6.861  12.686  70.085  1.00  0.00     0.000 HD 
HETATM   24  H1  UNL     1      -5.224  12.988  70.285  1.00  0.00     0.000 HD 
HETATM   25  N   UNL     1      -6.160  13.394  70.298  1.00  0.00    -0.134 NA 
ENDBRANCH  21  22
ENDBRANCH  20  21
ENDBRANCH  18  20
ENDBRANCH   7  18
ENDBRANCH   6   7
ENDBRANCH   5   6
ENDBRANCH   4   5
ENDBRANCH   3   4
ENDBRANCH   2   3
TORSDOF 10
ENDMDL
MODEL      188
REMARK 921   NORMALIZED FREE ENERGY PREDICTED BY IDOCK:   -3.35 KCAL/MOL
REMARK 922        TOTAL FREE ENERGY PREDICTED BY IDOCK:   -6.42 KCAL/MOL
REMARK 923 INTER-LIGAND FREE ENERGY PREDICTED BY IDOCK:   -5.52 KCAL/MOL
REMARK 924 INTRA-LIGAND FREE ENERGY PREDICTED BY IDOCK:   -0.90 KCAL/MOL
REMARK 927      BINDING AFFINITY PREDICTED BY RF-SCORE:    0.00 PKD
ROOT
HETATM    1  C   UNL     1      -8.993   8.279  66.949  1.00  0.00    -0.146 C  
HETATM    2  O   UNL     1      -7.945   8.508  67.885  1.00  0.00    -0.106 OA 
ENDROOT
BRANCH   2   3
HETATM    3  C   UNL     1      -7.183   9.654  67.516  1.00  0.00    -0.090 C  
BRANCH   3   4
HETATM    4  C   UNL     1      -7.033  10.586  68.714  1.00  0.00    -0.070 C  
BRANCH   4   5
HETATM    5  C   UNL     1      -7.167  12.039  68.258  1.00  0.00    -0.090 C  
BRANCH   5   6
HETATM    6  C   UNL     1      -7.740  12.161  66.845  1.00  0.00    -0.049 C  
BRANCH   6   7
HETATM    7  C   UNL     1      -9.227  12.561  66.860  1.00  0.00    -0.211 C  
BRANCH   7   8
HETATM    8  C   UNL     1      -9.615  14.015  66.733  1.00  0.00    -0.293 A  
HETATM    9  C   UNL     1      -9.258  14.905  67.760  1.00  0.00    -0.186 A  
HETATM   10  C   UNL     1     -10.265  14.539  65.607  1.00  0.00    -0.379 A  
HETATM   11  F   UNL     1     -10.859  18.642  65.141  1.00  0.00    -0.392 F  
HETATM   12  F   UNL     1     -11.116  18.813  67.292  1.00  0.00    -0.473 F  
HETATM   13  C   UNL     1     -10.496  15.914  65.484  1.00  0.00    -0.425 A  
HETATM   14  F   UNL     1      -9.133  18.987  66.415  1.00  0.00    -0.302 F  
HETATM   15  C   UNL     1     -10.101  16.804  66.489  1.00  0.00    -0.322 A  
HETATM   16  C   UNL     1     -10.301  18.292  66.334  1.00  0.00    -0.400 C  
HETATM   17  C   UNL     1      -9.494  16.281  67.640  1.00  0.00    -0.221 A  
ENDBRANCH   7   8
BRANCH   7  18
HETATM   18  N   UNL     1     -10.179  11.681  67.027  1.00  0.00    -0.209 NA 
HETATM   19  H   UNL     1     -10.665  11.206  66.267  1.00  0.00     0.000 HD 
BRANCH  18  20
HETATM   20  O   UNL     1     -10.442  11.474  68.386  1.00  0.00    -0.191 OA 
BRANCH  20  21
HETATM   21  C   UNL     1     -11.848  11.486  68.628  1.00  0.00    -0.318 C  
BRANCH  21  22
HETATM   22  C   UNL     1     -12.035  11.838  70.108  1.00  0.00    -0.339 C  
HETATM   23  H2  UNL     1     -12.655  13.774  69.811  1.00  0.00     0.000 HD 
HETATM   24  H1  UNL     1     -12.105  13.505  71.372  1.00  0.00     0.000 HD 
HETATM   25  N   UNL     1     -11.981  13.271  70.388  1.00  0.00    -0.314 NA 
ENDBRANCH  21  22
ENDBRANCH  20  21
ENDBRANCH  18  20
ENDBRANCH   7  18
ENDBRANCH   6   7
ENDBRANCH   5   6
ENDBRANCH   4   5
ENDBRANCH   3   4
ENDBRANCH   2   3
TORSDOF 10
ENDMDL
MODEL      189
REMARK 921   NORMALIZED FREE ENERGY PREDICTED BY IDOCK:   -3.35 KCAL/MOL
REMARK 922        TOTAL FREE ENERGY PREDICTED BY IDOCK:   -6.42 KCAL/MOL
REMARK 923 INTER-LIGAND FREE ENERGY PREDICTED BY IDOCK:   -5.37 KCAL/MOL
REMARK 924 INTRA-LIGAND FREE ENERGY PREDICTED BY IDOCK:   -1.04 KCAL/MOL
REMARK 927      BINDING AFFINITY PREDICTED BY RF-SCORE:    0.00 PKD
ROOT
HETATM    1  C   UNL     1      -5.896   6.662  67.746  1.00  0.00    -0.023 C  
HETATM    2  O   UNL     1      -6.234   6.648  69.130  1.00  0.00    -0.028 OA 
ENDROOT
BRANCH   2   3
HETATM    3  C   UNL     1      -7.140   5.586  69.415  1.00  0.00    -0.064 C  
BRANCH   3   4
HETATM    4  C   UNL     1      -8.232   6.076  70.361  1.00  0.00    -0.116 C  
BRANCH   4   5
HETATM    5  C   UNL     1      -9.382   5.069  70.388  1.00  0.00    -0.216 C  
BRANCH   5   6
HETATM    6  C   UNL     1     -10.238   5.120  69.120  1.00  0.00    -0.259 C  
BRANCH   6   7
HETATM    7  C   UNL     1     -11.017   6.444  69.004  1.00  0.00    -0.348 C  
BRANCH   7   8
HETATM    8  C   UNL     1     -10.528   7.523  68.067  1.00  0.00    -0.253 A  
HETATM    9  C   UNL     1      -9.790   7.152  66.931  1.00  0.00    -0.271 A  
HETATM   10  C   UNL     1     -10.827   8.881  68.243  1.00  0.00    -0.048 A  
HETATM   11  F   UNL     1      -9.844  11.721  65.349  1.00  0.00    -0.231 F  
HETATM   12  F   UNL     1      -8.052  10.580  64.888  1.00  0.00    -0.156 F  
HETATM   13  C   UNL     1     -10.452   9.829  67.283  1.00  0.00    -0.324 A  
HETATM   14  F   UNL     1      -9.916  10.149  63.851  1.00  0.00    -0.365 F  
HETATM   15  C   UNL     1      -9.754   9.452  66.131  1.00  0.00    -0.334 A  
HETATM   16  C   UNL     1      -9.397  10.465  65.070  1.00  0.00    -0.229 C  
HETATM   17  C   UNL     1      -9.409   8.101  65.974  1.00  0.00    -0.184 A  
ENDBRANCH   7   8
BRANCH   7  18
HETATM   18  N   UNL     1     -12.074   6.690  69.732  1.00  0.00    -0.545 NA 
HETATM   19  H   UNL     1     -13.026   6.737  69.368  1.00  0.00     0.000 HD 
BRANCH  18  20
HETATM   20  O   UNL     1     -11.730   6.880  71.076  1.00  0.00    -0.307 OA 
BRANCH  20  21
HETATM   21  C   UNL     1     -12.633   7.794  71.696  1.00  0.00    -0.332 C  
BRANCH  21  22
HETATM   22  C   UNL     1     -11.887   9.128  71.823  1.00  0.00    -0.383 C  
HETATM   23  H2  UNL     1     -10.175   8.530  70.859  1.00  0.00     0.000 HD 
HETATM   24  H1  UNL     1      -9.939   9.893  71.805  1.00  0.00     0.000 HD 
HETATM   25  N   UNL     1     -10.435   9.006  71.722  1.00  0.00    -0.354 NA 
ENDBRANCH  21  22
ENDBRANCH  20  21
ENDBRANCH  18  20
ENDBRANCH   7  18
ENDBRANCH   6   7
ENDBRANCH   5   6
ENDBRANCH   4   5
ENDBRANCH   3   4
ENDBRANCH   2   3
TORSDOF 10
ENDMDL
MODEL      190
REMARK 921   NORMALIZED FREE ENERGY PREDICTED BY IDOCK:   -3.35 KCAL/MOL
REMARK 922        TOTAL FREE ENERGY PREDICTED BY IDOCK:   -6.41 KCAL/MOL
REMARK 923 INTER-LIGAND FREE ENERGY PREDICTED BY IDOCK:   -6.10 KCAL/MOL
REMARK 924 INTRA-LIGAND FREE ENERGY PREDICTED BY IDOCK:   -0.31 KCAL/MOL
REMARK 927      BINDING AFFINITY PREDICTED BY RF-SCORE:    0.00 PKD
ROOT
HETATM    1  C   UNL     1      -9.078   8.051  67.083  1.00  0.00    -0.137 C  
HETATM    2  O   UNL     1      -9.737   8.788  66.059  1.00  0.00    -0.254 OA 
ENDROOT
BRANCH   2   3
HETATM    3  C   UNL     1      -8.960   9.920  65.675  1.00  0.00    -0.171 C  
BRANCH   3   4
HETATM    4  C   UNL     1      -9.655  10.666  64.541  1.00  0.00    -0.341 C  
BRANCH   4   5
HETATM    5  C   UNL     1      -9.714  12.159  64.864  1.00  0.00    -0.094 C  
BRANCH   5   6
HETATM    6  C   UNL     1      -9.321  12.463  66.311  1.00  0.00    -0.189 C  
BRANCH   6   7
HETATM    7  C   UNL     1     -10.207  13.560  66.931  1.00  0.00    -0.256 C  
BRANCH   7   8
HETATM    8  C   UNL     1      -9.648  14.947  67.141  1.00  0.00    -0.229 A  
HETATM    9  C   UNL     1     -10.027  15.664  68.288  1.00  0.00    -0.213 A  
HETATM   10  C   UNL     1      -8.716  15.536  66.275  1.00  0.00    -0.283 A  
HETATM   11  F   UNL     1      -6.870  19.161  67.198  1.00  0.00    -0.197 F  
HETATM   12  F   UNL     1      -8.706  19.810  68.165  1.00  0.00    -0.339 F  
HETATM   13  C   UNL     1      -8.137  16.774  66.578  1.00  0.00    -0.329 A  
HETATM   14  F   UNL     1      -7.195  18.736  69.304  1.00  0.00    -0.308 F  
HETATM   15  C   UNL     1      -8.484  17.468  67.742  1.00  0.00    -0.225 A  
HETATM   16  C   UNL     1      -7.821  18.777  68.095  1.00  0.00    -0.288 C  
HETATM   17  C   UNL     1      -9.452  16.906  68.587  1.00  0.00    -0.268 A  
ENDBRANCH   7   8
BRANCH   7  18
HETATM   18  N   UNL     1     -11.428  13.319  67.329  1.00  0.00    -0.320 NA 
HETATM   19  H   UNL     1     -11.716  13.267  68.307  1.00  0.00     0.000 HD 
BRANCH  18  20
HETATM   20  O   UNL     1     -12.290  13.142  66.241  1.00  0.00    -0.389 OA 
BRANCH  20  21
HETATM   21  C   UNL     1     -12.838  14.394  65.831  1.00  0.00    -0.074 C  
BRANCH  21  22
HETATM   22  C   UNL     1     -12.103  14.793  64.546  1.00  0.00    -0.446 C  
HETATM   23  H2  UNL     1     -13.320  13.761  63.251  1.00  0.00     0.000 HD 
HETATM   24  H1  UNL     1     -11.834  14.142  62.574  1.00  0.00     0.000 HD 
HETATM   25  N   UNL     1     -12.322  13.877  63.429  1.00  0.00    -0.752 NA 
ENDBRANCH  21  22
ENDBRANCH  20  21
ENDBRANCH  18  20
ENDBRANCH   7  18
ENDBRANCH   6   7
ENDBRANCH   5   6
ENDBRANCH   4   5
ENDBRANCH   3   4
ENDBRANCH   2   3
TORSDOF 10
ENDMDL
MODEL      191
REMARK 921   NORMALIZED FREE ENERGY PREDICTED BY IDOCK:   -3.34 KCAL/MOL
REMARK 922        TOTAL FREE ENERGY PREDICTED BY IDOCK:   -6.39 KCAL/MOL
REMARK 923 INTER-LIGAND FREE ENERGY PREDICTED BY IDOCK:   -5.32 KCAL/MOL
REMARK 924 INTRA-LIGAND FREE ENERGY PREDICTED BY IDOCK:   -1.07 KCAL/MOL
REMARK 927      BINDING AFFINITY PREDICTED BY RF-SCORE:    0.00 PKD
ROOT
HETATM    1  C   UNL     1     -11.935  13.288  67.407  1.00  0.00    -0.335 C  
HETATM    2  O   UNL     1     -12.172  11.990  66.873  1.00  0.00    -0.529 OA 
ENDROOT
BRANCH   2   3
HETATM    3  C   UNL     1     -11.243  11.050  67.404  1.00  0.00    -0.285 C  
BRANCH   3   4
HETATM    4  C   UNL     1      -9.950  11.761  67.792  1.00  0.00    -0.198 C  
BRANCH   4   5
HETATM    5  C   UNL     1      -9.234  10.969  68.887  1.00  0.00    -0.139 C  
BRANCH   5   6
HETATM    6  C   UNL     1     -10.207  10.305  69.863  1.00  0.00    -0.250 C  
BRANCH   6   7
HETATM    7  C   UNL     1      -9.751   8.886  70.253  1.00  0.00    -0.185 C  
BRANCH   7   8
HETATM    8  C   UNL     1      -9.728   7.792  69.211  1.00  0.00    -0.165 A  
HETATM    9  C   UNL     1      -8.734   6.802  69.288  1.00  0.00    -0.135 A  
HETATM   10  C   UNL     1     -10.690   7.680  68.198  1.00  0.00    -0.127 A  
HETATM   11  F   UNL     1     -10.819   4.364  65.671  1.00  0.00    -0.294 F  
HETATM   12  F   UNL     1      -8.650   4.255  65.760  1.00  0.00    -0.112 F  
HETATM   13  C   UNL     1     -10.694   6.582  67.329  1.00  0.00    -0.427 A  
HETATM   14  F   UNL     1      -9.855   3.198  67.230  1.00  0.00    -0.205 F  
HETATM   15  C   UNL     1      -9.729   5.575  67.435  1.00  0.00    -0.147 A  
HETATM   16  C   UNL     1      -9.765   4.365  66.534  1.00  0.00    -0.215 C  
HETATM   17  C   UNL     1      -8.734   5.707  68.415  1.00  0.00    -0.109 A  
ENDBRANCH   7   8
BRANCH   7  18
HETATM   18  N   UNL     1      -9.424   8.577  71.480  1.00  0.00    -0.198 NA 
HETATM   19  H   UNL     1      -8.466   8.441  71.805  1.00  0.00     0.000 HD 
BRANCH  18  20
HETATM   20  O   UNL     1     -10.559   8.455  72.290  1.00  0.00    -0.297 OA 
BRANCH  20  21
HETATM   21  C   UNL     1     -10.696   7.114  72.758  1.00  0.00    -0.288 C  
BRANCH  21  22
HETATM   22  C   UNL     1     -11.731   6.439  71.851  1.00  0.00    -0.328 C  
HETATM   23  H2  UNL     1     -12.135   8.085  70.691  1.00  0.00     0.000 HD 
HETATM   24  H1  UNL     1     -13.339   6.922  70.601  1.00  0.00     0.000 HD 
HETATM   25  N   UNL     1     -12.651   7.371  71.205  1.00  0.00    -0.350 NA 
ENDBRANCH  21  22
ENDBRANCH  20  21
ENDBRANCH  18  20
ENDBRANCH   7  18
ENDBRANCH   6   7
ENDBRANCH   5   6
ENDBRANCH   4   5
ENDBRANCH   3   4
ENDBRANCH   2   3
TORSDOF 10
ENDMDL
MODEL      192
REMARK 921   NORMALIZED FREE ENERGY PREDICTED BY IDOCK:   -3.30 KCAL/MOL
REMARK 922        TOTAL FREE ENERGY PREDICTED BY IDOCK:   -6.33 KCAL/MOL
REMARK 923 INTER-LIGAND FREE ENERGY PREDICTED BY IDOCK:   -5.92 KCAL/MOL
REMARK 924 INTRA-LIGAND FREE ENERGY PREDICTED BY IDOCK:   -0.41 KCAL/MOL
REMARK 927      BINDING AFFINITY PREDICTED BY RF-SCORE:    0.00 PKD
ROOT
HETATM    1  C   UNL     1     -12.688  14.211  65.410  1.00  0.00    -0.431 C  
HETATM    2  O   UNL     1     -11.372  14.719  65.213  1.00  0.00    -0.341 OA 
ENDROOT
BRANCH   2   3
HETATM    3  C   UNL     1     -10.405  13.683  65.366  1.00  0.00    -0.332 C  
BRANCH   3   4
HETATM    4  C   UNL     1     -10.435  12.762  64.150  1.00  0.00    -0.437 C  
BRANCH   4   5
HETATM    5  C   UNL     1     -11.006  11.401  64.548  1.00  0.00    -0.346 C  
BRANCH   5   6
HETATM    6  C   UNL     1      -9.916  10.356  64.796  1.00  0.00    -0.409 C  
BRANCH   6   7
HETATM    7  C   UNL     1      -9.956   9.815  66.238  1.00  0.00    -0.262 C  
BRANCH   7   8
HETATM    8  C   UNL     1      -9.718   8.346  66.495  1.00  0.00    -0.330 A  
HETATM    9  C   UNL     1      -8.428   7.824  66.304  1.00  0.00    -0.143 A  
HETATM   10  C   UNL     1     -10.712   7.482  66.975  1.00  0.00    -0.367 A  
HETATM   11  F   UNL     1      -9.835   3.564  68.110  1.00  0.00    -0.218 F  
HETATM   12  F   UNL     1      -8.344   3.478  66.531  1.00  0.00    -0.096 F  
HETATM   13  C   UNL     1     -10.411   6.156  67.311  1.00  0.00    -0.272 A  
HETATM   14  F   UNL     1      -7.793   4.189  68.511  1.00  0.00    -0.070 F  
HETATM   15  C   UNL     1      -9.115   5.650  67.161  1.00  0.00    -0.111 A  
HETATM   16  C   UNL     1      -8.779   4.238  67.573  1.00  0.00    -0.106 C  
HETATM   17  C   UNL     1      -8.128   6.496  66.635  1.00  0.00    -0.110 A  
ENDBRANCH   7   8
BRANCH   7  18
HETATM   18  N   UNL     1     -10.240  10.583  67.257  1.00  0.00    -0.204 NA 
HETATM   19  H   UNL     1      -9.573  11.208  67.711  1.00  0.00     0.000 HD 
BRANCH  18  20
HETATM   20  O   UNL     1     -11.576  10.434  67.646  1.00  0.00    -0.383 OA 
BRANCH  20  21
HETATM   21  C   UNL     1     -11.757  10.879  68.989  1.00  0.00    -0.320 C  
BRANCH  21  22
HETATM   22  C   UNL     1     -11.088   9.834  69.890  1.00  0.00    -0.254 C  
HETATM   23  H2  UNL     1     -12.478   9.904  71.401  1.00  0.00     0.000 HD 
HETATM   24  H1  UNL     1     -11.019   9.242  71.896  1.00  0.00     0.000 HD 
HETATM   25  N   UNL     1     -11.464   9.938  71.297  1.00  0.00    -0.375 NA 
ENDBRANCH  21  22
ENDBRANCH  20  21
ENDBRANCH  18  20
ENDBRANCH   7  18
ENDBRANCH   6   7
ENDBRANCH   5   6
ENDBRANCH   4   5
ENDBRANCH   3   4
ENDBRANCH   2   3
TORSDOF 10
ENDMDL
MODEL      193
REMARK 921   NORMALIZED FREE ENERGY PREDICTED BY IDOCK:   -3.29 KCAL/MOL
REMARK 922        TOTAL FREE ENERGY PREDICTED BY IDOCK:   -6.31 KCAL/MOL
REMARK 923 INTER-LIGAND FREE ENERGY PREDICTED BY IDOCK:   -5.44 KCAL/MOL
REMARK 924 INTRA-LIGAND FREE ENERGY PREDICTED BY IDOCK:   -0.87 KCAL/MOL
REMARK 927      BINDING AFFINITY PREDICTED BY RF-SCORE:    0.00 PKD
ROOT
HETATM    1  C   UNL     1     -10.288   7.550  73.336  1.00  0.00    -0.350 C  
HETATM    2  O   UNL     1     -11.226   6.853  72.522  1.00  0.00    -0.253 OA 
ENDROOT
BRANCH   2   3
HETATM    3  C   UNL     1     -10.787   6.818  71.167  1.00  0.00    -0.238 C  
BRANCH   3   4
HETATM    4  C   UNL     1     -11.048   8.166  70.501  1.00  0.00    -0.257 C  
BRANCH   4   5
HETATM    5  C   UNL     1      -9.988   8.429  69.432  1.00  0.00    -0.191 C  
BRANCH   5   6
HETATM    6  C   UNL     1     -10.508   8.183  68.014  1.00  0.00    -0.242 C  
BRANCH   6   7
HETATM    7  C   UNL     1     -10.320   9.416  67.111  1.00  0.00    -0.258 C  
BRANCH   7   8
HETATM    8  C   UNL     1     -10.504  10.801  67.683  1.00  0.00    -0.252 A  
HETATM    9  C   UNL     1      -9.402  11.671  67.722  1.00  0.00    -0.178 A  
HETATM   10  C   UNL     1     -11.741  11.288  68.128  1.00  0.00    -0.323 A  
HETATM   11  F   UNL     1     -12.245  15.277  69.239  1.00  0.00    -0.327 F  
HETATM   12  F   UNL     1     -10.214  15.280  70.016  1.00  0.00    -0.267 F  
HETATM   13  C   UNL     1     -11.885  12.618  68.538  1.00  0.00    -0.342 A  
HETATM   14  F   UNL     1     -10.586  15.799  67.936  1.00  0.00    -0.253 F  
HETATM   15  C   UNL     1     -10.795  13.496  68.536  1.00  0.00    -0.283 A  
HETATM   16  C   UNL     1     -10.961  14.944  68.927  1.00  0.00    -0.251 C  
HETATM   17  C   UNL     1      -9.544  13.001  68.139  1.00  0.00    -0.227 A  
ENDBRANCH   7   8
BRANCH   7  18
HETATM   18  N   UNL     1     -10.051   9.305  65.836  1.00  0.00    -0.367 NA 
HETATM   19  H   UNL     1     -10.706   9.528  65.087  1.00  0.00     0.000 HD 
BRANCH  18  20
HETATM   20  O   UNL     1      -8.746   8.839  65.635  1.00  0.00    -0.163 OA 
BRANCH  20  21
HETATM   21  C   UNL     1      -8.236   9.313  64.389  1.00  0.00    -0.151 C  
BRANCH  21  22
HETATM   22  C   UNL     1      -6.808   9.802  64.659  1.00  0.00    -0.123 C  
HETATM   23  H2  UNL     1      -6.684  11.063  63.042  1.00  0.00     0.000 HD 
HETATM   24  H1  UNL     1      -5.179  10.652  63.656  1.00  0.00     0.000 HD 
HETATM   25  N   UNL     1      -6.129  10.327  63.477  1.00  0.00    -0.144 NA 
ENDBRANCH  21  22
ENDBRANCH  20  21
ENDBRANCH  18  20
ENDBRANCH   7  18
ENDBRANCH   6   7
ENDBRANCH   5   6
ENDBRANCH   4   5
ENDBRANCH   3   4
ENDBRANCH   2   3
TORSDOF 10
ENDMDL
MODEL      194
REMARK 921   NORMALIZED FREE ENERGY PREDICTED BY IDOCK:   -3.25 KCAL/MOL
REMARK 922        TOTAL FREE ENERGY PREDICTED BY IDOCK:   -6.26 KCAL/MOL
REMARK 923 INTER-LIGAND FREE ENERGY PREDICTED BY IDOCK:   -5.19 KCAL/MOL
REMARK 924 INTRA-LIGAND FREE ENERGY PREDICTED BY IDOCK:   -1.07 KCAL/MOL
REMARK 927      BINDING AFFINITY PREDICTED BY RF-SCORE:    0.00 PKD
ROOT
HETATM    1  C   UNL     1     -10.599  11.156  63.694  1.00  0.00    -0.347 C  
HETATM    2  O   UNL     1     -10.458  11.143  65.111  1.00  0.00    -0.276 OA 
ENDROOT
BRANCH   2   3
HETATM    3  C   UNL     1     -10.086   9.845  65.568  1.00  0.00    -0.227 C  
BRANCH   3   4
HETATM    4  C   UNL     1      -8.590   9.808  65.862  1.00  0.00    -0.149 C  
BRANCH   4   5
HETATM    5  C   UNL     1      -8.084  11.221  66.151  1.00  0.00    -0.065 C  
BRANCH   5   6
HETATM    6  C   UNL     1      -8.013  11.526  67.648  1.00  0.00    -0.126 C  
BRANCH   6   7
HETATM    7  C   UNL     1      -9.293  12.217  68.156  1.00  0.00    -0.204 C  
BRANCH   7   8
HETATM    8  C   UNL     1      -9.508  13.688  67.891  1.00  0.00    -0.213 A  
HETATM    9  C   UNL     1      -8.592  14.614  68.417  1.00  0.00    -0.169 A  
HETATM   10  C   UNL     1     -10.550  14.176  67.090  1.00  0.00    -0.278 A  
HETATM   11  F   UNL     1     -10.776  18.203  66.023  1.00  0.00    -0.381 F  
HETATM   12  F   UNL     1      -9.940  18.727  67.960  1.00  0.00    -0.314 F  
HETATM   13  C   UNL     1     -10.637  15.538  66.776  1.00  0.00    -0.307 A  
HETATM   14  F   UNL     1      -8.622  18.340  66.272  1.00  0.00    -0.276 F  
HETATM   15  C   UNL     1      -9.699  16.453  67.266  1.00  0.00    -0.239 A  
HETATM   16  C   UNL     1      -9.761  17.911  66.884  1.00  0.00    -0.309 C  
HETATM   17  C   UNL     1      -8.682  15.977  68.107  1.00  0.00    -0.173 A  
ENDBRANCH   7   8
BRANCH   7  18
HETATM   18  N   UNL     1     -10.190  11.578  68.860  1.00  0.00    -0.339 NA 
HETATM   19  H   UNL     1     -11.156  11.886  68.979  1.00  0.00     0.000 HD 
BRANCH  18  20
HETATM   20  O   UNL     1      -9.655  10.417  69.429  1.00  0.00    -0.217 OA 
BRANCH  20  21
HETATM   21  C   UNL     1     -10.612   9.359  69.397  1.00  0.00    -0.221 C  
BRANCH  21  22
HETATM   22  C   UNL     1      -9.869   8.112  68.906  1.00  0.00    -0.176 C  
HETATM   23  H2  UNL     1     -11.265   7.543  67.511  1.00  0.00     0.000 HD 
HETATM   24  H1  UNL     1     -10.238   6.290  67.944  1.00  0.00     0.000 HD 
HETATM   25  N   UNL     1     -10.732   7.120  68.271  1.00  0.00    -0.184 NA 
ENDBRANCH  21  22
ENDBRANCH  20  21
ENDBRANCH  18  20
ENDBRANCH   7  18
ENDBRANCH   6   7
ENDBRANCH   5   6
ENDBRANCH   4   5
ENDBRANCH   3   4
ENDBRANCH   2   3
TORSDOF 10
ENDMDL
MODEL      195
REMARK 921   NORMALIZED FREE ENERGY PREDICTED BY IDOCK:   -3.25 KCAL/MOL
REMARK 922        TOTAL FREE ENERGY PREDICTED BY IDOCK:   -6.25 KCAL/MOL
REMARK 923 INTER-LIGAND FREE ENERGY PREDICTED BY IDOCK:   -5.32 KCAL/MOL
REMARK 924 INTRA-LIGAND FREE ENERGY PREDICTED BY IDOCK:   -0.94 KCAL/MOL
REMARK 927      BINDING AFFINITY PREDICTED BY RF-SCORE:    0.00 PKD
ROOT
HETATM    1  C   UNL     1     -12.941  11.256  71.391  1.00  0.00    -0.379 C  
HETATM    2  O   UNL     1     -11.953  10.581  70.620  1.00  0.00    -0.297 OA 
ENDROOT
BRANCH   2   3
HETATM    3  C   UNL     1     -11.243   9.642  71.423  1.00  0.00    -0.356 C  
BRANCH   3   4
HETATM    4  C   UNL     1     -12.044   8.349  71.541  1.00  0.00    -0.342 C  
BRANCH   4   5
HETATM    5  C   UNL     1     -11.132   7.151  71.278  1.00  0.00    -0.275 C  
BRANCH   5   6
HETATM    6  C   UNL     1     -11.524   6.379  70.017  1.00  0.00    -0.496 C  
BRANCH   6   7
HETATM    7  C   UNL     1     -10.315   6.132  69.094  1.00  0.00    -0.218 C  
BRANCH   7   8
HETATM    8  C   UNL     1     -10.061   7.056  67.927  1.00  0.00    -0.204 A  
HETATM    9  C   UNL     1     -10.652   8.330  67.928  1.00  0.00    -0.212 A  
HETATM   10  C   UNL     1      -9.210   6.727  66.863  1.00  0.00    -0.162 A  
HETATM   11  F   UNL     1      -8.194   9.524  63.939  1.00  0.00    -0.127 F  
HETATM   12  F   UNL     1     -10.183  10.382  64.118  1.00  0.00    -0.394 F  
HETATM   13  C   UNL     1      -8.912   7.663  65.865  1.00  0.00    -0.144 A  
HETATM   14  F   UNL     1      -8.568  11.101  65.386  1.00  0.00    -0.181 F  
HETATM   15  C   UNL     1      -9.469   8.946  65.891  1.00  0.00    -0.303 A  
HETATM   16  C   UNL     1      -9.107   9.973  64.845  1.00  0.00    -0.221 C  
HETATM   17  C   UNL     1     -10.360   9.265  66.927  1.00  0.00    -0.316 A  
ENDBRANCH   7   8
BRANCH   7  18
HETATM   18  N   UNL     1      -9.517   5.110  69.259  1.00  0.00    -0.130 NA 
HETATM   19  H   UNL     1      -8.609   5.009  68.805  1.00  0.00     0.000 HD 
BRANCH  18  20
HETATM   20  O   UNL     1     -10.072   4.172  70.138  1.00  0.00    -0.163 OA 
BRANCH  20  21
HETATM   21  C   UNL     1      -9.041   3.442  70.802  1.00  0.00    -0.113 C  
BRANCH  21  22
HETATM   22  C   UNL     1      -9.137   3.805  72.289  1.00  0.00    -0.114 C  
HETATM   23  H2  UNL     1     -11.028   3.062  72.588  1.00  0.00     0.000 HD 
HETATM   24  H1  UNL     1     -10.570   4.157  73.773  1.00  0.00     0.000 HD 
HETATM   25  N   UNL     1     -10.506   3.916  72.784  1.00  0.00    -0.169 NA 
ENDBRANCH  21  22
ENDBRANCH  20  21
ENDBRANCH  18  20
ENDBRANCH   7  18
ENDBRANCH   6   7
ENDBRANCH   5   6
ENDBRANCH   4   5
ENDBRANCH   3   4
ENDBRANCH   2   3
TORSDOF 10
ENDMDL
MODEL      196
REMARK 921   NORMALIZED FREE ENERGY PREDICTED BY IDOCK:   -3.25 KCAL/MOL
REMARK 922        TOTAL FREE ENERGY PREDICTED BY IDOCK:   -6.25 KCAL/MOL
REMARK 923 INTER-LIGAND FREE ENERGY PREDICTED BY IDOCK:   -5.32 KCAL/MOL
REMARK 924 INTRA-LIGAND FREE ENERGY PREDICTED BY IDOCK:   -0.93 KCAL/MOL
REMARK 927      BINDING AFFINITY PREDICTED BY RF-SCORE:    0.00 PKD
ROOT
HETATM    1  C   UNL     1     -10.690   3.425  63.571  1.00  0.00    -0.250 C  
HETATM    2  O   UNL     1      -9.657   3.265  64.538  1.00  0.00    -0.145 OA 
ENDROOT
BRANCH   2   3
HETATM    3  C   UNL     1      -8.769   4.378  64.513  1.00  0.00    -0.144 C  
BRANCH   3   4
HETATM    4  C   UNL     1      -7.937   4.408  65.792  1.00  0.00    -0.095 C  
BRANCH   4   5
HETATM    5  C   UNL     1      -8.096   5.763  66.480  1.00  0.00    -0.102 C  
BRANCH   5   6
HETATM    6  C   UNL     1      -9.218   6.605  65.870  1.00  0.00    -0.010 C  
BRANCH   6   7
HETATM    7  C   UNL     1      -9.531   7.851  66.720  1.00  0.00    -0.201 C  
BRANCH   7   8
HETATM    8  C   UNL     1     -10.258   7.699  68.035  1.00  0.00    -0.248 A  
HETATM    9  C   UNL     1     -10.900   6.483  68.319  1.00  0.00    -0.359 A  
HETATM   10  C   UNL     1     -10.274   8.697  69.020  1.00  0.00    -0.218 A  
HETATM   11  F   UNL     1     -11.894   8.003  72.801  1.00  0.00    -0.408 F  
HETATM   12  F   UNL     1     -13.383   6.710  71.887  1.00  0.00    -0.380 F  
HETATM   13  C   UNL     1     -10.860   8.463  70.270  1.00  0.00    -0.244 A  
HETATM   14  F   UNL     1     -11.478   5.887  72.538  1.00  0.00    -0.294 F  
HETATM   15  C   UNL     1     -11.462   7.236  70.566  1.00  0.00    -0.310 A  
HETATM   16  C   UNL     1     -12.047   6.965  71.931  1.00  0.00    -0.333 C  
HETATM   17  C   UNL     1     -11.492   6.251  69.568  1.00  0.00    -0.387 A  
ENDBRANCH   7   8
BRANCH   7  18
HETATM   18  N   UNL     1      -9.228   9.057  66.317  1.00  0.00    -0.189 NA 
HETATM   19  H   UNL     1      -8.667   9.720  66.853  1.00  0.00     0.000 HD 
BRANCH  18  20
HETATM   20  O   UNL     1      -9.773   9.320  65.055  1.00  0.00    -0.106 OA 
BRANCH  20  21
HETATM   21  C   UNL     1     -10.098  10.704  64.932  1.00  0.00    -0.335 C  
BRANCH  21  22
HETATM   22  C   UNL     1      -9.995  11.304  66.339  1.00  0.00    -0.215 C  
HETATM   23  H2  UNL     1     -11.760  10.532  67.052  1.00  0.00     0.000 HD 
HETATM   24  H1  UNL     1     -11.210  11.830  67.960  1.00  0.00     0.000 HD 
HETATM   25  N   UNL     1     -11.278  11.430  67.024  1.00  0.00    -0.348 NA 
ENDBRANCH  21  22
ENDBRANCH  20  21
ENDBRANCH  18  20
ENDBRANCH   7  18
ENDBRANCH   6   7
ENDBRANCH   5   6
ENDBRANCH   4   5
ENDBRANCH   3   4
ENDBRANCH   2   3
TORSDOF 10
ENDMDL
MODEL      197
REMARK 921   NORMALIZED FREE ENERGY PREDICTED BY IDOCK:   -3.24 KCAL/MOL
REMARK 922        TOTAL FREE ENERGY PREDICTED BY IDOCK:   -6.24 KCAL/MOL
REMARK 923 INTER-LIGAND FREE ENERGY PREDICTED BY IDOCK:   -5.40 KCAL/MOL
REMARK 924 INTRA-LIGAND FREE ENERGY PREDICTED BY IDOCK:   -0.84 KCAL/MOL
REMARK 927      BINDING AFFINITY PREDICTED BY RF-SCORE:    0.00 PKD
ROOT
HETATM    1  C   UNL     1      -5.409  17.415  70.336  1.00  0.00    -0.255 C  
HETATM    2  O   UNL     1      -6.648  17.336  69.640  1.00  0.00    -0.227 OA 
ENDROOT
BRANCH   2   3
HETATM    3  C   UNL     1      -6.435  17.336  68.231  1.00  0.00    -0.166 C  
BRANCH   3   4
HETATM    4  C   UNL     1      -6.470  15.907  67.700  1.00  0.00    -0.192 C  
BRANCH   4   5
HETATM    5  C   UNL     1      -7.845  15.613  67.100  1.00  0.00    -0.253 C  
BRANCH   5   6
HETATM    6  C   UNL     1      -8.468  14.331  67.658  1.00  0.00    -0.185 C  
BRANCH   6   7
HETATM    7  C   UNL     1      -9.204  13.527  66.569  1.00  0.00    -0.173 C  
BRANCH   7   8
HETATM    8  C   UNL     1      -9.236  12.019  66.643  1.00  0.00    -0.211 A  
HETATM    9  C   UNL     1     -10.031  11.404  67.625  1.00  0.00    -0.196 A  
HETATM   10  C   UNL     1      -8.554  11.194  65.738  1.00  0.00    -0.113 A  
HETATM   11  F   UNL     1      -9.092   7.057  65.726  1.00  0.00    -0.165 F  
HETATM   12  F   UNL     1      -9.327   7.117  67.886  1.00  0.00    -0.130 F  
HETATM   13  C   UNL     1      -8.712   9.803  65.774  1.00  0.00    -0.160 A  
HETATM   14  F   UNL     1     -11.061   7.359  66.595  1.00  0.00    -0.372 F  
HETATM   15  C   UNL     1      -9.538   9.195  66.725  1.00  0.00    -0.253 A  
HETATM   16  C   UNL     1      -9.750   7.701  66.731  1.00  0.00    -0.222 C  
HETATM   17  C   UNL     1     -10.184  10.012  67.665  1.00  0.00    -0.249 A  
ENDBRANCH   7   8
BRANCH   7  18
HETATM   18  N   UNL     1      -9.769  14.108  65.544  1.00  0.00    -0.539 NA 
HETATM   19  H   UNL     1      -9.261  14.596  64.805  1.00  0.00     0.000 HD 
BRANCH  18  20
HETATM   20  O   UNL     1     -11.161  13.974  65.592  1.00  0.00    -0.303 OA 
BRANCH  20  21
HETATM   21  C   UNL     1     -11.725  14.175  64.296  1.00  0.00    -0.345 C  
BRANCH  21  22
HETATM   22  C   UNL     1     -11.942  12.782  63.693  1.00  0.00    -0.539 C  
HETATM   23  H2  UNL     1     -13.148  12.064  65.193  1.00  0.00     0.000 HD 
HETATM   24  H1  UNL     1     -12.468  10.840  64.270  1.00  0.00     0.000 HD 
HETATM   25  N   UNL     1     -12.324  11.767  64.671  1.00  0.00    -0.156 NA 
ENDBRANCH  21  22
ENDBRANCH  20  21
ENDBRANCH  18  20
ENDBRANCH   7  18
ENDBRANCH   6   7
ENDBRANCH   5   6
ENDBRANCH   4   5
ENDBRANCH   3   4
ENDBRANCH   2   3
TORSDOF 10
ENDMDL
MODEL      198
REMARK 921   NORMALIZED FREE ENERGY PREDICTED BY IDOCK:   -3.24 KCAL/MOL
REMARK 922        TOTAL FREE ENERGY PREDICTED BY IDOCK:   -6.24 KCAL/MOL
REMARK 923 INTER-LIGAND FREE ENERGY PREDICTED BY IDOCK:   -5.29 KCAL/MOL
REMARK 924 INTRA-LIGAND FREE ENERGY PREDICTED BY IDOCK:   -0.94 KCAL/MOL
REMARK 927      BINDING AFFINITY PREDICTED BY RF-SCORE:    0.00 PKD
ROOT
HETATM    1  C   UNL     1     -10.437   4.954  66.103  1.00  0.00    -0.302 C  
HETATM    2  O   UNL     1      -9.098   5.422  66.222  1.00  0.00    -0.134 OA 
ENDROOT
BRANCH   2   3
HETATM    3  C   UNL     1      -8.399   4.694  67.228  1.00  0.00    -0.105 C  
BRANCH   3   4
HETATM    4  C   UNL     1      -9.371   3.804  67.995  1.00  0.00    -0.232 C  
BRANCH   4   5
HETATM    5  C   UNL     1      -9.074   3.885  69.493  1.00  0.00    -0.196 C  
BRANCH   5   6
HETATM    6  C   UNL     1      -8.280   5.138  69.868  1.00  0.00    -0.086 C  
BRANCH   6   7
HETATM    7  C   UNL     1      -8.689   5.687  71.247  1.00  0.00    -0.132 C  
BRANCH   7   8
HETATM    8  C   UNL     1      -9.883   6.604  71.366  1.00  0.00    -0.191 A  
HETATM    9  C   UNL     1      -9.674   7.950  71.712  1.00  0.00    -0.219 A  
HETATM   10  C   UNL     1     -11.194   6.194  71.088  1.00  0.00    -0.355 A  
HETATM   11  F   UNL     1     -14.355   8.914  70.975  1.00  0.00    -0.391 F  
HETATM   12  F   UNL     1     -13.393  10.043  72.565  1.00  0.00    -0.466 F  
HETATM   13  C   UNL     1     -12.251   7.111  71.096  1.00  0.00    -0.405 A  
HETATM   14  F   UNL     1     -12.928  10.478  70.485  1.00  0.00    -0.395 F  
HETATM   15  C   UNL     1     -12.035   8.459  71.400  1.00  0.00    -0.337 A  
HETATM   16  C   UNL     1     -13.165   9.458  71.356  1.00  0.00    -0.344 C  
HETATM   17  C   UNL     1     -10.733   8.867  71.727  1.00  0.00    -0.432 A  
ENDBRANCH   7   8
BRANCH   7  18
HETATM   18  N   UNL     1      -8.003   5.424  72.328  1.00  0.00    -0.106 NA 
HETATM   19  H   UNL     1      -6.995   5.266  72.347  1.00  0.00     0.000 HD 
BRANCH  18  20
HETATM   20  O   UNL     1      -8.831   5.386  73.456  1.00  0.00    -0.120 OA 
BRANCH  20  21
HETATM   21  C   UNL     1      -8.338   4.440  74.404  1.00  0.00    -0.090 C  
BRANCH  21  22
HETATM   22  C   UNL     1      -9.415   3.358  74.541  1.00  0.00    -0.100 C  
HETATM   23  H2  UNL     1      -9.967   3.324  72.563  1.00  0.00     0.000 HD 
HETATM   24  H1  UNL     1     -11.132   2.659  73.568  1.00  0.00     0.000 HD 
HETATM   25  N   UNL     1     -10.415   3.379  73.477  1.00  0.00    -0.158 NA 
ENDBRANCH  21  22
ENDBRANCH  20  21
ENDBRANCH  18  20
ENDBRANCH   7  18
ENDBRANCH   6   7
ENDBRANCH   5   6
ENDBRANCH   4   5
ENDBRANCH   3   4
ENDBRANCH   2   3
TORSDOF 10
ENDMDL
MODEL      199
REMARK 921   NORMALIZED FREE ENERGY PREDICTED BY IDOCK:   -3.19 KCAL/MOL
REMARK 922        TOTAL FREE ENERGY PREDICTED BY IDOCK:   -6.17 KCAL/MOL
REMARK 923 INTER-LIGAND FREE ENERGY PREDICTED BY IDOCK:   -5.45 KCAL/MOL
REMARK 924 INTRA-LIGAND FREE ENERGY PREDICTED BY IDOCK:   -0.72 KCAL/MOL
REMARK 927      BINDING AFFINITY PREDICTED BY RF-SCORE:    0.00 PKD
ROOT
HETATM    1  C   UNL     1      -5.647  10.509  66.012  1.00  0.00    -0.097 C  
HETATM    2  O   UNL     1      -6.205   9.531  66.884  1.00  0.00    -0.063 OA 
ENDROOT
BRANCH   2   3
HETATM    3  C   UNL     1      -7.402  10.019  67.485  1.00  0.00    -0.090 C  
BRANCH   3   4
HETATM    4  C   UNL     1      -8.535   9.022  67.267  1.00  0.00    -0.114 C  
BRANCH   4   5
HETATM    5  C   UNL     1      -9.842   9.597  67.813  1.00  0.00    -0.192 C  
BRANCH   5   6
HETATM    6  C   UNL     1      -9.617  10.812  68.716  1.00  0.00    -0.194 C  
BRANCH   6   7
HETATM    7  C   UNL     1     -10.849  11.735  68.757  1.00  0.00    -0.227 C  
BRANCH   7   8
HETATM    8  C   UNL     1     -10.809  13.073  68.059  1.00  0.00    -0.261 A  
HETATM    9  C   UNL     1     -10.199  14.160  68.707  1.00  0.00    -0.216 A  
HETATM   10  C   UNL     1     -11.300  13.274  66.761  1.00  0.00    -0.359 A  
HETATM   11  F   UNL     1     -10.709  16.874  64.738  1.00  0.00    -0.283 F  
HETATM   12  F   UNL     1     -10.876  17.926  66.633  1.00  0.00    -0.302 F  
HETATM   13  C   UNL     1     -11.132  14.502  66.111  1.00  0.00    -0.334 A  
HETATM   14  F   UNL     1      -8.938  17.210  65.952  1.00  0.00    -0.261 F  
HETATM   15  C   UNL     1     -10.486  15.570  66.743  1.00  0.00    -0.295 A  
HETATM   16  C   UNL     1     -10.257  16.877  66.024  1.00  0.00    -0.336 C  
HETATM   17  C   UNL     1     -10.036  15.391  68.059  1.00  0.00    -0.226 A  
ENDBRANCH   7   8
BRANCH   7  18
HETATM   18  N   UNL     1     -11.928  11.418  69.424  1.00  0.00    -0.336 NA 
HETATM   19  H   UNL     1     -12.868  11.733  69.183  1.00  0.00     0.000 HD 
BRANCH  18  20
HETATM   20  O   UNL     1     -11.625  10.593  70.513  1.00  0.00    -0.315 OA 
BRANCH  20  21
HETATM   21  C   UNL     1     -12.822  10.074  71.093  1.00  0.00    -0.385 C  
BRANCH  21  22
HETATM   22  C   UNL     1     -12.516   8.630  71.508  1.00  0.00    -0.323 C  
HETATM   23  H2  UNL     1     -10.481   8.860  71.669  1.00  0.00     0.000 HD 
HETATM   24  H1  UNL     1     -10.939   7.254  71.514  1.00  0.00     0.000 HD 
HETATM   25  N   UNL     1     -11.142   8.214  71.238  1.00  0.00    -0.243 NA 
ENDBRANCH  21  22
ENDBRANCH  20  21
ENDBRANCH  18  20
ENDBRANCH   7  18
ENDBRANCH   6   7
ENDBRANCH   5   6
ENDBRANCH   4   5
ENDBRANCH   3   4
ENDBRANCH   2   3
TORSDOF 10
ENDMDL
MODEL      200
REMARK 921   NORMALIZED FREE ENERGY PREDICTED BY IDOCK:   -3.19 KCAL/MOL
REMARK 922        TOTAL FREE ENERGY PREDICTED BY IDOCK:   -6.15 KCAL/MOL
REMARK 923 INTER-LIGAND FREE ENERGY PREDICTED BY IDOCK:   -5.25 KCAL/MOL
REMARK 924 INTRA-LIGAND FREE ENERGY PREDICTED BY IDOCK:   -0.90 KCAL/MOL
REMARK 927      BINDING AFFINITY PREDICTED BY RF-SCORE:    0.00 PKD
ROOT
HETATM    1  C   UNL     1      -9.945  17.703  66.100  1.00  0.00    -0.272 C  
HETATM    2  O   UNL     1      -9.862  16.295  66.299  1.00  0.00    -0.273 OA 
ENDROOT
BRANCH   2   3
HETATM    3  C   UNL     1     -10.402  15.934  67.567  1.00  0.00    -0.283 C  
BRANCH   3   4
HETATM    4  C   UNL     1      -9.508  14.894  68.234  1.00  0.00    -0.210 C  
BRANCH   4   5
HETATM    5  C   UNL     1      -8.488  14.366  67.226  1.00  0.00    -0.229 C  
BRANCH   5   6
HETATM    6  C   UNL     1      -8.072  12.921  67.511  1.00  0.00    -0.181 C  
BRANCH   6   7
HETATM    7  C   UNL     1      -9.120  11.911  67.006  1.00  0.00    -0.191 C  
BRANCH   7   8
HETATM    8  C   UNL     1     -10.054  11.245  67.988  1.00  0.00    -0.192 A  
HETATM    9  C   UNL     1      -9.523  10.343  68.925  1.00  0.00    -0.190 A  
HETATM   10  C   UNL     1     -11.425  11.527  68.052  1.00  0.00    -0.381 A  
HETATM   11  F   UNL     1     -13.826  10.003  71.105  1.00  0.00    -0.331 F  
HETATM   12  F   UNL     1     -12.619   8.195  71.103  1.00  0.00    -0.309 F  
HETATM   13  C   UNL     1     -12.227  10.973  69.058  1.00  0.00    -0.167 A  
HETATM   14  F   UNL     1     -12.060   9.877  72.365  1.00  0.00    -0.258 F  
HETATM   15  C   UNL     1     -11.687  10.108  70.016  1.00  0.00    -0.294 A  
HETATM   16  C   UNL     1     -12.539   9.554  71.131  1.00  0.00    -0.301 C  
HETATM   17  C   UNL     1     -10.326   9.784  69.928  1.00  0.00    -0.291 A  
ENDBRANCH   7   8
BRANCH   7  18
HETATM   18  N   UNL     1      -9.201  11.569  65.747  1.00  0.00    -0.281 NA 
HETATM   19  H   UNL     1      -9.245  12.231  64.972  1.00  0.00     0.000 HD 
BRANCH  18  20
HETATM   20  O   UNL     1      -9.218  10.177  65.602  1.00  0.00    -0.166 OA 
BRANCH  20  21
HETATM   21  C   UNL     1      -7.936   9.703  65.194  1.00  0.00    -0.120 C  
BRANCH  21  22
HETATM   22  C   UNL     1      -8.183   8.672  64.086  1.00  0.00    -0.155 C  
HETATM   23  H2  UNL     1      -7.579   9.860  62.523  1.00  0.00     0.000 HD 
HETATM   24  H1  UNL     1      -8.532   8.573  62.025  1.00  0.00     0.000 HD 
HETATM   25  N   UNL     1      -8.367   9.259  62.762  1.00  0.00    -0.175 NA 
ENDBRANCH  21  22
ENDBRANCH  20  21
ENDBRANCH  18  20
ENDBRANCH   7  18
ENDBRANCH   6   7
ENDBRANCH   5   6
ENDBRANCH   4   5
ENDBRANCH   3   4
ENDBRANCH   2   3
TORSDOF 10
ENDMDL
MODEL      201
REMARK 921   NORMALIZED FREE ENERGY PREDICTED BY IDOCK:   -3.18 KCAL/MOL
REMARK 922        TOTAL FREE ENERGY PREDICTED BY IDOCK:   -6.14 KCAL/MOL
REMARK 923 INTER-LIGAND FREE ENERGY PREDICTED BY IDOCK:   -5.00 KCAL/MOL
REMARK 924 INTRA-LIGAND FREE ENERGY PREDICTED BY IDOCK:   -1.14 KCAL/MOL
REMARK 927      BINDING AFFINITY PREDICTED BY RF-SCORE:    0.00 PKD
ROOT
HETATM    1  C   UNL     1      -6.665   9.355  70.788  1.00  0.00    -0.105 C  
HETATM    2  O   UNL     1      -6.545   9.412  69.370  1.00  0.00    -0.043 OA 
ENDROOT
BRANCH   2   3
HETATM    3  C   UNL     1      -6.505  10.764  68.923  1.00  0.00    -0.047 C  
BRANCH   3   4
HETATM    4  C   UNL     1      -6.300  10.804  67.412  1.00  0.00    -0.059 C  
BRANCH   4   5
HETATM    5  C   UNL     1      -7.461  11.549  66.753  1.00  0.00    -0.118 C  
BRANCH   5   6
HETATM    6  C   UNL     1      -8.193  10.697  65.714  1.00  0.00    -0.161 C  
BRANCH   6   7
HETATM    7  C   UNL     1      -9.655  10.428  66.116  1.00  0.00    -0.196 C  
BRANCH   7   8
HETATM    8  C   UNL     1      -9.960   9.457  67.231  1.00  0.00    -0.252 A  
HETATM    9  C   UNL     1      -9.978   9.926  68.555  1.00  0.00    -0.175 A  
HETATM   10  C   UNL     1     -10.288   8.112  67.006  1.00  0.00    -0.403 A  
HETATM   11  F   UNL     1     -11.583   5.635  70.103  1.00  0.00    -0.281 F  
HETATM   12  F   UNL     1     -10.257   6.696  71.459  1.00  0.00    -0.201 F  
HETATM   13  C   UNL     1     -10.680   7.282  68.063  1.00  0.00    -0.209 A  
HETATM   14  F   UNL     1     -12.292   7.400  71.154  1.00  0.00    -0.328 F  
HETATM   15  C   UNL     1     -10.738   7.762  69.376  1.00  0.00    -0.177 A  
HETATM   16  C   UNL     1     -11.211   6.883  70.507  1.00  0.00    -0.307 C  
HETATM   17  C   UNL     1     -10.364   9.093  69.614  1.00  0.00    -0.226 A  
ENDBRANCH   7   8
BRANCH   7  18
HETATM   18  N   UNL     1     -10.658  10.983  65.488  1.00  0.00    -0.234 NA 
HETATM   19  H   UNL     1     -10.848  10.870  64.492  1.00  0.00     0.000 HD 
BRANCH  18  20
HETATM   20  O   UNL     1     -11.437  11.753  66.360  1.00  0.00    -0.380 OA 
BRANCH  20  21
HETATM   21  C   UNL     1     -12.009  12.862  65.669  1.00  0.00    -0.440 C  
BRANCH  21  22
HETATM   22  C   UNL     1     -10.858  13.562  64.938  1.00  0.00    -0.362 C  
HETATM   23  H2  UNL     1      -9.490  13.415  66.463  1.00  0.00     0.000 HD 
HETATM   24  H1  UNL     1      -9.082  14.594  65.342  1.00  0.00     0.000 HD 
HETATM   25  N   UNL     1      -9.848  14.128  65.829  1.00  0.00    -0.298 NA 
ENDBRANCH  21  22
ENDBRANCH  20  21
ENDBRANCH  18  20
ENDBRANCH   7  18
ENDBRANCH   6   7
ENDBRANCH   5   6
ENDBRANCH   4   5
ENDBRANCH   3   4
ENDBRANCH   2   3
TORSDOF 10
ENDMDL
MODEL      202
REMARK 921   NORMALIZED FREE ENERGY PREDICTED BY IDOCK:   -3.17 KCAL/MOL
REMARK 922        TOTAL FREE ENERGY PREDICTED BY IDOCK:   -6.13 KCAL/MOL
REMARK 923 INTER-LIGAND FREE ENERGY PREDICTED BY IDOCK:   -5.37 KCAL/MOL
REMARK 924 INTRA-LIGAND FREE ENERGY PREDICTED BY IDOCK:   -0.76 KCAL/MOL
REMARK 927      BINDING AFFINITY PREDICTED BY RF-SCORE:    0.00 PKD
ROOT
HETATM    1  C   UNL     1      -9.371   3.900  64.092  1.00  0.00    -0.150 C  
HETATM    2  O   UNL     1      -9.765   3.696  65.445  1.00  0.00    -0.172 OA 
ENDROOT
BRANCH   2   3
HETATM    3  C   UNL     1     -10.444   4.843  65.949  1.00  0.00    -0.239 C  
BRANCH   3   4
HETATM    4  C   UNL     1      -9.919   5.189  67.339  1.00  0.00    -0.215 C  
BRANCH   4   5
HETATM    5  C   UNL     1     -10.782   6.287  67.959  1.00  0.00    -0.369 C  
BRANCH   5   6
HETATM    6  C   UNL     1      -9.970   7.261  68.814  1.00  0.00    -0.167 C  
BRANCH   6   7
HETATM    7  C   UNL     1     -10.824   8.444  69.309  1.00  0.00    -0.054 C  
BRANCH   7   8
HETATM    8  C   UNL     1     -10.468   9.852  68.894  1.00  0.00    -0.229 A  
HETATM    9  C   UNL     1     -11.495  10.720  68.488  1.00  0.00    -0.362 A  
HETATM   10  C   UNL     1      -9.163  10.359  68.951  1.00  0.00    -0.179 A  
HETATM   11  F   UNL     1      -8.358  14.392  68.249  1.00  0.00    -0.131 F  
HETATM   12  F   UNL     1      -9.964  14.421  66.785  1.00  0.00    -0.241 F  
HETATM   13  C   UNL     1      -8.903  11.706  68.671  1.00  0.00    -0.084 A  
HETATM   14  F   UNL     1     -10.387  14.856  68.874  1.00  0.00    -0.214 F  
HETATM   15  C   UNL     1      -9.933  12.580  68.307  1.00  0.00    -0.229 A  
HETATM   16  C   UNL     1      -9.661  14.043  68.057  1.00  0.00    -0.221 C  
HETATM   17  C   UNL     1     -11.234  12.066  68.201  1.00  0.00    -0.316 A  
ENDBRANCH   7   8
BRANCH   7  18
HETATM   18  N   UNL     1     -11.832   8.276  70.123  1.00  0.00    -0.396 NA 
HETATM   19  H   UNL     1     -12.731   8.752  70.034  1.00  0.00     0.000 HD 
BRANCH  18  20
HETATM   20  O   UNL     1     -11.519   7.359  71.133  1.00  0.00    -0.265 OA 
BRANCH  20  21
HETATM   21  C   UNL     1     -12.704   6.933  71.805  1.00  0.00    -0.327 C  
BRANCH  21  22
HETATM   22  C   UNL     1     -13.699   8.096  71.714  1.00  0.00    -0.374 C  
HETATM   23  H2  UNL     1     -12.372   9.580  72.220  1.00  0.00     0.000 HD 
HETATM   24  H1  UNL     1     -13.969  10.046  72.425  1.00  0.00     0.000 HD 
HETATM   25  N   UNL     1     -13.307   9.272  72.485  1.00  0.00    -0.442 NA 
ENDBRANCH  21  22
ENDBRANCH  20  21
ENDBRANCH  18  20
ENDBRANCH   7  18
ENDBRANCH   6   7
ENDBRANCH   5   6
ENDBRANCH   4   5
ENDBRANCH   3   4
ENDBRANCH   2   3
TORSDOF 10
ENDMDL
MODEL      203
REMARK 921   NORMALIZED FREE ENERGY PREDICTED BY IDOCK:   -3.17 KCAL/MOL
REMARK 922        TOTAL FREE ENERGY PREDICTED BY IDOCK:   -6.13 KCAL/MOL
REMARK 923 INTER-LIGAND FREE ENERGY PREDICTED BY IDOCK:   -5.43 KCAL/MOL
REMARK 924 INTRA-LIGAND FREE ENERGY PREDICTED BY IDOCK:   -0.70 KCAL/MOL
REMARK 927      BINDING AFFINITY PREDICTED BY RF-SCORE:    0.00 PKD
ROOT
HETATM    1  C   UNL     1      -9.299  14.865  66.478  1.00  0.00    -0.282 C  
HETATM    2  O   UNL     1      -8.965  13.697  67.221  1.00  0.00    -0.204 OA 
ENDROOT
BRANCH   2   3
HETATM    3  C   UNL     1      -7.605  13.744  67.645  1.00  0.00    -0.181 C  
BRANCH   3   4
HETATM    4  C   UNL     1      -7.391  12.781  68.808  1.00  0.00    -0.067 C  
BRANCH   4   5
HETATM    5  C   UNL     1      -7.206  11.360  68.276  1.00  0.00    -0.082 C  
BRANCH   5   6
HETATM    6  C   UNL     1      -6.848  10.361  69.378  1.00  0.00    -0.083 C  
BRANCH   6   7
HETATM    7  C   UNL     1      -7.850   9.194  69.445  1.00  0.00    -0.095 C  
BRANCH   7   8
HETATM    8  C   UNL     1      -9.165   9.374  70.165  1.00  0.00    -0.268 A  
HETATM    9  C   UNL     1     -10.145  10.202  69.592  1.00  0.00    -0.265 A  
HETATM   10  C   UNL     1      -9.484   8.705  71.355  1.00  0.00    -0.306 A  
HETATM   11  F   UNL     1     -13.311   8.893  73.005  1.00  0.00    -0.445 F  
HETATM   12  F   UNL     1     -13.481  10.939  72.289  1.00  0.00    -0.538 F  
HETATM   13  C   UNL     1     -10.761   8.812  71.920  1.00  0.00    -0.429 A  
HETATM   14  F   UNL     1     -14.097   9.285  71.017  1.00  0.00    -0.384 F  
HETATM   15  C   UNL     1     -11.749   9.604  71.325  1.00  0.00    -0.458 A  
HETATM   16  C   UNL     1     -13.140   9.678  71.904  1.00  0.00    -0.436 C  
HETATM   17  C   UNL     1     -11.420  10.315  70.161  1.00  0.00    -0.383 A  
ENDBRANCH   7   8
BRANCH   7  18
HETATM   18  N   UNL     1      -7.581   8.021  68.935  1.00  0.00    -0.097 NA 
HETATM   19  H   UNL     1      -7.129   7.261  69.444  1.00  0.00     0.000 HD 
BRANCH  18  20
HETATM   20  O   UNL     1      -7.993   7.944  67.599  1.00  0.00    -0.119 OA 
BRANCH  20  21
HETATM   21  C   UNL     1      -9.135   7.097  67.479  1.00  0.00    -0.123 C  
BRANCH  21  22
HETATM   22  C   UNL     1      -9.225   6.692  66.003  1.00  0.00    -0.033 C  
HETATM   23  H2  UNL     1      -9.589   4.697  66.329  1.00  0.00     0.000 HD 
HETATM   24  H1  UNL     1      -9.030   5.005  64.779  1.00  0.00     0.000 HD 
HETATM   25  N   UNL     1      -8.970   5.275  65.761  1.00  0.00    -0.151 NA 
ENDBRANCH  21  22
ENDBRANCH  20  21
ENDBRANCH  18  20
ENDBRANCH   7  18
ENDBRANCH   6   7
ENDBRANCH   5   6
ENDBRANCH   4   5
ENDBRANCH   3   4
ENDBRANCH   2   3
TORSDOF 10
ENDMDL
MODEL      204
REMARK 921   NORMALIZED FREE ENERGY PREDICTED BY IDOCK:   -3.17 KCAL/MOL
REMARK 922        TOTAL FREE ENERGY PREDICTED BY IDOCK:   -6.12 KCAL/MOL
REMARK 923 INTER-LIGAND FREE ENERGY PREDICTED BY IDOCK:   -5.68 KCAL/MOL
REMARK 924 INTRA-LIGAND FREE ENERGY PREDICTED BY IDOCK:   -0.44 KCAL/MOL
REMARK 927      BINDING AFFINITY PREDICTED BY RF-SCORE:    0.00 PKD
ROOT
HETATM    1  C   UNL     1      -9.568   8.902  71.952  1.00  0.00    -0.256 C  
HETATM    2  O   UNL     1     -10.484   7.839  71.711  1.00  0.00    -0.208 OA 
ENDROOT
BRANCH   2   3
HETATM    3  C   UNL     1      -9.797   6.593  71.630  1.00  0.00    -0.166 C  
BRANCH   3   4
HETATM    4  C   UNL     1     -10.706   5.539  71.005  1.00  0.00    -0.275 C  
BRANCH   4   5
HETATM    5  C   UNL     1     -11.194   6.022  69.639  1.00  0.00    -0.428 C  
BRANCH   5   6
HETATM    6  C   UNL     1     -10.256   5.612  68.502  1.00  0.00    -0.253 C  
BRANCH   6   7
HETATM    7  C   UNL     1     -10.560   6.378  67.200  1.00  0.00    -0.321 C  
BRANCH   7   8
HETATM    8  C   UNL     1     -10.426   7.881  67.165  1.00  0.00    -0.414 A  
HETATM    9  C   UNL     1     -10.023   8.499  65.969  1.00  0.00    -0.035 A  
HETATM   10  C   UNL     1     -10.743   8.704  68.255  1.00  0.00    -0.107 A  
HETATM   11  F   UNL     1     -10.802  12.861  67.906  1.00  0.00    -0.216 F  
HETATM   12  F   UNL     1      -9.153  12.731  66.497  1.00  0.00    -0.221 F  
HETATM   13  C   UNL     1     -10.717  10.099  68.134  1.00  0.00    -0.285 A  
HETATM   14  F   UNL     1     -11.205  12.629  65.783  1.00  0.00    -0.304 F  
HETATM   15  C   UNL     1     -10.356  10.712  66.930  1.00  0.00    -0.288 A  
HETATM   16  C   UNL     1     -10.379  12.214  66.784  1.00  0.00    -0.213 C  
HETATM   17  C   UNL     1      -9.991   9.894  65.850  1.00  0.00    -0.347 A  
ENDBRANCH   7   8
BRANCH   7  18
HETATM   18  N   UNL     1     -10.983   5.769  66.123  1.00  0.00    -0.703 NA 
HETATM   19  H   UNL     1     -11.589   6.195  65.421  1.00  0.00     0.000 HD 
BRANCH  18  20
HETATM   20  O   UNL     1     -10.494   4.459  66.058  1.00  0.00    -0.242 OA 
BRANCH  20  21
HETATM   21  C   UNL     1     -10.186   4.109  64.709  1.00  0.00    -0.195 C  
BRANCH  21  22
HETATM   22  C   UNL     1      -8.658   4.148  64.586  1.00  0.00    -0.120 C  
HETATM   23  H2  UNL     1      -8.530   2.973  62.906  1.00  0.00     0.000 HD 
HETATM   24  H1  UNL     1      -7.081   3.058  63.745  1.00  0.00     0.000 HD 
HETATM   25  N   UNL     1      -8.097   3.033  63.827  1.00  0.00    -0.081 NA 
ENDBRANCH  21  22
ENDBRANCH  20  21
ENDBRANCH  18  20
ENDBRANCH   7  18
ENDBRANCH   6   7
ENDBRANCH   5   6
ENDBRANCH   4   5
ENDBRANCH   3   4
ENDBRANCH   2   3
TORSDOF 10
ENDMDL
MODEL      205
REMARK 921   NORMALIZED FREE ENERGY PREDICTED BY IDOCK:   -3.16 KCAL/MOL
REMARK 922        TOTAL FREE ENERGY PREDICTED BY IDOCK:   -6.11 KCAL/MOL
REMARK 923 INTER-LIGAND FREE ENERGY PREDICTED BY IDOCK:   -4.77 KCAL/MOL
REMARK 924 INTRA-LIGAND FREE ENERGY PREDICTED BY IDOCK:   -1.34 KCAL/MOL
REMARK 927      BINDING AFFINITY PREDICTED BY RF-SCORE:    0.00 PKD
ROOT
HETATM    1  C   UNL     1      -9.486   3.617  64.335  1.00  0.00    -0.154 C  
HETATM    2  O   UNL     1      -9.549   4.716  65.238  1.00  0.00    -0.166 OA 
ENDROOT
BRANCH   2   3
HETATM    3  C   UNL     1      -8.291   4.915  65.877  1.00  0.00    -0.114 C  
BRANCH   3   4
HETATM    4  C   UNL     1      -8.124   3.914  67.017  1.00  0.00    -0.096 C  
BRANCH   4   5
HETATM    5  C   UNL     1      -8.275   4.631  68.359  1.00  0.00    -0.083 C  
BRANCH   5   6
HETATM    6  C   UNL     1      -9.689   4.513  68.932  1.00  0.00    -0.224 C  
BRANCH   6   7
HETATM    7  C   UNL     1     -10.234   5.874  69.404  1.00  0.00    -0.221 C  
BRANCH   7   8
HETATM    8  C   UNL     1     -10.003   7.107  68.563  1.00  0.00    -0.163 A  
HETATM    9  C   UNL     1      -9.099   8.080  69.020  1.00  0.00    -0.144 A  
HETATM   10  C   UNL     1     -10.604   7.304  67.312  1.00  0.00    -0.395 A  
HETATM   11  F   UNL     1      -9.533  10.503  64.858  1.00  0.00    -0.208 F  
HETATM   12  F   UNL     1      -9.228  11.718  66.634  1.00  0.00    -0.175 F  
HETATM   13  C   UNL     1     -10.266   8.406  66.518  1.00  0.00    -0.277 A  
HETATM   14  F   UNL     1      -7.590  10.535  65.829  1.00  0.00    -0.130 F  
HETATM   15  C   UNL     1      -9.333   9.352  66.957  1.00  0.00    -0.185 A  
HETATM   16  C   UNL     1      -8.929  10.511  66.079  1.00  0.00    -0.167 C  
HETATM   17  C   UNL     1      -8.765   9.187  68.228  1.00  0.00    -0.129 A  
ENDBRANCH   7   8
BRANCH   7  18
HETATM   18  N   UNL     1     -10.857   6.012  70.545  1.00  0.00    -0.294 NA 
HETATM   19  H   UNL     1     -10.508   5.663  71.438  1.00  0.00     0.000 HD 
BRANCH  18  20
HETATM   20  O   UNL     1     -12.066   6.699  70.380  1.00  0.00    -0.374 OA 
BRANCH  20  21
HETATM   21  C   UNL     1     -12.703   6.894  71.642  1.00  0.00    -0.352 C  
BRANCH  21  22
HETATM   22  C   UNL     1     -12.203   8.240  72.180  1.00  0.00    -0.364 C  
HETATM   23  H2  UNL     1     -10.199   7.860  71.933  1.00  0.00     0.000 HD 
HETATM   24  H1  UNL     1     -10.490   9.105  73.018  1.00  0.00     0.000 HD 
HETATM   25  N   UNL     1     -10.823   8.210  72.660  1.00  0.00    -0.359 NA 
ENDBRANCH  21  22
ENDBRANCH  20  21
ENDBRANCH  18  20
ENDBRANCH   7  18
ENDBRANCH   6   7
ENDBRANCH   5   6
ENDBRANCH   4   5
ENDBRANCH   3   4
ENDBRANCH   2   3
TORSDOF 10
ENDMDL
MODEL      206
REMARK 921   NORMALIZED FREE ENERGY PREDICTED BY IDOCK:   -3.16 KCAL/MOL
REMARK 922        TOTAL FREE ENERGY PREDICTED BY IDOCK:   -6.11 KCAL/MOL
REMARK 923 INTER-LIGAND FREE ENERGY PREDICTED BY IDOCK:   -5.42 KCAL/MOL
REMARK 924 INTRA-LIGAND FREE ENERGY PREDICTED BY IDOCK:   -0.69 KCAL/MOL
REMARK 927      BINDING AFFINITY PREDICTED BY RF-SCORE:    0.00 PKD
ROOT
HETATM    1  C   UNL     1     -10.571   6.978  73.461  1.00  0.00    -0.368 C  
HETATM    2  O   UNL     1     -11.639   7.417  72.627  1.00  0.00    -0.299 OA 
ENDROOT
BRANCH   2   3
HETATM    3  C   UNL     1     -11.141   7.874  71.372  1.00  0.00    -0.243 C  
BRANCH   3   4
HETATM    4  C   UNL     1     -10.196   9.052  71.586  1.00  0.00    -0.418 C  
BRANCH   4   5
HETATM    5  C   UNL     1      -9.310   9.234  70.353  1.00  0.00    -0.295 C  
BRANCH   5   6
HETATM    6  C   UNL     1      -9.630   8.227  69.246  1.00  0.00    -0.164 C  
BRANCH   6   7
HETATM    7  C   UNL     1      -9.481   8.848  67.844  1.00  0.00    -0.142 C  
BRANCH   7   8
HETATM    8  C   UNL     1      -9.971  10.253  67.589  1.00  0.00    -0.212 A  
HETATM    9  C   UNL     1      -9.097  11.179  66.994  1.00  0.00    -0.158 A  
HETATM   10  C   UNL     1     -11.282  10.668  67.862  1.00  0.00    -0.376 A  
HETATM   11  F   UNL     1     -12.675  14.418  66.679  1.00  0.00    -0.415 F  
HETATM   12  F   UNL     1     -10.691  15.230  67.039  1.00  0.00    -0.286 F  
HETATM   13  C   UNL     1     -11.722  11.946  67.497  1.00  0.00    -0.335 A  
HETATM   14  F   UNL     1     -11.195  14.412  65.087  1.00  0.00    -0.307 F  
HETATM   15  C   UNL     1     -10.863  12.852  66.866  1.00  0.00    -0.278 A  
HETATM   16  C   UNL     1     -11.352  14.210  66.425  1.00  0.00    -0.338 C  
HETATM   17  C   UNL     1      -9.536  12.460  66.635  1.00  0.00    -0.230 A  
ENDBRANCH   7   8
BRANCH   7  18
HETATM   18  N   UNL     1      -8.981   8.176  66.840  1.00  0.00    -0.135 NA 
HETATM   19  H   UNL     1      -8.471   8.596  66.062  1.00  0.00     0.000 HD 
BRANCH  18  20
HETATM   20  O   UNL     1      -9.237   6.806  66.971  1.00  0.00    -0.129 OA 
BRANCH  20  21
HETATM   21  C   UNL     1      -8.020   6.064  66.910  1.00  0.00    -0.102 C  
BRANCH  21  22
HETATM   22  C   UNL     1      -8.387   4.662  66.412  1.00  0.00    -0.106 C  
HETATM   23  H2  UNL     1      -6.734   4.397  65.221  1.00  0.00     0.000 HD 
HETATM   24  H1  UNL     1      -7.990   3.361  64.820  1.00  0.00     0.000 HD 
HETATM   25  N   UNL     1      -7.746   4.294  65.152  1.00  0.00    -0.084 NA 
ENDBRANCH  21  22
ENDBRANCH  20  21
ENDBRANCH  18  20
ENDBRANCH   7  18
ENDBRANCH   6   7
ENDBRANCH   5   6
ENDBRANCH   4   5
ENDBRANCH   3   4
ENDBRANCH   2   3
TORSDOF 10
ENDMDL
MODEL      207
REMARK 921   NORMALIZED FREE ENERGY PREDICTED BY IDOCK:   -3.14 KCAL/MOL
REMARK 922        TOTAL FREE ENERGY PREDICTED BY IDOCK:   -6.09 KCAL/MOL
REMARK 923 INTER-LIGAND FREE ENERGY PREDICTED BY IDOCK:   -5.37 KCAL/MOL
REMARK 924 INTRA-LIGAND FREE ENERGY PREDICTED BY IDOCK:   -0.72 KCAL/MOL
REMARK 927      BINDING AFFINITY PREDICTED BY RF-SCORE:    0.00 PKD
ROOT
HETATM    1  C   UNL     1     -12.648  14.048  70.294  1.00  0.00    -0.291 C  
HETATM    2  O   UNL     1     -12.103  14.424  69.033  1.00  0.00    -0.312 OA 
ENDROOT
BRANCH   2   3
HETATM    3  C   UNL     1     -11.637  15.770  69.068  1.00  0.00    -0.400 C  
BRANCH   3   4
HETATM    4  C   UNL     1     -10.373  15.903  68.225  1.00  0.00    -0.242 C  
BRANCH   4   5
HETATM    5  C   UNL     1      -9.586  14.593  68.263  1.00  0.00    -0.208 C  
BRANCH   5   6
HETATM    6  C   UNL     1      -9.399  13.979  66.874  1.00  0.00    -0.266 C  
BRANCH   6   7
HETATM    7  C   UNL     1     -10.079  12.602  66.757  1.00  0.00    -0.237 C  
BRANCH   7   8
HETATM    8  C   UNL     1      -9.486  11.546  65.854  1.00  0.00    -0.251 A  
HETATM    9  C   UNL     1      -8.414  10.773  66.328  1.00  0.00    -0.161 A  
HETATM   10  C   UNL     1      -9.994  11.256  64.580  1.00  0.00    -0.331 A  
HETATM   11  F   UNL     1      -8.600   8.006  62.366  1.00  0.00    -0.176 F  
HETATM   12  F   UNL     1      -6.620   8.330  63.204  1.00  0.00    -0.081 F  
HETATM   13  C   UNL     1      -9.486  10.188  63.831  1.00  0.00    -0.332 A  
HETATM   14  F   UNL     1      -8.040   7.039  64.229  1.00  0.00    -0.128 F  
HETATM   15  C   UNL     1      -8.446   9.392  64.322  1.00  0.00    -0.198 A  
HETATM   16  C   UNL     1      -7.935   8.208  63.538  1.00  0.00    -0.145 C  
HETATM   17  C   UNL     1      -7.901   9.708  65.576  1.00  0.00    -0.111 A  
ENDBRANCH   7   8
BRANCH   7  18
HETATM   18  N   UNL     1     -11.194  12.326  67.382  1.00  0.00    -0.281 NA 
HETATM   19  H   UNL     1     -12.003  12.947  67.419  1.00  0.00     0.000 HD 
BRANCH  18  20
HETATM   20  O   UNL     1     -11.132  11.069  67.993  1.00  0.00    -0.240 OA 
BRANCH  20  21
HETATM   21  C   UNL     1     -12.011  11.017  69.116  1.00  0.00    -0.324 C  
BRANCH  21  22
HETATM   22  C   UNL     1     -11.378  10.050  70.123  1.00  0.00    -0.291 C  
HETATM   23  H2  UNL     1     -12.964  10.000  71.427  1.00  0.00     0.000 HD 
HETATM   24  H1  UNL     1     -11.533   9.487  72.133  1.00  0.00     0.000 HD 
HETATM   25  N   UNL     1     -11.954  10.130  71.463  1.00  0.00    -0.359 NA 
ENDBRANCH  21  22
ENDBRANCH  20  21
ENDBRANCH  18  20
ENDBRANCH   7  18
ENDBRANCH   6   7
ENDBRANCH   5   6
ENDBRANCH   4   5
ENDBRANCH   3   4
ENDBRANCH   2   3
TORSDOF 10
ENDMDL
MODEL      208
REMARK 921   NORMALIZED FREE ENERGY PREDICTED BY IDOCK:   -3.14 KCAL/MOL
REMARK 922        TOTAL FREE ENERGY PREDICTED BY IDOCK:   -6.08 KCAL/MOL
REMARK 923 INTER-LIGAND FREE ENERGY PREDICTED BY IDOCK:   -5.20 KCAL/MOL
REMARK 924 INTRA-LIGAND FREE ENERGY PREDICTED BY IDOCK:   -0.89 KCAL/MOL
REMARK 927      BINDING AFFINITY PREDICTED BY RF-SCORE:    0.00 PKD
ROOT
HETATM    1  C   UNL     1     -12.591  14.581  65.276  1.00  0.00    -0.235 C  
HETATM    2  O   UNL     1     -11.631  14.538  64.226  1.00  0.00    -0.331 OA 
ENDROOT
BRANCH   2   3
HETATM    3  C   UNL     1     -10.568  13.647  64.553  1.00  0.00    -0.411 C  
BRANCH   3   4
HETATM    4  C   UNL     1     -10.694  12.366  63.735  1.00  0.00    -0.492 C  
BRANCH   4   5
HETATM    5  C   UNL     1     -10.747  11.159  64.671  1.00  0.00    -0.350 C  
BRANCH   5   6
HETATM    6  C   UNL     1      -9.356  10.655  65.062  1.00  0.00    -0.259 C  
BRANCH   6   7
HETATM    7  C   UNL     1      -9.207  10.503  66.588  1.00  0.00    -0.156 C  
BRANCH   7   8
HETATM    8  C   UNL     1      -9.978  11.415  67.512  1.00  0.00    -0.201 A  
HETATM    9  C   UNL     1     -11.269  11.037  67.918  1.00  0.00    -0.375 A  
HETATM   10  C   UNL     1      -9.445  12.601  68.037  1.00  0.00    -0.209 A  
HETATM   11  F   UNL     1     -11.464  14.797  70.953  1.00  0.00    -0.304 F  
HETATM   12  F   UNL     1     -13.347  14.227  70.029  1.00  0.00    -0.108 F  
HETATM   13  C   UNL     1     -10.154  13.350  68.984  1.00  0.00     0.100 A  
HETATM   14  F   UNL     1     -12.464  12.969  71.569  1.00  0.00    -0.396 F  
HETATM   15  C   UNL     1     -11.421  12.949  69.419  1.00  0.00    -0.323 A  
HETATM   16  C   UNL     1     -12.163  13.728  70.478  1.00  0.00    -0.369 C  
HETATM   17  C   UNL     1     -11.981  11.790  68.861  1.00  0.00    -0.332 A  
ENDBRANCH   7   8
BRANCH   7  18
HETATM   18  N   UNL     1      -8.390   9.632  67.119  1.00  0.00    -0.120 NA 
HETATM   19  H   UNL     1      -8.656   8.686  67.394  1.00  0.00     0.000 HD 
BRANCH  18  20
HETATM   20  O   UNL     1      -7.105  10.167  67.263  1.00  0.00    -0.086 OA 
BRANCH  20  21
HETATM   21  C   UNL     1      -6.405   9.505  68.316  1.00  0.00    -0.053 C  
BRANCH  21  22
HETATM   22  C   UNL     1      -7.046   9.972  69.628  1.00  0.00    -0.104 C  
HETATM   23  H2  UNL     1      -5.310  10.040  70.724  1.00  0.00     0.000 HD 
HETATM   24  H1  UNL     1      -6.679   9.976  71.689  1.00  0.00     0.000 HD 
HETATM   25  N   UNL     1      -6.253   9.665  70.816  1.00  0.00    -0.083 NA 
ENDBRANCH  21  22
ENDBRANCH  20  21
ENDBRANCH  18  20
ENDBRANCH   7  18
ENDBRANCH   6   7
ENDBRANCH   5   6
ENDBRANCH   4   5
ENDBRANCH   3   4
ENDBRANCH   2   3
TORSDOF 10
ENDMDL
MODEL      209
REMARK 921   NORMALIZED FREE ENERGY PREDICTED BY IDOCK:   -3.13 KCAL/MOL
REMARK 922        TOTAL FREE ENERGY PREDICTED BY IDOCK:   -6.07 KCAL/MOL
REMARK 923 INTER-LIGAND FREE ENERGY PREDICTED BY IDOCK:   -4.97 KCAL/MOL
REMARK 924 INTRA-LIGAND FREE ENERGY PREDICTED BY IDOCK:   -1.10 KCAL/MOL
REMARK 927      BINDING AFFINITY PREDICTED BY RF-SCORE:    0.00 PKD
ROOT
HETATM    1  C   UNL     1      -7.600   6.728  69.936  1.00  0.00    -0.100 C  
HETATM    2  O   UNL     1      -7.820   8.061  70.385  1.00  0.00    -0.087 OA 
ENDROOT
BRANCH   2   3
HETATM    3  C   UNL     1      -9.208   8.382  70.344  1.00  0.00    -0.153 C  
BRANCH   3   4
HETATM    4  C   UNL     1      -9.394   9.822  69.876  1.00  0.00    -0.262 C  
BRANCH   4   5
HETATM    5  C   UNL     1      -8.646  10.038  68.561  1.00  0.00    -0.119 C  
BRANCH   5   6
HETATM    6  C   UNL     1      -7.802  11.314  68.568  1.00  0.00    -0.138 C  
BRANCH   6   7
HETATM    7  C   UNL     1      -8.667  12.578  68.402  1.00  0.00    -0.122 C  
BRANCH   7   8
HETATM    8  C   UNL     1      -9.659  12.664  67.266  1.00  0.00    -0.203 A  
HETATM    9  C   UNL     1      -9.180  12.844  65.958  1.00  0.00     0.045 A  
HETATM   10  C   UNL     1     -11.041  12.513  67.444  1.00  0.00    -0.317 A  
HETATM   11  F   UNL     1     -13.647  12.285  64.195  1.00  0.00    -0.224 F  
HETATM   12  F   UNL     1     -12.372  13.678  63.119  1.00  0.00    -0.579 F  
HETATM   13  C   UNL     1     -11.909  12.482  66.345  1.00  0.00    -0.445 A  
HETATM   14  F   UNL     1     -12.002  11.538  62.989  1.00  0.00    -0.422 F  
HETATM   15  C   UNL     1     -11.424  12.619  65.040  1.00  0.00    -0.366 A  
HETATM   16  C   UNL     1     -12.352  12.531  63.853  1.00  0.00    -0.485 C  
HETATM   17  C   UNL     1     -10.048  12.819  64.859  1.00  0.00    -0.235 A  
ENDBRANCH   7   8
BRANCH   7  18
HETATM   18  N   UNL     1      -8.540  13.612  69.190  1.00  0.00    -0.244 NA 
HETATM   19  H   UNL     1      -8.750  13.605  70.189  1.00  0.00     0.000 HD 
BRANCH  18  20
HETATM   20  O   UNL     1      -8.078  14.730  68.487  1.00  0.00    -0.133 OA 
BRANCH  20  21
HETATM   21  C   UNL     1      -6.687  14.596  68.197  1.00  0.00    -0.131 C  
BRANCH  21  22
HETATM   22  C   UNL     1      -5.935  15.325  69.316  1.00  0.00    -0.104 C  
HETATM   23  H2  UNL     1      -5.876  13.744  70.626  1.00  0.00     0.000 HD 
HETATM   24  H1  UNL     1      -5.621  15.218  71.383  1.00  0.00     0.000 HD 
HETATM   25  N   UNL     1      -6.122  14.733  70.638  1.00  0.00    -0.147 NA 
ENDBRANCH  21  22
ENDBRANCH  20  21
ENDBRANCH  18  20
ENDBRANCH   7  18
ENDBRANCH   6   7
ENDBRANCH   5   6
ENDBRANCH   4   5
ENDBRANCH   3   4
ENDBRANCH   2   3
TORSDOF 10
ENDMDL
MODEL      210
REMARK 921   NORMALIZED FREE ENERGY PREDICTED BY IDOCK:   -3.12 KCAL/MOL
REMARK 922        TOTAL FREE ENERGY PREDICTED BY IDOCK:   -6.05 KCAL/MOL
REMARK 923 INTER-LIGAND FREE ENERGY PREDICTED BY IDOCK:   -5.00 KCAL/MOL
REMARK 924 INTRA-LIGAND FREE ENERGY PREDICTED BY IDOCK:   -1.05 KCAL/MOL
REMARK 927      BINDING AFFINITY PREDICTED BY RF-SCORE:    0.00 PKD
ROOT
HETATM    1  C   UNL     1     -11.366  14.944  67.270  1.00  0.00    -0.349 C  
HETATM    2  O   UNL     1     -12.059  14.550  68.450  1.00  0.00    -0.302 OA 
ENDROOT
BRANCH   2   3
HETATM    3  C   UNL     1     -11.504  13.352  68.984  1.00  0.00    -0.301 C  
BRANCH   3   4
HETATM    4  C   UNL     1     -10.938  12.495  67.856  1.00  0.00    -0.262 C  
BRANCH   4   5
HETATM    5  C   UNL     1     -11.620  11.127  67.855  1.00  0.00    -0.328 C  
BRANCH   5   6
HETATM    6  C   UNL     1     -10.899  10.111  66.965  1.00  0.00    -0.221 C  
BRANCH   6   7
HETATM    7  C   UNL     1      -9.691   9.476  67.679  1.00  0.00    -0.154 C  
BRANCH   7   8
HETATM    8  C   UNL     1      -9.824   9.010  69.109  1.00  0.00    -0.175 A  
HETATM    9  C   UNL     1     -10.768   8.016  69.414  1.00  0.00    -0.167 A  
HETATM   10  C   UNL     1      -9.005   9.479  70.146  1.00  0.00    -0.269 A  
HETATM   11  F   UNL     1      -9.124   7.783  73.955  1.00  0.00    -0.281 F  
HETATM   12  F   UNL     1     -11.257   7.448  73.701  1.00  0.00    -0.345 F  
HETATM   13  C   UNL     1      -9.087   8.929  71.431  1.00  0.00    -0.318 A  
HETATM   14  F   UNL     1      -9.832   5.935  73.058  1.00  0.00    -0.162 F  
HETATM   15  C   UNL     1      -9.999   7.909  71.722  1.00  0.00    -0.228 A  
HETATM   16  C   UNL     1     -10.050   7.279  73.092  1.00  0.00    -0.273 C  
HETATM   17  C   UNL     1     -10.854   7.470  70.701  1.00  0.00    -0.251 A  
ENDBRANCH   7   8
BRANCH   7  18
HETATM   18  N   UNL     1      -8.524   9.367  67.099  1.00  0.00    -0.127 NA 
HETATM   19  H   UNL     1      -7.631   9.509  67.571  1.00  0.00     0.000 HD 
BRANCH  18  20
HETATM   20  O   UNL     1      -8.661   9.033  65.747  1.00  0.00    -0.148 OA 
BRANCH  20  21
HETATM   21  C   UNL     1      -7.405   8.628  65.205  1.00  0.00    -0.088 C  
BRANCH  21  22
HETATM   22  C   UNL     1      -6.714   9.901  64.704  1.00  0.00    -0.123 C  
HETATM   23  H2  UNL     1      -5.369  10.060  66.248  1.00  0.00     0.000 HD 
HETATM   24  H1  UNL     1      -5.571  11.503  65.419  1.00  0.00     0.000 HD 
HETATM   25  N   UNL     1      -6.031  10.656  65.752  1.00  0.00    -0.129 NA 
ENDBRANCH  21  22
ENDBRANCH  20  21
ENDBRANCH  18  20
ENDBRANCH   7  18
ENDBRANCH   6   7
ENDBRANCH   5   6
ENDBRANCH   4   5
ENDBRANCH   3   4
ENDBRANCH   2   3
TORSDOF 10
ENDMDL
MODEL      211
REMARK 921   NORMALIZED FREE ENERGY PREDICTED BY IDOCK:   -3.10 KCAL/MOL
REMARK 922        TOTAL FREE ENERGY PREDICTED BY IDOCK:   -6.01 KCAL/MOL
REMARK 923 INTER-LIGAND FREE ENERGY PREDICTED BY IDOCK:   -4.98 KCAL/MOL
REMARK 924 INTRA-LIGAND FREE ENERGY PREDICTED BY IDOCK:   -1.03 KCAL/MOL
REMARK 927      BINDING AFFINITY PREDICTED BY RF-SCORE:    0.00 PKD
ROOT
HETATM    1  C   UNL     1      -6.342   8.620  72.625  1.00  0.00    -0.062 C  
HETATM    2  O   UNL     1      -6.053   8.641  71.231  1.00  0.00    -0.038 OA 
ENDROOT
BRANCH   2   3
HETATM    3  C   UNL     1      -6.485   9.867  70.646  1.00  0.00    -0.106 C  
BRANCH   3   4
HETATM    4  C   UNL     1      -6.617   9.704  69.136  1.00  0.00    -0.049 C  
BRANCH   4   5
HETATM    5  C   UNL     1      -7.537  10.790  68.578  1.00  0.00    -0.104 C  
BRANCH   5   6
HETATM    6  C   UNL     1      -8.731  10.214  67.813  1.00  0.00    -0.121 C  
BRANCH   6   7
HETATM    7  C   UNL     1     -10.048  10.378  68.595  1.00  0.00    -0.176 C  
BRANCH   7   8
HETATM    8  C   UNL     1     -10.444   9.346  69.624  1.00  0.00    -0.236 A  
HETATM    9  C   UNL     1     -10.850   8.073  69.187  1.00  0.00    -0.038 A  
HETATM   10  C   UNL     1     -10.370   9.574  71.005  1.00  0.00    -0.353 A  
HETATM   11  F   UNL     1     -11.021   6.511  73.760  1.00  0.00    -0.260 F  
HETATM   12  F   UNL     1     -12.499   5.660  72.413  1.00  0.00    -0.304 F  
HETATM   13  C   UNL     1     -10.634   8.546  71.918  1.00  0.00    -0.392 A  
HETATM   14  F   UNL     1     -10.409   5.081  72.243  1.00  0.00    -0.226 F  
HETATM   15  C   UNL     1     -10.996   7.268  71.481  1.00  0.00    -0.259 A  
HETATM   16  C   UNL     1     -11.228   6.146  72.464  1.00  0.00    -0.287 C  
HETATM   17  C   UNL     1     -11.120   7.047  70.102  1.00  0.00    -0.323 A  
ENDBRANCH   7   8
BRANCH   7  18
HETATM   18  N   UNL     1     -10.871  11.367  68.363  1.00  0.00    -0.193 NA 
HETATM   19  H   UNL     1     -10.925  12.215  68.927  1.00  0.00     0.000 HD 
BRANCH  18  20
HETATM   20  O   UNL     1     -11.668  11.109  67.242  1.00  0.00    -0.540 OA 
BRANCH  20  21
HETATM   21  C   UNL     1     -11.838  12.296  66.468  1.00  0.00    -0.306 C  
BRANCH  21  22
HETATM   22  C   UNL     1     -10.947  12.141  65.230  1.00  0.00    -0.304 C  
HETATM   23  H2  UNL     1     -11.150  10.104  65.050  1.00  0.00     0.000 HD 
HETATM   24  H1  UNL     1      -9.810  10.693  64.233  1.00  0.00     0.000 HD 
HETATM   25  N   UNL     1     -10.402  10.797  65.057  1.00  0.00    -0.303 NA 
ENDBRANCH  21  22
ENDBRANCH  20  21
ENDBRANCH  18  20
ENDBRANCH   7  18
ENDBRANCH   6   7
ENDBRANCH   5   6
ENDBRANCH   4   5
ENDBRANCH   3   4
ENDBRANCH   2   3
TORSDOF 10
ENDMDL
MODEL      212
REMARK 921   NORMALIZED FREE ENERGY PREDICTED BY IDOCK:   -3.06 KCAL/MOL
REMARK 922        TOTAL FREE ENERGY PREDICTED BY IDOCK:   -5.96 KCAL/MOL
REMARK 923 INTER-LIGAND FREE ENERGY PREDICTED BY IDOCK:   -5.91 KCAL/MOL
REMARK 924 INTRA-LIGAND FREE ENERGY PREDICTED BY IDOCK:   -0.05 KCAL/MOL
REMARK 927      BINDING AFFINITY PREDICTED BY RF-SCORE:    0.00 PKD
ROOT
HETATM    1  C   UNL     1     -10.432  18.782  66.257  1.00  0.00    -0.435 C  
HETATM    2  O   UNL     1     -10.868  17.577  66.879  1.00  0.00    -0.190 OA 
ENDROOT
BRANCH   2   3
HETATM    3  C   UNL     1     -10.265  17.427  68.161  1.00  0.00    -0.350 C  
BRANCH   3   4
HETATM    4  C   UNL     1      -9.398  16.172  68.184  1.00  0.00    -0.201 C  
BRANCH   4   5
HETATM    5  C   UNL     1     -10.121  15.032  67.467  1.00  0.00    -0.228 C  
BRANCH   5   6
HETATM    6  C   UNL     1      -9.887  13.675  68.134  1.00  0.00    -0.236 C  
BRANCH   6   7
HETATM    7  C   UNL     1     -11.181  12.843  68.216  1.00  0.00    -0.270 C  
BRANCH   7   8
HETATM    8  C   UNL     1     -11.114  11.390  68.621  1.00  0.00    -0.290 A  
HETATM    9  C   UNL     1     -10.661  10.445  67.686  1.00  0.00    -0.335 A  
HETATM   10  C   UNL     1     -11.428  10.940  69.911  1.00  0.00    -0.402 A  
HETATM   11  F   UNL     1     -10.752   6.989  71.067  1.00  0.00    -0.234 F  
HETATM   12  F   UNL     1     -11.240   6.351  69.048  1.00  0.00    -0.330 F  
HETATM   13  C   UNL     1     -11.236   9.601  70.271  1.00  0.00    -0.324 A  
HETATM   14  F   UNL     1      -9.190   6.866  69.562  1.00  0.00    -0.146 F  
HETATM   15  C   UNL     1     -10.744   8.669  69.351  1.00  0.00    -0.169 A  
HETATM   16  C   UNL     1     -10.486   7.238  69.754  1.00  0.00    -0.227 C  
HETATM   17  C   UNL     1     -10.475   9.103  68.044  1.00  0.00    -0.276 A  
ENDBRANCH   7   8
BRANCH   7  18
HETATM   18  N   UNL     1     -12.346  13.343  67.897  1.00  0.00    -0.185 NA 
HETATM   19  H   UNL     1     -12.988  13.778  68.560  1.00  0.00     0.000 HD 
BRANCH  18  20
HETATM   20  O   UNL     1     -12.598  13.204  66.527  1.00  0.00    -0.301 OA 
BRANCH  20  21
HETATM   21  C   UNL     1     -12.646  14.483  65.897  1.00  0.00    -0.138 C  
BRANCH  21  22
HETATM   22  C   UNL     1     -12.263  14.262  64.429  1.00  0.00    -0.447 C  
HETATM   23  H2  UNL     1     -11.409  16.106  64.130  1.00  0.00     0.000 HD 
HETATM   24  H1  UNL     1     -11.831  15.351  62.694  1.00  0.00     0.000 HD 
HETATM   25  N   UNL     1     -12.086  15.497  63.671  1.00  0.00    -0.201 NA 
ENDBRANCH  21  22
ENDBRANCH  20  21
ENDBRANCH  18  20
ENDBRANCH   7  18
ENDBRANCH   6   7
ENDBRANCH   5   6
ENDBRANCH   4   5
ENDBRANCH   3   4
ENDBRANCH   2   3
TORSDOF 10
ENDMDL
MODEL      213
REMARK 921   NORMALIZED FREE ENERGY PREDICTED BY IDOCK:   -3.05 KCAL/MOL
REMARK 922        TOTAL FREE ENERGY PREDICTED BY IDOCK:   -5.94 KCAL/MOL
REMARK 923 INTER-LIGAND FREE ENERGY PREDICTED BY IDOCK:   -5.18 KCAL/MOL
REMARK 924 INTRA-LIGAND FREE ENERGY PREDICTED BY IDOCK:   -0.76 KCAL/MOL
REMARK 927      BINDING AFFINITY PREDICTED BY RF-SCORE:    0.00 PKD
ROOT
HETATM    1  C   UNL     1      -9.142  16.736  68.750  1.00  0.00    -0.259 C  
HETATM    2  O   UNL     1      -8.111  15.943  69.330  1.00  0.00    -0.224 OA 
ENDROOT
BRANCH   2   3
HETATM    3  C   UNL     1      -6.975  15.891  68.472  1.00  0.00    -0.122 C  
BRANCH   3   4
HETATM    4  C   UNL     1      -6.645  14.441  68.135  1.00  0.00    -0.133 C  
BRANCH   4   5
HETATM    5  C   UNL     1      -7.838  13.788  67.437  1.00  0.00    -0.167 C  
BRANCH   5   6
HETATM    6  C   UNL     1      -7.620  12.298  67.170  1.00  0.00    -0.118 C  
BRANCH   6   7
HETATM    7  C   UNL     1      -8.952  11.543  66.996  1.00  0.00    -0.174 C  
BRANCH   7   8
HETATM    8  C   UNL     1      -9.202  10.274  67.775  1.00  0.00    -0.149 A  
HETATM    9  C   UNL     1      -9.992  10.334  68.935  1.00  0.00    -0.209 A  
HETATM   10  C   UNL     1      -8.733   9.018  67.364  1.00  0.00    -0.122 A  
HETATM   11  F   UNL     1      -9.881   5.514  69.315  1.00  0.00    -0.164 F  
HETATM   12  F   UNL     1      -9.916   6.612  71.191  1.00  0.00    -0.183 F  
HETATM   13  C   UNL     1      -9.093   7.855  68.055  1.00  0.00    -0.132 A  
HETATM   14  F   UNL     1     -11.700   6.520  69.949  1.00  0.00    -0.429 F  
HETATM   15  C   UNL     1      -9.914   7.912  69.186  1.00  0.00    -0.184 A  
HETATM   16  C   UNL     1     -10.345   6.655  69.899  1.00  0.00    -0.200 C  
HETATM   17  C   UNL     1     -10.346   9.171  69.631  1.00  0.00    -0.226 A  
ENDBRANCH   7   8
BRANCH   7  18
HETATM   18  N   UNL     1      -9.867  11.941  66.152  1.00  0.00    -0.226 NA 
HETATM   19  H   UNL     1     -10.626  12.581  66.384  1.00  0.00     0.000 HD 
BRANCH  18  20
HETATM   20  O   UNL     1      -9.669  11.373  64.888  1.00  0.00    -0.240 OA 
BRANCH  20  21
HETATM   21  C   UNL     1     -10.655  11.846  63.970  1.00  0.00    -0.374 C  
BRANCH  21  22
HETATM   22  C   UNL     1     -11.404  12.980  64.679  1.00  0.00    -0.327 C  
HETATM   23  H2  UNL     1     -12.831  11.798  65.566  1.00  0.00     0.000 HD 
HETATM   24  H1  UNL     1     -13.287  13.409  65.488  1.00  0.00     0.000 HD 
HETATM   25  N   UNL     1     -12.788  12.655  65.016  1.00  0.00    -0.816 NA 
ENDBRANCH  21  22
ENDBRANCH  20  21
ENDBRANCH  18  20
ENDBRANCH   7  18
ENDBRANCH   6   7
ENDBRANCH   5   6
ENDBRANCH   4   5
ENDBRANCH   3   4
ENDBRANCH   2   3
TORSDOF 10
ENDMDL
MODEL      214
REMARK 921   NORMALIZED FREE ENERGY PREDICTED BY IDOCK:   -2.99 KCAL/MOL
REMARK 922        TOTAL FREE ENERGY PREDICTED BY IDOCK:   -5.85 KCAL/MOL
REMARK 923 INTER-LIGAND FREE ENERGY PREDICTED BY IDOCK:   -4.95 KCAL/MOL
REMARK 924 INTRA-LIGAND FREE ENERGY PREDICTED BY IDOCK:   -0.89 KCAL/MOL
REMARK 927      BINDING AFFINITY PREDICTED BY RF-SCORE:    0.00 PKD
ROOT
HETATM    1  C   UNL     1     -12.376   1.476  73.406  1.00  0.00    -0.085 C  
HETATM    2  O   UNL     1     -11.211   1.805  74.157  1.00  0.00    -0.149 OA 
ENDROOT
BRANCH   2   3
HETATM    3  C   UNL     1     -10.463   2.825  73.502  1.00  0.00    -0.149 C  
BRANCH   3   4
HETATM    4  C   UNL     1      -9.471   2.198  72.528  1.00  0.00    -0.143 C  
BRANCH   4   5
HETATM    5  C   UNL     1      -9.169   3.179  71.395  1.00  0.00    -0.189 C  
BRANCH   5   6
HETATM    6  C   UNL     1      -8.899   4.598  71.902  1.00  0.00    -0.139 C  
BRANCH   6   7
HETATM    7  C   UNL     1      -9.105   5.652  70.798  1.00  0.00    -0.147 C  
BRANCH   7   8
HETATM    8  C   UNL     1     -10.154   6.724  70.970  1.00  0.00    -0.206 A  
HETATM    9  C   UNL     1     -11.510   6.367  70.884  1.00  0.00    -0.406 A  
HETATM   10  C   UNL     1      -9.843   8.057  71.272  1.00  0.00    -0.200 A  
HETATM   11  F   UNL     1     -12.816  10.832  72.203  1.00  0.00    -0.516 F  
HETATM   12  F   UNL     1     -14.139   9.835  70.795  1.00  0.00    -0.290 F  
HETATM   13  C   UNL     1     -10.855   8.988  71.540  1.00  0.00    -0.416 A  
HETATM   14  F   UNL     1     -14.072   9.190  72.872  1.00  0.00    -0.456 F  
HETATM   15  C   UNL     1     -12.204   8.620  71.496  1.00  0.00    -0.368 A  
HETATM   16  C   UNL     1     -13.292   9.609  71.837  1.00  0.00    -0.438 C  
HETATM   17  C   UNL     1     -12.522   7.299  71.146  1.00  0.00    -0.373 A  
ENDBRANCH   7   8
BRANCH   7  18
HETATM   18  N   UNL     1      -8.427   5.624  69.680  1.00  0.00    -0.109 NA 
HETATM   19  H   UNL     1      -8.764   5.207  68.812  1.00  0.00     0.000 HD 
BRANCH  18  20
HETATM   20  O   UNL     1      -7.180   6.241  69.830  1.00  0.00    -0.070 OA 
BRANCH  20  21
HETATM   21  C   UNL     1      -6.599   6.506  68.554  1.00  0.00    -0.051 C  
BRANCH  21  22
HETATM   22  C   UNL     1      -5.746   5.283  68.200  1.00  0.00    -0.016 C  
HETATM   23  H2  UNL     1      -7.298   4.089  67.578  1.00  0.00     0.000 HD 
HETATM   24  H1  UNL     1      -5.921   3.211  67.958  1.00  0.00     0.000 HD 
HETATM   25  N   UNL     1      -6.488   4.025  68.194  1.00  0.00    -0.037 NA 
ENDBRANCH  21  22
ENDBRANCH  20  21
ENDBRANCH  18  20
ENDBRANCH   7  18
ENDBRANCH   6   7
ENDBRANCH   5   6
ENDBRANCH   4   5
ENDBRANCH   3   4
ENDBRANCH   2   3
TORSDOF 10
ENDMDL
MODEL      215
REMARK 921   NORMALIZED FREE ENERGY PREDICTED BY IDOCK:   -2.99 KCAL/MOL
REMARK 922        TOTAL FREE ENERGY PREDICTED BY IDOCK:   -5.84 KCAL/MOL
REMARK 923 INTER-LIGAND FREE ENERGY PREDICTED BY IDOCK:   -5.14 KCAL/MOL
REMARK 924 INTRA-LIGAND FREE ENERGY PREDICTED BY IDOCK:   -0.70 KCAL/MOL
REMARK 927      BINDING AFFINITY PREDICTED BY RF-SCORE:    0.00 PKD
ROOT
HETATM    1  C   UNL     1     -10.091  14.402  67.953  1.00  0.00    -0.228 C  
HETATM    2  O   UNL     1     -10.904  14.679  69.088  1.00  0.00    -0.245 OA 
ENDROOT
BRANCH   2   3
HETATM    3  C   UNL     1     -11.957  13.726  69.197  1.00  0.00    -0.361 C  
BRANCH   3   4
HETATM    4  C   UNL     1     -11.761  12.615  68.170  1.00  0.00    -0.396 C  
BRANCH   4   5
HETATM    5  C   UNL     1     -11.668  11.265  68.880  1.00  0.00    -0.409 C  
BRANCH   5   6
HETATM    6  C   UNL     1     -10.226  10.773  69.023  1.00  0.00    -0.229 C  
BRANCH   6   7
HETATM    7  C   UNL     1     -10.048   9.347  68.469  1.00  0.00    -0.187 C  
BRANCH   7   8
HETATM    8  C   UNL     1     -10.195   8.160  69.391  1.00  0.00    -0.211 A  
HETATM    9  C   UNL     1      -9.176   7.193  69.422  1.00  0.00    -0.148 A  
HETATM   10  C   UNL     1     -11.278   8.002  70.268  1.00  0.00    -0.192 A  
HETATM   11  F   UNL     1     -11.355   4.949  73.110  1.00  0.00    -0.313 F  
HETATM   12  F   UNL     1     -10.302   3.664  71.708  1.00  0.00    -0.226 F  
HETATM   13  C   UNL     1     -11.310   6.946  71.187  1.00  0.00    -0.332 A  
HETATM   14  F   UNL     1      -9.182   4.929  73.078  1.00  0.00    -0.120 F  
HETATM   15  C   UNL     1     -10.273   6.009  71.246  1.00  0.00    -0.253 A  
HETATM   16  C   UNL     1     -10.281   4.903  72.273  1.00  0.00    -0.196 C  
HETATM   17  C   UNL     1      -9.211   6.134  70.338  1.00  0.00    -0.162 A  
ENDBRANCH   7   8
BRANCH   7  18
HETATM   18  N   UNL     1      -9.721   9.124  67.223  1.00  0.00    -0.163 NA 
HETATM   19  H   UNL     1      -9.822   8.224  66.753  1.00  0.00     0.000 HD 
BRANCH  18  20
HETATM   20  O   UNL     1      -9.217  10.281  66.619  1.00  0.00    -0.152 OA 
BRANCH  20  21
HETATM   21  C   UNL     1      -9.698  10.394  65.280  1.00  0.00    -0.278 C  
BRANCH  21  22
HETATM   22  C   UNL     1      -8.865   9.425  64.433  1.00  0.00    -0.188 C  
HETATM   23  H2  UNL     1      -7.286  10.697  64.107  1.00  0.00     0.000 HD 
HETATM   24  H1  UNL     1      -7.339   9.438  63.001  1.00  0.00     0.000 HD 
HETATM   25  N   UNL     1      -7.893  10.082  63.564  1.00  0.00    -0.153 NA 
ENDBRANCH  21  22
ENDBRANCH  20  21
ENDBRANCH  18  20
ENDBRANCH   7  18
ENDBRANCH   6   7
ENDBRANCH   5   6
ENDBRANCH   4   5
ENDBRANCH   3   4
ENDBRANCH   2   3
TORSDOF 10
ENDMDL
MODEL      216
REMARK 921   NORMALIZED FREE ENERGY PREDICTED BY IDOCK:   -2.98 KCAL/MOL
REMARK 922        TOTAL FREE ENERGY PREDICTED BY IDOCK:   -5.83 KCAL/MOL
REMARK 923 INTER-LIGAND FREE ENERGY PREDICTED BY IDOCK:   -5.08 KCAL/MOL
REMARK 924 INTRA-LIGAND FREE ENERGY PREDICTED BY IDOCK:   -0.75 KCAL/MOL
REMARK 927      BINDING AFFINITY PREDICTED BY RF-SCORE:    0.00 PKD
ROOT
HETATM    1  C   UNL     1     -10.918  13.361  64.680  1.00  0.00    -0.377 C  
HETATM    2  O   UNL     1     -10.260  12.260  65.298  1.00  0.00    -0.270 OA 
ENDROOT
BRANCH   2   3
HETATM    3  C   UNL     1      -9.584  11.468  64.326  1.00  0.00    -0.152 C  
BRANCH   3   4
HETATM    4  C   UNL     1      -9.720   9.989  64.675  1.00  0.00    -0.339 C  
BRANCH   4   5
HETATM    5  C   UNL     1      -9.301   9.761  66.128  1.00  0.00    -0.243 C  
BRANCH   5   6
HETATM    6  C   UNL     1      -8.481   8.482  66.310  1.00  0.00    -0.130 C  
BRANCH   6   7
HETATM    7  C   UNL     1      -9.354   7.301  66.774  1.00  0.00    -0.163 C  
BRANCH   7   8
HETATM    8  C   UNL     1      -9.978   7.323  68.149  1.00  0.00    -0.181 A  
HETATM    9  C   UNL     1      -9.399   8.129  69.144  1.00  0.00    -0.151 A  
HETATM   10  C   UNL     1     -11.148   6.621  68.470  1.00  0.00    -0.284 A  
HETATM   11  F   UNL     1     -13.056   7.129  72.145  1.00  0.00    -0.285 F  
HETATM   12  F   UNL     1     -11.112   7.399  73.078  1.00  0.00    -0.311 F  
HETATM   13  C   UNL     1     -11.753   6.769  69.724  1.00  0.00    -0.222 A  
HETATM   14  F   UNL     1     -12.181   9.113  72.272  1.00  0.00    -0.417 F  
HETATM   15  C   UNL     1     -11.199   7.606  70.699  1.00  0.00    -0.280 A  
HETATM   16  C   UNL     1     -11.880   7.807  72.030  1.00  0.00    -0.307 C  
HETATM   17  C   UNL     1     -10.002   8.273  70.401  1.00  0.00    -0.196 A  
ENDBRANCH   7   8
BRANCH   7  18
HETATM   18  N   UNL     1      -9.538   6.243  66.029  1.00  0.00    -0.377 NA 
HETATM   19  H   UNL     1     -10.086   6.232  65.169  1.00  0.00     0.000 HD 
BRANCH  18  20
HETATM   20  O   UNL     1      -8.886   5.127  66.566  1.00  0.00    -0.116 OA 
BRANCH  20  21
HETATM   21  C   UNL     1      -7.568   5.015  66.030  1.00  0.00    -0.087 C  
BRANCH  21  22
HETATM   22  C   UNL     1      -7.534   3.712  65.221  1.00  0.00    -0.077 C  
HETATM   23  H2  UNL     1      -9.488   3.779  64.591  1.00  0.00     0.000 HD 
HETATM   24  H1  UNL     1      -8.826   2.243  64.479  1.00  0.00     0.000 HD 
HETATM   25  N   UNL     1      -8.848   3.109  65.016  1.00  0.00    -0.121 NA 
ENDBRANCH  21  22
ENDBRANCH  20  21
ENDBRANCH  18  20
ENDBRANCH   7  18
ENDBRANCH   6   7
ENDBRANCH   5   6
ENDBRANCH   4   5
ENDBRANCH   3   4
ENDBRANCH   2   3
TORSDOF 10
ENDMDL
MODEL      217
REMARK 921   NORMALIZED FREE ENERGY PREDICTED BY IDOCK:   -2.96 KCAL/MOL
REMARK 922        TOTAL FREE ENERGY PREDICTED BY IDOCK:   -5.80 KCAL/MOL
REMARK 923 INTER-LIGAND FREE ENERGY PREDICTED BY IDOCK:   -4.94 KCAL/MOL
REMARK 924 INTRA-LIGAND FREE ENERGY PREDICTED BY IDOCK:   -0.86 KCAL/MOL
REMARK 927      BINDING AFFINITY PREDICTED BY RF-SCORE:    0.00 PKD
ROOT
HETATM    1  C   UNL     1      -9.956   4.364  70.863  1.00  0.00    -0.172 C  
HETATM    2  O   UNL     1     -10.906   5.357  71.235  1.00  0.00    -0.218 OA 
ENDROOT
BRANCH   2   3
HETATM    3  C   UNL     1     -10.458   6.078  72.379  1.00  0.00    -0.201 C  
BRANCH   3   4
HETATM    4  C   UNL     1     -10.068   7.497  71.979  1.00  0.00    -0.225 C  
BRANCH   4   5
HETATM    5  C   UNL     1     -11.048   8.026  70.931  1.00  0.00    -0.271 C  
BRANCH   5   6
HETATM    6  C   UNL     1     -11.173   9.551  70.958  1.00  0.00    -0.432 C  
BRANCH   6   7
HETATM    7  C   UNL     1     -10.642  10.195  69.664  1.00  0.00    -0.257 C  
BRANCH   7   8
HETATM    8  C   UNL     1      -9.952   9.340  68.628  1.00  0.00    -0.193 A  
HETATM    9  C   UNL     1      -8.592   9.032  68.798  1.00  0.00    -0.132 A  
HETATM   10  C   UNL     1     -10.619   8.784  67.527  1.00  0.00    -0.298 A  
HETATM   11  F   UNL     1      -8.745   6.050  64.994  1.00  0.00    -0.148 F  
HETATM   12  F   UNL     1      -6.872   7.112  65.290  1.00  0.00    -0.047 F  
HETATM   13  C   UNL     1      -9.964   7.901  66.661  1.00  0.00    -0.316 A  
HETATM   14  F   UNL     1      -7.435   5.499  66.637  1.00  0.00    -0.081 F  
HETATM   15  C   UNL     1      -8.621   7.561  66.856  1.00  0.00    -0.124 A  
HETATM   16  C   UNL     1      -7.930   6.569  65.954  1.00  0.00    -0.115 C  
HETATM   17  C   UNL     1      -7.934   8.153  67.928  1.00  0.00    -0.127 A  
ENDBRANCH   7   8
BRANCH   7  18
HETATM   18  N   UNL     1     -10.725  11.481  69.447  1.00  0.00    -0.427 NA 
HETATM   19  H   UNL     1      -9.940  12.130  69.517  1.00  0.00     0.000 HD 
BRANCH  18  20
HETATM   20  O   UNL     1     -12.031  11.853  69.108  1.00  0.00    -0.306 OA 
BRANCH  20  21
HETATM   21  C   UNL     1     -12.233  13.244  69.355  1.00  0.00    -0.158 C  
BRANCH  21  22
HETATM   22  C   UNL     1     -11.442  13.999  68.281  1.00  0.00    -0.304 C  
HETATM   23  H2  UNL     1     -12.855  13.845  66.799  1.00  0.00     0.000 HD 
HETATM   24  H1  UNL     1     -11.329  14.192  66.200  1.00  0.00     0.000 HD 
HETATM   25  N   UNL     1     -11.854  13.689  66.915  1.00  0.00    -0.390 NA 
ENDBRANCH  21  22
ENDBRANCH  20  21
ENDBRANCH  18  20
ENDBRANCH   7  18
ENDBRANCH   6   7
ENDBRANCH   5   6
ENDBRANCH   4   5
ENDBRANCH   3   4
ENDBRANCH   2   3
TORSDOF 10
ENDMDL
MODEL      218
REMARK 921   NORMALIZED FREE ENERGY PREDICTED BY IDOCK:   -2.93 KCAL/MOL
REMARK 922        TOTAL FREE ENERGY PREDICTED BY IDOCK:   -5.75 KCAL/MOL
REMARK 923 INTER-LIGAND FREE ENERGY PREDICTED BY IDOCK:   -4.97 KCAL/MOL
REMARK 924 INTRA-LIGAND FREE ENERGY PREDICTED BY IDOCK:   -0.77 KCAL/MOL
REMARK 927      BINDING AFFINITY PREDICTED BY RF-SCORE:    0.00 PKD
ROOT
HETATM    1  C   UNL     1     -10.472   3.784  64.197  1.00  0.00    -0.257 C  
HETATM    2  O   UNL     1      -9.432   3.218  64.988  1.00  0.00    -0.151 OA 
ENDROOT
BRANCH   2   3
HETATM    3  C   UNL     1      -8.437   4.195  65.282  1.00  0.00    -0.114 C  
BRANCH   3   4
HETATM    4  C   UNL     1      -7.742   3.849  66.595  1.00  0.00    -0.089 C  
BRANCH   4   5
HETATM    5  C   UNL     1      -7.872   5.017  67.572  1.00  0.00    -0.095 C  
BRANCH   5   6
HETATM    6  C   UNL     1      -8.845   6.090  67.079  1.00  0.00    -0.113 C  
BRANCH   6   7
HETATM    7  C   UNL     1      -8.826   7.341  67.977  1.00  0.00    -0.129 C  
BRANCH   7   8
HETATM    8  C   UNL     1      -9.882   7.517  69.042  1.00  0.00    -0.170 A  
HETATM    9  C   UNL     1     -10.112   8.801  69.564  1.00  0.00    -0.202 A  
HETATM   10  C   UNL     1     -10.692   6.468  69.497  1.00  0.00    -0.322 A  
HETATM   11  F   UNL     1     -13.897   7.149  72.080  1.00  0.00    -0.365 F  
HETATM   12  F   UNL     1     -12.753   8.739  73.023  1.00  0.00    -0.405 F  
HETATM   13  C   UNL     1     -11.738   6.706  70.398  1.00  0.00    -0.446 A  
HETATM   14  F   UNL     1     -14.022   9.178  71.312  1.00  0.00    -0.418 F  
HETATM   15  C   UNL     1     -11.992   7.993  70.884  1.00  0.00    -0.201 A  
HETATM   16  C   UNL     1     -13.152   8.258  71.813  1.00  0.00    -0.344 C  
HETATM   17  C   UNL     1     -11.154   9.038  70.470  1.00  0.00    -0.297 A  
ENDBRANCH   7   8
BRANCH   7  18
HETATM   18  N   UNL     1      -7.944   8.293  67.818  1.00  0.00    -0.120 NA 
HETATM   19  H   UNL     1      -7.514   8.814  68.583  1.00  0.00     0.000 HD 
BRANCH  18  20
HETATM   20  O   UNL     1      -7.666   8.504  66.463  1.00  0.00    -0.090 OA 
BRANCH  20  21
HETATM   21  C   UNL     1      -8.045   9.824  66.077  1.00  0.00    -0.114 C  
BRANCH  21  22
HETATM   22  C   UNL     1      -9.467   9.725  65.513  1.00  0.00    -0.262 C  
HETATM   23  H2  UNL     1      -8.922   9.488  63.546  1.00  0.00     0.000 HD 
HETATM   24  H1  UNL     1     -10.511   9.992  63.719  1.00  0.00     0.000 HD 
HETATM   25  N   UNL     1      -9.565  10.058  64.094  1.00  0.00    -0.269 NA 
ENDBRANCH  21  22
ENDBRANCH  20  21
ENDBRANCH  18  20
ENDBRANCH   7  18
ENDBRANCH   6   7
ENDBRANCH   5   6
ENDBRANCH   4   5
ENDBRANCH   3   4
ENDBRANCH   2   3
TORSDOF 10
ENDMDL
MODEL      219
REMARK 921   NORMALIZED FREE ENERGY PREDICTED BY IDOCK:   -2.90 KCAL/MOL
REMARK 922        TOTAL FREE ENERGY PREDICTED BY IDOCK:   -5.69 KCAL/MOL
REMARK 923 INTER-LIGAND FREE ENERGY PREDICTED BY IDOCK:   -4.29 KCAL/MOL
REMARK 924 INTRA-LIGAND FREE ENERGY PREDICTED BY IDOCK:   -1.40 KCAL/MOL
REMARK 927      BINDING AFFINITY PREDICTED BY RF-SCORE:    0.00 PKD
ROOT
HETATM    1  C   UNL     1      -8.552   9.208  70.592  1.00  0.00    -0.226 C  
HETATM    2  O   UNL     1      -9.677   8.334  70.593  1.00  0.00    -0.169 OA 
ENDROOT
BRANCH   2   3
HETATM    3  C   UNL     1      -9.286   7.013  70.956  1.00  0.00    -0.155 C  
BRANCH   3   4
HETATM    4  C   UNL     1     -10.508   6.100  70.986  1.00  0.00    -0.281 C  
BRANCH   4   5
HETATM    5  C   UNL     1     -11.262   6.203  69.660  1.00  0.00    -0.488 C  
BRANCH   5   6
HETATM    6  C   UNL     1     -10.760   5.201  68.618  1.00  0.00     0.125 C  
BRANCH   6   7
HETATM    7  C   UNL     1     -10.594   5.848  67.230  1.00  0.00    -0.291 C  
BRANCH   7   8
HETATM    8  C   UNL     1      -9.916   7.192  67.105  1.00  0.00    -0.270 A  
HETATM    9  C   UNL     1      -8.513   7.253  67.171  1.00  0.00    -0.118 A  
HETATM   10  C   UNL     1     -10.615   8.382  66.864  1.00  0.00    -0.285 A  
HETATM   11  F   UNL     1      -8.621  11.956  66.053  1.00  0.00    -0.144 F  
HETATM   12  F   UNL     1      -7.039  11.341  67.411  1.00  0.00    -0.087 F  
HETATM   13  C   UNL     1      -9.932   9.583  66.636  1.00  0.00    -0.314 A  
HETATM   14  F   UNL     1      -6.943  10.795  65.307  1.00  0.00    -0.116 F  
HETATM   15  C   UNL     1      -8.534   9.634  66.660  1.00  0.00    -0.126 A  
HETATM   16  C   UNL     1      -7.797  10.917  66.362  1.00  0.00    -0.154 C  
HETATM   17  C   UNL     1      -7.830   8.455  66.949  1.00  0.00    -0.095 A  
ENDBRANCH   7   8
BRANCH   7  18
HETATM   18  N   UNL     1     -11.067   5.291  66.147  1.00  0.00    -0.761 NA 
HETATM   19  H   UNL     1     -12.049   5.053  66.003  1.00  0.00     0.000 HD 
BRANCH  18  20
HETATM   20  O   UNL     1     -10.052   5.064  65.211  1.00  0.00    -0.002 OA 
BRANCH  20  21
HETATM   21  C   UNL     1     -10.111   3.722  64.728  1.00  0.00    -0.170 C  
BRANCH  21  22
HETATM   22  C   UNL     1      -8.966   2.962  65.408  1.00  0.00    -0.144 C  
HETATM   23  H2  UNL     1     -10.149   1.759  66.580  1.00  0.00     0.000 HD 
HETATM   24  H1  UNL     1      -8.571   1.855  67.140  1.00  0.00     0.000 HD 
HETATM   25  N   UNL     1      -9.333   2.361  66.687  1.00  0.00    -0.021 NA 
ENDBRANCH  21  22
ENDBRANCH  20  21
ENDBRANCH  18  20
ENDBRANCH   7  18
ENDBRANCH   6   7
ENDBRANCH   5   6
ENDBRANCH   4   5
ENDBRANCH   3   4
ENDBRANCH   2   3
TORSDOF 10
ENDMDL
MODEL      220
REMARK 921   NORMALIZED FREE ENERGY PREDICTED BY IDOCK:   -2.86 KCAL/MOL
REMARK 922        TOTAL FREE ENERGY PREDICTED BY IDOCK:   -5.64 KCAL/MOL
REMARK 923 INTER-LIGAND FREE ENERGY PREDICTED BY IDOCK:   -4.69 KCAL/MOL
REMARK 924 INTRA-LIGAND FREE ENERGY PREDICTED BY IDOCK:   -0.95 KCAL/MOL
REMARK 927      BINDING AFFINITY PREDICTED BY RF-SCORE:    0.00 PKD
ROOT
HETATM    1  C   UNL     1      -9.657   2.862  71.162  1.00  0.00    -0.156 C  
HETATM    2  O   UNL     1      -9.700   4.182  71.693  1.00  0.00    -0.157 OA 
ENDROOT
BRANCH   2   3
HETATM    3  C   UNL     1      -8.384   4.663  71.951  1.00  0.00    -0.109 C  
BRANCH   3   4
HETATM    4  C   UNL     1      -7.950   5.608  70.835  1.00  0.00    -0.110 C  
BRANCH   4   5
HETATM    5  C   UNL     1      -9.082   6.584  70.514  1.00  0.00    -0.152 C  
BRANCH   5   6
HETATM    6  C   UNL     1      -8.569   7.962  70.093  1.00  0.00    -0.134 C  
BRANCH   6   7
HETATM    7  C   UNL     1      -9.414   8.569  68.957  1.00  0.00    -0.150 C  
BRANCH   7   8
HETATM    8  C   UNL     1     -10.015   9.945  69.122  1.00  0.00    -0.205 A  
HETATM    9  C   UNL     1      -9.541  10.994  68.316  1.00  0.00    -0.172 A  
HETATM   10  C   UNL     1     -11.072  10.218  70.001  1.00  0.00    -0.373 A  
HETATM   11  F   UNL     1     -12.980  13.928  70.032  1.00  0.00    -0.283 F  
HETATM   12  F   UNL     1     -11.079  14.870  69.561  1.00  0.00    -0.239 F  
HETATM   13  C   UNL     1     -11.674  11.482  70.031  1.00  0.00    -0.414 A  
HETATM   14  F   UNL     1     -12.387  14.196  67.959  1.00  0.00    -0.369 F  
HETATM   15  C   UNL     1     -11.228  12.513  69.197  1.00  0.00    -0.297 A  
HETATM   16  C   UNL     1     -11.911  13.859  69.190  1.00  0.00    -0.363 C  
HETATM   17  C   UNL     1     -10.139  12.260  68.350  1.00  0.00    -0.215 A  
ENDBRANCH   7   8
BRANCH   7  18
HETATM   18  N   UNL     1      -9.673   7.909  67.859  1.00  0.00    -0.150 NA 
HETATM   19  H   UNL     1     -10.588   7.527  67.619  1.00  0.00     0.000 HD 
BRANCH  18  20
HETATM   20  O   UNL     1      -8.532   7.794  67.057  1.00  0.00    -0.121 OA 
BRANCH  20  21
HETATM   21  C   UNL     1      -8.679   6.718  66.133  1.00  0.00    -0.148 C  
BRANCH  21  22
HETATM   22  C   UNL     1      -9.144   5.504  66.945  1.00  0.00    -0.115 C  
HETATM   23  H2  UNL     1     -10.864   5.154  65.878  1.00  0.00     0.000 HD 
HETATM   24  H1  UNL     1     -10.888   4.436  67.392  1.00  0.00     0.000 HD 
HETATM   25  N   UNL     1     -10.579   5.244  66.852  1.00  0.00    -0.254 NA 
ENDBRANCH  21  22
ENDBRANCH  20  21
ENDBRANCH  18  20
ENDBRANCH   7  18
ENDBRANCH   6   7
ENDBRANCH   5   6
ENDBRANCH   4   5
ENDBRANCH   3   4
ENDBRANCH   2   3
TORSDOF 10
ENDMDL
MODEL      221
REMARK 921   NORMALIZED FREE ENERGY PREDICTED BY IDOCK:   -2.85 KCAL/MOL
REMARK 922        TOTAL FREE ENERGY PREDICTED BY IDOCK:   -5.62 KCAL/MOL
REMARK 923 INTER-LIGAND FREE ENERGY PREDICTED BY IDOCK:   -4.66 KCAL/MOL
REMARK 924 INTRA-LIGAND FREE ENERGY PREDICTED BY IDOCK:   -0.95 KCAL/MOL
REMARK 927      BINDING AFFINITY PREDICTED BY RF-SCORE:    0.00 PKD
ROOT
HETATM    1  C   UNL     1     -10.583  11.159  63.731  1.00  0.00    -0.356 C  
HETATM    2  O   UNL     1     -10.280  11.167  65.122  1.00  0.00    -0.259 OA 
ENDROOT
BRANCH   2   3
HETATM    3  C   UNL     1     -10.008   9.847  65.585  1.00  0.00    -0.283 C  
BRANCH   3   4
HETATM    4  C   UNL     1      -8.508   9.576  65.528  1.00  0.00    -0.150 C  
BRANCH   4   5
HETATM    5  C   UNL     1      -7.742  10.897  65.585  1.00  0.00     0.012 C  
BRANCH   5   6
HETATM    6  C   UNL     1      -7.142  11.170  66.966  1.00  0.00    -0.124 C  
BRANCH   6   7
HETATM    7  C   UNL     1      -7.968  12.201  67.759  1.00  0.00    -0.151 C  
BRANCH   7   8
HETATM    8  C   UNL     1      -7.814  13.674  67.462  1.00  0.00    -0.185 A  
HETATM    9  C   UNL     1      -8.881  14.359  66.858  1.00  0.00    -0.246 A  
HETATM   10  C   UNL     1      -6.676  14.411  67.815  1.00  0.00    -0.191 A  
HETATM   11  F   UNL     1      -6.544  18.559  67.391  1.00  0.00    -0.188 F  
HETATM   12  F   UNL     1      -7.778  18.380  65.610  1.00  0.00    -0.219 F  
HETATM   13  C   UNL     1      -6.630  15.798  67.627  1.00  0.00    -0.196 A  
HETATM   14  F   UNL     1      -8.710  18.597  67.564  1.00  0.00    -0.263 F  
HETATM   15  C   UNL     1      -7.711  16.485  67.064  1.00  0.00    -0.244 A  
HETATM   16  C   UNL     1      -7.683  17.986  66.910  1.00  0.00    -0.223 C  
HETATM   17  C   UNL     1      -8.834  15.746  66.663  1.00  0.00    -0.324 A  
ENDBRANCH   7   8
BRANCH   7  18
HETATM   18  N   UNL     1      -8.773  11.846  68.725  1.00  0.00    -0.363 NA 
HETATM   19  H   UNL     1      -9.549  12.414  69.067  1.00  0.00     0.000 HD 
BRANCH  18  20
HETATM   20  O   UNL     1      -8.433  10.586  69.230  1.00  0.00    -0.157 OA 
BRANCH  20  21
HETATM   21  C   UNL     1      -9.609   9.847  69.558  1.00  0.00    -0.225 C  
BRANCH  21  22
HETATM   22  C   UNL     1      -9.412   8.437  68.989  1.00  0.00    -0.151 C  
HETATM   23  H2  UNL     1     -11.255   8.288  68.095  1.00  0.00     0.000 HD 
HETATM   24  H1  UNL     1     -10.530   6.795  68.330  1.00  0.00     0.000 HD 
HETATM   25  N   UNL     1     -10.660   7.732  68.709  1.00  0.00    -0.178 NA 
ENDBRANCH  21  22
ENDBRANCH  20  21
ENDBRANCH  18  20
ENDBRANCH   7  18
ENDBRANCH   6   7
ENDBRANCH   5   6
ENDBRANCH   4   5
ENDBRANCH   3   4
ENDBRANCH   2   3
TORSDOF 10
ENDMDL
MODEL      222
REMARK 921   NORMALIZED FREE ENERGY PREDICTED BY IDOCK:   -2.83 KCAL/MOL
REMARK 922        TOTAL FREE ENERGY PREDICTED BY IDOCK:   -5.60 KCAL/MOL
REMARK 923 INTER-LIGAND FREE ENERGY PREDICTED BY IDOCK:   -4.84 KCAL/MOL
REMARK 924 INTRA-LIGAND FREE ENERGY PREDICTED BY IDOCK:   -0.75 KCAL/MOL
REMARK 927      BINDING AFFINITY PREDICTED BY RF-SCORE:    0.00 PKD
ROOT
HETATM    1  C   UNL     1     -13.176  10.858  71.833  1.00  0.00    -0.403 C  
HETATM    2  O   UNL     1     -12.349   9.890  71.195  1.00  0.00    -0.320 OA 
ENDROOT
BRANCH   2   3
HETATM    3  C   UNL     1     -11.950   8.882  72.119  1.00  0.00    -0.349 C  
BRANCH   3   4
HETATM    4  C   UNL     1     -12.467   7.522  71.660  1.00  0.00    -0.371 C  
BRANCH   4   5
HETATM    5  C   UNL     1     -11.293   6.642  71.231  1.00  0.00    -0.346 C  
BRANCH   5   6
HETATM    6  C   UNL     1     -11.350   6.268  69.749  1.00  0.00    -0.506 C  
BRANCH   6   7
HETATM    7  C   UNL     1     -10.076   6.699  68.998  1.00  0.00    -0.162 C  
BRANCH   7   8
HETATM    8  C   UNL     1      -9.743   6.074  67.664  1.00  0.00    -0.120 A  
HETATM    9  C   UNL     1      -8.424   6.156  67.186  1.00  0.00    -0.104 A  
HETATM   10  C   UNL     1     -10.675   5.358  66.900  1.00  0.00    -0.264 A  
HETATM   11  F   UNL     1      -9.540   3.262  63.476  1.00  0.00    -0.102 F  
HETATM   12  F   UNL     1      -8.063   4.803  63.065  1.00  0.00    -0.071 F  
HETATM   13  C   UNL     1     -10.287   4.695  65.730  1.00  0.00    -0.295 A  
HETATM   14  F   UNL     1      -7.537   3.093  64.302  1.00  0.00    -0.069 F  
HETATM   15  C   UNL     1      -8.964   4.743  65.278  1.00  0.00    -0.151 A  
HETATM   16  C   UNL     1      -8.534   3.985  64.046  1.00  0.00    -0.096 C  
HETATM   17  C   UNL     1      -8.037   5.498  66.012  1.00  0.00    -0.108 A  
ENDBRANCH   7   8
BRANCH   7  18
HETATM   18  N   UNL     1      -9.236   7.566  69.501  1.00  0.00    -0.147 NA 
HETATM   19  H   UNL     1      -8.517   7.339  70.188  1.00  0.00     0.000 HD 
BRANCH  18  20
HETATM   20  O   UNL     1      -9.453   8.844  68.974  1.00  0.00    -0.154 OA 
BRANCH  20  21
HETATM   21  C   UNL     1      -8.990   9.842  69.883  1.00  0.00    -0.229 C  
BRANCH  21  22
HETATM   22  C   UNL     1      -7.487  10.001  69.628  1.00  0.00    -0.134 C  
HETATM   23  H2  UNL     1      -6.872   9.451  71.510  1.00  0.00     0.000 HD 
HETATM   24  H1  UNL     1      -5.699  10.307  70.673  1.00  0.00     0.000 HD 
HETATM   25  N   UNL     1      -6.699  10.202  70.842  1.00  0.00    -0.342 NA 
ENDBRANCH  21  22
ENDBRANCH  20  21
ENDBRANCH  18  20
ENDBRANCH   7  18
ENDBRANCH   6   7
ENDBRANCH   5   6
ENDBRANCH   4   5
ENDBRANCH   3   4
ENDBRANCH   2   3
TORSDOF 10
ENDMDL
MODEL      223
REMARK 921   NORMALIZED FREE ENERGY PREDICTED BY IDOCK:   -2.83 KCAL/MOL
REMARK 922        TOTAL FREE ENERGY PREDICTED BY IDOCK:   -5.59 KCAL/MOL
REMARK 923 INTER-LIGAND FREE ENERGY PREDICTED BY IDOCK:   -4.74 KCAL/MOL
REMARK 924 INTRA-LIGAND FREE ENERGY PREDICTED BY IDOCK:   -0.84 KCAL/MOL
REMARK 927      BINDING AFFINITY PREDICTED BY RF-SCORE:    0.00 PKD
ROOT
HETATM    1  C   UNL     1      -8.930  16.419  68.590  1.00  0.00    -0.233 C  
HETATM    2  O   UNL     1      -8.243  15.413  69.327  1.00  0.00    -0.221 OA 
ENDROOT
BRANCH   2   3
HETATM    3  C   UNL     1      -7.050  15.023  68.654  1.00  0.00    -0.109 C  
BRANCH   3   4
HETATM    4  C   UNL     1      -7.031  13.509  68.468  1.00  0.00    -0.102 C  
BRANCH   4   5
HETATM    5  C   UNL     1      -7.710  13.142  67.148  1.00  0.00    -0.032 C  
BRANCH   5   6
HETATM    6  C   UNL     1      -7.747  11.631  66.906  1.00  0.00    -0.147 C  
BRANCH   6   7
HETATM    7  C   UNL     1      -9.154  11.146  66.509  1.00  0.00    -0.182 C  
BRANCH   7   8
HETATM    8  C   UNL     1      -9.536   9.700  66.718  1.00  0.00    -0.225 A  
HETATM    9  C   UNL     1      -8.989   8.724  65.869  1.00  0.00    -0.240 A  
HETATM   10  C   UNL     1     -10.369   9.272  67.761  1.00  0.00    -0.292 A  
HETATM   11  F   UNL     1     -10.974   5.219  68.544  1.00  0.00    -0.179 F  
HETATM   12  F   UNL     1     -10.842   4.823  66.411  1.00  0.00    -0.316 F  
HETATM   13  C   UNL     1     -10.597   7.909  67.985  1.00  0.00    -0.194 A  
HETATM   14  F   UNL     1      -9.045   4.805  67.636  1.00  0.00    -0.107 F  
HETATM   15  C   UNL     1     -10.017   6.936  67.164  1.00  0.00    -0.239 A  
HETATM   16  C   UNL     1     -10.219   5.465  67.437  1.00  0.00    -0.201 C  
HETATM   17  C   UNL     1      -9.222   7.360  66.089  1.00  0.00    -0.148 A  
ENDBRANCH   7   8
BRANCH   7  18
HETATM   18  N   UNL     1     -10.026  11.941  65.946  1.00  0.00    -0.228 NA 
HETATM   19  H   UNL     1     -10.559  12.655  66.442  1.00  0.00     0.000 HD 
BRANCH  18  20
HETATM   20  O   UNL     1     -10.134  11.683  64.575  1.00  0.00    -0.255 OA 
BRANCH  20  21
HETATM   21  C   UNL     1     -10.739  12.788  63.906  1.00  0.00    -0.409 C  
BRANCH  21  22
HETATM   22  C   UNL     1     -10.995  13.858  64.973  1.00  0.00    -0.368 C  
HETATM   23  H2  UNL     1      -9.703  15.262  64.210  1.00  0.00     0.000 HD 
HETATM   24  H1  UNL     1     -10.081  15.541  65.819  1.00  0.00     0.000 HD 
HETATM   25  N   UNL     1      -9.912  14.829  65.109  1.00  0.00    -0.318 NA 
ENDBRANCH  21  22
ENDBRANCH  20  21
ENDBRANCH  18  20
ENDBRANCH   7  18
ENDBRANCH   6   7
ENDBRANCH   5   6
ENDBRANCH   4   5
ENDBRANCH   3   4
ENDBRANCH   2   3
TORSDOF 10
ENDMDL
MODEL      224
REMARK 921   NORMALIZED FREE ENERGY PREDICTED BY IDOCK:   -2.81 KCAL/MOL
REMARK 922        TOTAL FREE ENERGY PREDICTED BY IDOCK:   -5.56 KCAL/MOL
REMARK 923 INTER-LIGAND FREE ENERGY PREDICTED BY IDOCK:   -4.33 KCAL/MOL
REMARK 924 INTRA-LIGAND FREE ENERGY PREDICTED BY IDOCK:   -1.24 KCAL/MOL
REMARK 927      BINDING AFFINITY PREDICTED BY RF-SCORE:    0.00 PKD
ROOT
HETATM    1  C   UNL     1     -11.817  12.868  68.947  1.00  0.00    -0.309 C  
HETATM    2  O   UNL     1     -12.093  11.886  67.953  1.00  0.00    -0.558 OA 
ENDROOT
BRANCH   2   3
HETATM    3  C   UNL     1     -11.384  10.681  68.228  1.00  0.00    -0.289 C  
BRANCH   3   4
HETATM    4  C   UNL     1     -10.288  10.945  69.255  1.00  0.00    -0.211 C  
BRANCH   4   5
HETATM    5  C   UNL     1     -10.201   9.772  70.231  1.00  0.00    -0.346 C  
BRANCH   5   6
HETATM    6  C   UNL     1     -10.679   8.456  69.614  1.00  0.00    -0.201 C  
BRANCH   6   7
HETATM    7  C   UNL     1      -9.510   7.628  69.047  1.00  0.00    -0.150 C  
BRANCH   7   8
HETATM    8  C   UNL     1      -8.803   8.088  67.795  1.00  0.00    -0.126 A  
HETATM    9  C   UNL     1      -9.434   7.904  66.553  1.00  0.00    -0.277 A  
HETATM   10  C   UNL     1      -7.566   8.746  67.812  1.00  0.00    -0.097 A  
HETATM   11  F   UNL     1      -5.926  10.401  64.352  1.00  0.00    -0.120 F  
HETATM   12  F   UNL     1      -6.792   8.771  63.204  1.00  0.00    -0.090 F  
HETATM   13  C   UNL     1      -7.007   9.259  66.635  1.00  0.00    -0.081 A  
HETATM   14  F   UNL     1      -7.935  10.590  63.548  1.00  0.00    -0.159 F  
HETATM   15  C   UNL     1      -7.658   9.113  65.405  1.00  0.00    -0.097 A  
HETATM   16  C   UNL     1      -7.082   9.712  64.145  1.00  0.00    -0.119 C  
HETATM   17  C   UNL     1      -8.872   8.412  65.374  1.00  0.00    -0.146 A  
ENDBRANCH   7   8
BRANCH   7  18
HETATM   18  N   UNL     1      -9.133   6.501  69.592  1.00  0.00    -0.141 NA 
HETATM   19  H   UNL     1      -8.163   6.249  69.782  1.00  0.00     0.000 HD 
BRANCH  18  20
HETATM   20  O   UNL     1     -10.234   5.686  69.879  1.00  0.00    -0.205 OA 
BRANCH  20  21
HETATM   21  C   UNL     1      -9.800   4.424  70.384  1.00  0.00    -0.216 C  
BRANCH  21  22
HETATM   22  C   UNL     1     -10.144   4.409  71.878  1.00  0.00    -0.174 C  
HETATM   23  H2  UNL     1     -11.349   6.072  71.857  1.00  0.00     0.000 HD 
HETATM   24  H1  UNL     1     -10.798   5.695  73.395  1.00  0.00     0.000 HD 
HETATM   25  N   UNL     1     -10.569   5.704  72.401  1.00  0.00    -0.214 NA 
ENDBRANCH  21  22
ENDBRANCH  20  21
ENDBRANCH  18  20
ENDBRANCH   7  18
ENDBRANCH   6   7
ENDBRANCH   5   6
ENDBRANCH   4   5
ENDBRANCH   3   4
ENDBRANCH   2   3
TORSDOF 10
ENDMDL
MODEL      225
REMARK 921   NORMALIZED FREE ENERGY PREDICTED BY IDOCK:   -2.72 KCAL/MOL
REMARK 922        TOTAL FREE ENERGY PREDICTED BY IDOCK:   -5.42 KCAL/MOL
REMARK 923 INTER-LIGAND FREE ENERGY PREDICTED BY IDOCK:   -4.27 KCAL/MOL
REMARK 924 INTRA-LIGAND FREE ENERGY PREDICTED BY IDOCK:   -1.15 KCAL/MOL
REMARK 927      BINDING AFFINITY PREDICTED BY RF-SCORE:    0.00 PKD
ROOT
HETATM    1  C   UNL     1      -8.904   7.934  70.542  1.00  0.00    -0.141 C  
HETATM    2  O   UNL     1      -9.285   6.564  70.474  1.00  0.00    -0.154 OA 
ENDROOT
BRANCH   2   3
HETATM    3  C   UNL     1      -8.156   5.741  70.197  1.00  0.00    -0.108 C  
BRANCH   3   4
HETATM    4  C   UNL     1      -8.532   4.272  70.359  1.00  0.00    -0.096 C  
BRANCH   4   5
HETATM    5  C   UNL     1      -9.636   3.909  69.366  1.00  0.00    -0.239 C  
BRANCH   5   6
HETATM    6  C   UNL     1      -9.104   3.166  68.139  1.00  0.00    -0.219 C  
BRANCH   6   7
HETATM    7  C   UNL     1      -9.430   3.908  66.830  1.00  0.00    -0.202 C  
BRANCH   7   8
HETATM    8  C   UNL     1      -9.570   5.412  66.834  1.00  0.00    -0.150 A  
HETATM    9  C   UNL     1     -10.847   5.974  66.997  1.00  0.00    -0.413 A  
HETATM   10  C   UNL     1      -8.475   6.282  66.743  1.00  0.00    -0.111 A  
HETATM   11  F   UNL     1      -8.915  10.400  67.250  1.00  0.00    -0.134 F  
HETATM   12  F   UNL     1     -10.869  10.272  66.307  1.00  0.00    -0.238 F  
HETATM   13  C   UNL     1      -8.644   7.666  66.872  1.00  0.00    -0.123 A  
HETATM   14  F   UNL     1     -10.678  10.014  68.459  1.00  0.00    -0.211 F  
HETATM   15  C   UNL     1      -9.912   8.222  67.077  1.00  0.00    -0.325 A  
HETATM   16  C   UNL     1     -10.088   9.708  67.270  1.00  0.00    -0.211 C  
HETATM   17  C   UNL     1     -11.017   7.359  67.120  1.00  0.00    -0.225 A  
ENDBRANCH   7   8
BRANCH   7  18
HETATM   18  N   UNL     1      -9.640   3.271  65.707  1.00  0.00    -0.364 NA 
HETATM   19  H   UNL     1     -10.361   2.563  65.573  1.00  0.00     0.000 HD 
BRANCH  18  20
HETATM   20  O   UNL     1      -8.745   3.689  64.715  1.00  0.00    -0.110 OA 
BRANCH  20  21
HETATM   21  C   UNL     1      -9.441   3.959  63.499  1.00  0.00    -0.144 C  
BRANCH  21  22
HETATM   22  C   UNL     1     -10.815   3.289  63.624  1.00  0.00    -0.191 C  
HETATM   23  H2  UNL     1     -10.468   1.789  62.264  1.00  0.00     0.000 HD 
HETATM   24  H1  UNL     1     -12.101   2.037  62.547  1.00  0.00     0.000 HD 
HETATM   25  N   UNL     1     -11.188   2.483  62.465  1.00  0.00    -0.162 NA 
ENDBRANCH  21  22
ENDBRANCH  20  21
ENDBRANCH  18  20
ENDBRANCH   7  18
ENDBRANCH   6   7
ENDBRANCH   5   6
ENDBRANCH   4   5
ENDBRANCH   3   4
ENDBRANCH   2   3
TORSDOF 10
ENDMDL
MODEL      226
REMARK 921   NORMALIZED FREE ENERGY PREDICTED BY IDOCK:   -2.69 KCAL/MOL
REMARK 922        TOTAL FREE ENERGY PREDICTED BY IDOCK:   -5.37 KCAL/MOL
REMARK 923 INTER-LIGAND FREE ENERGY PREDICTED BY IDOCK:   -4.90 KCAL/MOL
REMARK 924 INTRA-LIGAND FREE ENERGY PREDICTED BY IDOCK:   -0.47 KCAL/MOL
REMARK 927      BINDING AFFINITY PREDICTED BY RF-SCORE:    0.00 PKD
ROOT
HETATM    1  C   UNL     1     -12.635  12.457  63.504  1.00  0.00    -0.425 C  
HETATM    2  O   UNL     1     -11.521  12.255  64.368  1.00  0.00    -0.324 OA 
ENDROOT
BRANCH   2   3
HETATM    3  C   UNL     1     -10.401  11.761  63.638  1.00  0.00    -0.434 C  
BRANCH   3   4
HETATM    4  C   UNL     1      -9.371  11.178  64.600  1.00  0.00    -0.200 C  
BRANCH   4   5
HETATM    5  C   UNL     1      -9.975   9.988  65.345  1.00  0.00    -0.364 C  
BRANCH   5   6
HETATM    6  C   UNL     1      -9.429   9.846  66.767  1.00  0.00    -0.212 C  
BRANCH   6   7
HETATM    7  C   UNL     1      -8.628  11.088  67.203  1.00  0.00    -0.136 C  
BRANCH   7   8
HETATM    8  C   UNL     1      -9.358  12.344  67.616  1.00  0.00    -0.188 A  
HETATM    9  C   UNL     1     -10.381  12.251  68.574  1.00  0.00    -0.234 A  
HETATM   10  C   UNL     1      -9.024  13.617  67.133  1.00  0.00    -0.235 A  
HETATM   11  F   UNL     1     -10.770  17.069  68.693  1.00  0.00    -0.306 F  
HETATM   12  F   UNL     1     -12.618  15.962  68.981  1.00  0.00    -0.184 F  
HETATM   13  C   UNL     1      -9.650  14.764  67.636  1.00  0.00    -0.208 A  
HETATM   14  F   UNL     1     -11.114  15.998  70.551  1.00  0.00    -0.293 F  
HETATM   15  C   UNL     1     -10.639  14.672  68.621  1.00  0.00    -0.252 A  
HETATM   16  C   UNL     1     -11.276  15.911  69.202  1.00  0.00    -0.334 C  
HETATM   17  C   UNL     1     -11.012  13.398  69.073  1.00  0.00    -0.265 A  
ENDBRANCH   7   8
BRANCH   7  18
HETATM   18  N   UNL     1      -7.322  11.110  67.183  1.00  0.00    -0.114 NA 
HETATM   19  H   UNL     1      -6.762  11.357  66.367  1.00  0.00     0.000 HD 
BRANCH  18  20
HETATM   20  O   UNL     1      -6.791  10.751  68.428  1.00  0.00    -0.065 OA 
BRANCH  20  21
HETATM   21  C   UNL     1      -6.427   9.371  68.434  1.00  0.00    -0.053 C  
BRANCH  21  22
HETATM   22  C   UNL     1      -5.696   9.106  67.113  1.00  0.00    -0.045 C  
HETATM   23  H2  UNL     1      -5.843   7.057  67.173  1.00  0.00     0.000 HD 
HETATM   24  H1  UNL     1      -4.641   7.587  66.132  1.00  0.00     0.000 HD 
HETATM   25  N   UNL     1      -5.127   7.765  67.011  1.00  0.00    -0.026 NA 
ENDBRANCH  21  22
ENDBRANCH  20  21
ENDBRANCH  18  20
ENDBRANCH   7  18
ENDBRANCH   6   7
ENDBRANCH   5   6
ENDBRANCH   4   5
ENDBRANCH   3   4
ENDBRANCH   2   3
TORSDOF 10
ENDMDL
MODEL      227
REMARK 921   NORMALIZED FREE ENERGY PREDICTED BY IDOCK:   -2.68 KCAL/MOL
REMARK 922        TOTAL FREE ENERGY PREDICTED BY IDOCK:   -5.36 KCAL/MOL
REMARK 923 INTER-LIGAND FREE ENERGY PREDICTED BY IDOCK:   -4.81 KCAL/MOL
REMARK 924 INTRA-LIGAND FREE ENERGY PREDICTED BY IDOCK:   -0.55 KCAL/MOL
REMARK 927      BINDING AFFINITY PREDICTED BY RF-SCORE:    0.00 PKD
ROOT
HETATM    1  C   UNL     1      -7.541  17.286  66.280  1.00  0.00    -0.325 C  
HETATM    2  O   UNL     1      -8.558  16.547  65.611  1.00  0.00    -0.359 OA 
ENDROOT
BRANCH   2   3
HETATM    3  C   UNL     1      -8.852  15.344  66.316  1.00  0.00    -0.267 C  
BRANCH   3   4
HETATM    4  C   UNL     1      -8.575  15.534  67.804  1.00  0.00    -0.158 C  
BRANCH   4   5
HETATM    5  C   UNL     1      -8.772  14.208  68.539  1.00  0.00    -0.166 C  
BRANCH   5   6
HETATM    6  C   UNL     1      -9.968  13.414  68.009  1.00  0.00    -0.239 C  
BRANCH   6   7
HETATM    7  C   UNL     1      -9.840  11.909  68.312  1.00  0.00    -0.199 C  
BRANCH   7   8
HETATM    8  C   UNL     1      -9.300  10.973  67.256  1.00  0.00    -0.167 A  
HETATM    9  C   UNL     1     -10.150  10.562  66.216  1.00  0.00    -0.290 A  
HETATM   10  C   UNL     1      -7.968  10.539  67.227  1.00  0.00    -0.114 A  
HETATM   11  F   UNL     1      -6.457   8.352  64.012  1.00  0.00    -0.068 F  
HETATM   12  F   UNL     1      -8.398   7.399  63.793  1.00  0.00    -0.096 F  
HETATM   13  C   UNL     1      -7.486   9.769  66.162  1.00  0.00    -0.101 A  
HETATM   14  F   UNL     1      -7.972   9.258  62.746  1.00  0.00    -0.119 F  
HETATM   15  C   UNL     1      -8.324   9.395  65.105  1.00  0.00    -0.151 A  
HETATM   16  C   UNL     1      -7.792   8.611  63.931  1.00  0.00    -0.147 C  
HETATM   17  C   UNL     1      -9.670   9.786  65.153  1.00  0.00    -0.338 A  
ENDBRANCH   7   8
BRANCH   7  18
HETATM   18  N   UNL     1     -10.230  11.397  69.450  1.00  0.00    -0.433 NA 
HETATM   19  H   UNL     1     -10.313  11.923  70.320  1.00  0.00     0.000 HD 
BRANCH  18  20
HETATM   20  O   UNL     1     -10.520  10.034  69.318  1.00  0.00    -0.198 OA 
BRANCH  20  21
HETATM   21  C   UNL     1     -10.303   9.357  70.555  1.00  0.00    -0.281 C  
BRANCH  21  22
HETATM   22  C   UNL     1     -11.656   8.772  70.977  1.00  0.00    -0.288 C  
HETATM   23  H2  UNL     1     -12.376  10.474  71.873  1.00  0.00     0.000 HD 
HETATM   24  H1  UNL     1     -13.187   9.092  72.367  1.00  0.00     0.000 HD 
HETATM   25  N   UNL     1     -12.287   9.481  72.087  1.00  0.00    -0.309 NA 
ENDBRANCH  21  22
ENDBRANCH  20  21
ENDBRANCH  18  20
ENDBRANCH   7  18
ENDBRANCH   6   7
ENDBRANCH   5   6
ENDBRANCH   4   5
ENDBRANCH   3   4
ENDBRANCH   2   3
TORSDOF 10
ENDMDL
MODEL      228
REMARK 921   NORMALIZED FREE ENERGY PREDICTED BY IDOCK:   -2.59 KCAL/MOL
REMARK 922        TOTAL FREE ENERGY PREDICTED BY IDOCK:   -5.22 KCAL/MOL
REMARK 923 INTER-LIGAND FREE ENERGY PREDICTED BY IDOCK:   -4.30 KCAL/MOL
REMARK 924 INTRA-LIGAND FREE ENERGY PREDICTED BY IDOCK:   -0.91 KCAL/MOL
REMARK 927      BINDING AFFINITY PREDICTED BY RF-SCORE:    0.00 PKD
ROOT
HETATM    1  C   UNL     1     -13.398  10.952  71.822  1.00  0.00    -0.310 C  
HETATM    2  O   UNL     1     -12.513   9.951  71.330  1.00  0.00    -0.339 OA 
ENDROOT
BRANCH   2   3
HETATM    3  C   UNL     1     -12.399   8.880  72.263  1.00  0.00    -0.360 C  
BRANCH   3   4
HETATM    4  C   UNL     1     -12.936   7.593  71.644  1.00  0.00    -0.385 C  
BRANCH   4   5
HETATM    5  C   UNL     1     -11.824   6.545  71.585  1.00  0.00    -0.384 C  
BRANCH   5   6
HETATM    6  C   UNL     1     -11.389   6.229  70.153  1.00  0.00    -0.476 C  
BRANCH   6   7
HETATM    7  C   UNL     1      -9.856   6.175  70.015  1.00  0.00    -0.170 C  
BRANCH   7   8
HETATM    8  C   UNL     1      -9.234   5.575  68.777  1.00  0.00    -0.142 A  
HETATM    9  C   UNL     1      -9.741   4.361  68.284  1.00  0.00    -0.171 A  
HETATM   10  C   UNL     1      -8.209   6.201  68.055  1.00  0.00    -0.114 A  
HETATM   11  F   UNL     1      -6.893   4.703  64.390  1.00  0.00    -0.041 F  
HETATM   12  F   UNL     1      -7.261   2.689  65.121  1.00  0.00    -0.053 F  
HETATM   13  C   UNL     1      -7.748   5.662  66.847  1.00  0.00    -0.100 A  
HETATM   14  F   UNL     1      -8.846   3.790  64.117  1.00  0.00    -0.102 F  
HETATM   15  C   UNL     1      -8.283   4.476  66.336  1.00  0.00    -0.106 A  
HETATM   16  C   UNL     1      -7.824   3.924  65.008  1.00  0.00    -0.086 C  
HETATM   17  C   UNL     1      -9.275   3.819  67.079  1.00  0.00    -0.202 A  
ENDBRANCH   7   8
BRANCH   7  18
HETATM   18  N   UNL     1      -9.062   6.593  70.965  1.00  0.00    -0.156 NA 
HETATM   19  H   UNL     1      -8.595   5.983  71.637  1.00  0.00     0.000 HD 
BRANCH  18  20
HETATM   20  O   UNL     1      -8.935   7.987  70.941  1.00  0.00    -0.136 OA 
BRANCH  20  21
HETATM   21  C   UNL     1      -8.767   8.495  72.263  1.00  0.00    -0.190 C  
BRANCH  21  22
HETATM   22  C   UNL     1      -8.279   7.323  73.123  1.00  0.00    -0.106 C  
HETATM   23  H2  UNL     1     -10.139   6.582  73.583  1.00  0.00     0.000 HD 
HETATM   24  H1  UNL     1      -8.953   6.047  74.640  1.00  0.00     0.000 HD 
HETATM   25  N   UNL     1      -9.277   6.827  74.068  1.00  0.00    -0.177 NA 
ENDBRANCH  21  22
ENDBRANCH  20  21
ENDBRANCH  18  20
ENDBRANCH   7  18
ENDBRANCH   6   7
ENDBRANCH   5   6
ENDBRANCH   4   5
ENDBRANCH   3   4
ENDBRANCH   2   3
TORSDOF 10
ENDMDL
MODEL      229
REMARK 921   NORMALIZED FREE ENERGY PREDICTED BY IDOCK:   -2.57 KCAL/MOL
REMARK 922        TOTAL FREE ENERGY PREDICTED BY IDOCK:   -5.18 KCAL/MOL
REMARK 923 INTER-LIGAND FREE ENERGY PREDICTED BY IDOCK:   -4.49 KCAL/MOL
REMARK 924 INTRA-LIGAND FREE ENERGY PREDICTED BY IDOCK:   -0.69 KCAL/MOL
REMARK 927      BINDING AFFINITY PREDICTED BY RF-SCORE:    0.00 PKD
ROOT
HETATM    1  C   UNL     1     -12.375  14.829  69.244  1.00  0.00    -0.113 C  
HETATM    2  O   UNL     1     -11.673  13.628  68.941  1.00  0.00    -0.291 OA 
ENDROOT
BRANCH   2   3
HETATM    3  C   UNL     1     -11.988  13.180  67.625  1.00  0.00    -0.315 C  
BRANCH   3   4
HETATM    4  C   UNL     1     -11.290  11.853  67.347  1.00  0.00    -0.389 C  
BRANCH   4   5
HETATM    5  C   UNL     1      -9.930  12.111  66.699  1.00  0.00    -0.222 C  
BRANCH   5   6
HETATM    6  C   UNL     1      -8.773  11.993  67.693  1.00  0.00    -0.166 C  
BRANCH   6   7
HETATM    7  C   UNL     1      -7.576  12.875  67.290  1.00  0.00    -0.099 C  
BRANCH   7   8
HETATM    8  C   UNL     1      -7.633  14.367  67.515  1.00  0.00    -0.212 A  
HETATM    9  C   UNL     1      -6.440  15.060  67.777  1.00  0.00    -0.183 A  
HETATM   10  C   UNL     1      -8.817  15.111  67.417  1.00  0.00    -0.199 A  
HETATM   11  F   UNL     1      -8.794  19.280  67.578  1.00  0.00    -0.302 F  
HETATM   12  F   UNL     1      -7.144  19.181  68.989  1.00  0.00    -0.322 F  
HETATM   13  C   UNL     1      -8.799  16.507  67.516  1.00  0.00    -0.198 A  
HETATM   14  F   UNL     1      -6.747  19.248  66.852  1.00  0.00    -0.194 F  
HETATM   15  C   UNL     1      -7.603  17.200  67.734  1.00  0.00    -0.185 A  
HETATM   16  C   UNL     1      -7.575  18.708  67.788  1.00  0.00    -0.232 C  
HETATM   17  C   UNL     1      -6.422  16.457  67.882  1.00  0.00    -0.150 A  
ENDBRANCH   7   8
BRANCH   7  18
HETATM   18  N   UNL     1      -6.516  12.378  66.709  1.00  0.00    -0.468 NA 
HETATM   19  H   UNL     1      -6.017  12.826  65.940  1.00  0.00     0.000 HD 
BRANCH  18  20
HETATM   20  O   UNL     1      -6.156  11.151  67.278  1.00  0.00    -0.056 OA 
BRANCH  20  21
HETATM   21  C   UNL     1      -5.980  10.164  66.262  1.00  0.00    -0.070 C  
BRANCH  21  22
HETATM   22  C   UNL     1      -6.923   9.006  66.610  1.00  0.00    -0.081 C  
HETATM   23  H2  UNL     1      -5.474   7.725  67.302  1.00  0.00     0.000 HD 
HETATM   24  H1  UNL     1      -6.894   6.932  66.892  1.00  0.00     0.000 HD 
HETATM   25  N   UNL     1      -6.266   7.703  66.660  1.00  0.00    -0.044 NA 
ENDBRANCH  21  22
ENDBRANCH  20  21
ENDBRANCH  18  20
ENDBRANCH   7  18
ENDBRANCH   6   7
ENDBRANCH   5   6
ENDBRANCH   4   5
ENDBRANCH   3   4
ENDBRANCH   2   3
TORSDOF 10
ENDMDL
MODEL      230
REMARK 921   NORMALIZED FREE ENERGY PREDICTED BY IDOCK:   -2.54 KCAL/MOL
REMARK 922        TOTAL FREE ENERGY PREDICTED BY IDOCK:   -5.13 KCAL/MOL
REMARK 923 INTER-LIGAND FREE ENERGY PREDICTED BY IDOCK:   -4.30 KCAL/MOL
REMARK 924 INTRA-LIGAND FREE ENERGY PREDICTED BY IDOCK:   -0.84 KCAL/MOL
REMARK 927      BINDING AFFINITY PREDICTED BY RF-SCORE:    0.00 PKD
ROOT
HETATM    1  C   UNL     1      -8.646   3.030  69.864  1.00  0.00    -0.061 C  
HETATM    2  O   UNL     1      -8.821   4.440  69.765  1.00  0.00    -0.078 OA 
ENDROOT
BRANCH   2   3
HETATM    3  C   UNL     1      -7.670   5.124  70.253  1.00  0.00    -0.071 C  
BRANCH   3   4
HETATM    4  C   UNL     1      -6.913   5.761  69.092  1.00  0.00    -0.064 C  
BRANCH   4   5
HETATM    5  C   UNL     1      -7.894   6.143  67.983  1.00  0.00    -0.106 C  
BRANCH   5   6
HETATM    6  C   UNL     1      -7.492   7.430  67.261  1.00  0.00    -0.103 C  
BRANCH   6   7
HETATM    7  C   UNL     1      -8.519   7.832  66.186  1.00  0.00    -0.138 C  
BRANCH   7   8
HETATM    8  C   UNL     1      -9.058   9.242  66.152  1.00  0.00    -0.224 A  
HETATM    9  C   UNL     1      -9.172   9.896  64.914  1.00  0.00    -0.301 A  
HETATM   10  C   UNL     1      -9.510   9.916  67.296  1.00  0.00    -0.181 A  
HETATM   11  F   UNL     1     -11.424  13.613  67.034  1.00  0.00    -0.304 F  
HETATM   12  F   UNL     1     -10.147  14.116  65.349  1.00  0.00    -0.316 F  
HETATM   13  C   UNL     1     -10.112  11.176  67.196  1.00  0.00    -0.223 A  
HETATM   14  F   UNL     1     -12.041  13.097  65.016  1.00  0.00    -0.360 F  
HETATM   15  C   UNL     1     -10.263  11.808  65.957  1.00  0.00    -0.265 A  
HETATM   16  C   UNL     1     -10.960  13.141  65.843  1.00  0.00    -0.271 C  
HETATM   17  C   UNL     1      -9.769  11.160  64.815  1.00  0.00    -0.303 A  
ENDBRANCH   7   8
BRANCH   7  18
HETATM   18  N   UNL     1      -8.984   6.972  65.318  1.00  0.00    -0.355 NA 
HETATM   19  H   UNL     1      -9.974   6.837  65.114  1.00  0.00     0.000 HD 
BRANCH  18  20
HETATM   20  O   UNL     1      -7.945   6.261  64.705  1.00  0.00    -0.113 OA 
BRANCH  20  21
HETATM   21  C   UNL     1      -8.471   5.206  63.900  1.00  0.00    -0.119 C  
BRANCH  21  22
HETATM   22  C   UNL     1      -8.866   4.079  64.861  1.00  0.00    -0.129 C  
HETATM   23  H2  UNL     1     -10.880   4.124  64.459  1.00  0.00     0.000 HD 
HETATM   24  H1  UNL     1     -10.529   3.365  65.912  1.00  0.00     0.000 HD 
HETATM   25  N   UNL     1     -10.266   4.115  65.274  1.00  0.00    -0.215 NA 
ENDBRANCH  21  22
ENDBRANCH  20  21
ENDBRANCH  18  20
ENDBRANCH   7  18
ENDBRANCH   6   7
ENDBRANCH   5   6
ENDBRANCH   4   5
ENDBRANCH   3   4
ENDBRANCH   2   3
TORSDOF 10
ENDMDL
MODEL      231
REMARK 921   NORMALIZED FREE ENERGY PREDICTED BY IDOCK:   -2.52 KCAL/MOL
REMARK 922        TOTAL FREE ENERGY PREDICTED BY IDOCK:   -5.10 KCAL/MOL
REMARK 923 INTER-LIGAND FREE ENERGY PREDICTED BY IDOCK:   -4.16 KCAL/MOL
REMARK 924 INTRA-LIGAND FREE ENERGY PREDICTED BY IDOCK:   -0.94 KCAL/MOL
REMARK 927      BINDING AFFINITY PREDICTED BY RF-SCORE:    0.00 PKD
ROOT
HETATM    1  C   UNL     1      -8.880  16.347  66.061  1.00  0.00    -0.261 C  
HETATM    2  O   UNL     1      -8.995  14.932  66.165  1.00  0.00    -0.232 OA 
ENDROOT
BRANCH   2   3
HETATM    3  C   UNL     1      -9.853  14.575  67.246  1.00  0.00    -0.236 C  
BRANCH   3   4
HETATM    4  C   UNL     1      -9.178  13.522  68.119  1.00  0.00    -0.208 C  
BRANCH   4   5
HETATM    5  C   UNL     1      -8.212  12.692  67.273  1.00  0.00    -0.184 C  
BRANCH   5   6
HETATM    6  C   UNL     1      -7.662  11.480  68.028  1.00  0.00    -0.119 C  
BRANCH   6   7
HETATM    7  C   UNL     1      -8.548  10.234  67.838  1.00  0.00    -0.118 C  
BRANCH   7   8
HETATM    8  C   UNL     1      -9.739  10.015  68.739  1.00  0.00    -0.174 A  
HETATM    9  C   UNL     1      -9.519   9.706  70.092  1.00  0.00    -0.298 A  
HETATM   10  C   UNL     1     -11.064  10.164  68.306  1.00  0.00    -0.285 A  
HETATM   11  F   UNL     1     -14.263  10.013  70.980  1.00  0.00    -0.068 F  
HETATM   12  F   UNL     1     -13.175   8.534  72.144  1.00  0.00    -0.321 F  
HETATM   13  C   UNL     1     -12.130  10.068  69.209  1.00  0.00     0.342 A  
HETATM   14  F   UNL     1     -12.913  10.654  72.557  1.00  0.00    -0.412 F  
HETATM   15  C   UNL     1     -11.907   9.802  70.564  1.00  0.00    -0.316 A  
HETATM   16  C   UNL     1     -13.051   9.751  71.546  1.00  0.00    -0.411 C  
HETATM   17  C   UNL     1     -10.586   9.604  70.994  1.00  0.00    -0.362 A  
ENDBRANCH   7   8
BRANCH   7  18
HETATM   18  N   UNL     1      -8.274   9.321  66.943  1.00  0.00    -0.118 NA 
HETATM   19  H   UNL     1      -7.959   9.521  65.993  1.00  0.00     0.000 HD 
BRANCH  18  20
HETATM   20  O   UNL     1      -8.471   8.034  67.457  1.00  0.00    -0.125 OA 
BRANCH  20  21
HETATM   21  C   UNL     1      -7.224   7.456  67.841  1.00  0.00    -0.091 C  
BRANCH  21  22
HETATM   22  C   UNL     1      -7.454   6.785  69.200  1.00  0.00    -0.095 C  
HETATM   23  H2  UNL     1      -6.650   4.962  68.700  1.00  0.00     0.000 HD 
HETATM   24  H1  UNL     1      -7.646   4.880  70.046  1.00  0.00     0.000 HD 
HETATM   25  N   UNL     1      -7.494   5.326  69.142  1.00  0.00    -0.068 NA 
ENDBRANCH  21  22
ENDBRANCH  20  21
ENDBRANCH  18  20
ENDBRANCH   7  18
ENDBRANCH   6   7
ENDBRANCH   5   6
ENDBRANCH   4   5
ENDBRANCH   3   4
ENDBRANCH   2   3
TORSDOF 10
ENDMDL
MODEL      232
REMARK 921   NORMALIZED FREE ENERGY PREDICTED BY IDOCK:   -2.43 KCAL/MOL
REMARK 922        TOTAL FREE ENERGY PREDICTED BY IDOCK:   -4.95 KCAL/MOL
REMARK 923 INTER-LIGAND FREE ENERGY PREDICTED BY IDOCK:   -4.05 KCAL/MOL
REMARK 924 INTRA-LIGAND FREE ENERGY PREDICTED BY IDOCK:   -0.91 KCAL/MOL
REMARK 927      BINDING AFFINITY PREDICTED BY RF-SCORE:    0.00 PKD
ROOT
HETATM    1  C   UNL     1      -8.764  15.369  66.634  1.00  0.00    -0.296 C  
HETATM    2  O   UNL     1      -9.413  14.102  66.631  1.00  0.00    -0.269 OA 
ENDROOT
BRANCH   2   3
HETATM    3  C   UNL     1      -9.724  13.693  67.960  1.00  0.00    -0.226 C  
BRANCH   3   4
HETATM    4  C   UNL     1      -9.488  12.193  68.110  1.00  0.00    -0.205 C  
BRANCH   4   5
HETATM    5  C   UNL     1      -8.052  11.854  67.708  1.00  0.00    -0.146 C  
BRANCH   5   6
HETATM    6  C   UNL     1      -7.564  10.542  68.325  1.00  0.00    -0.096 C  
BRANCH   6   7
HETATM    7  C   UNL     1      -8.424   9.342  67.885  1.00  0.00    -0.116 C  
BRANCH   7   8
HETATM    8  C   UNL     1      -9.128   8.502  68.924  1.00  0.00    -0.146 A  
HETATM    9  C   UNL     1      -8.368   7.913  69.949  1.00  0.00    -0.122 A  
HETATM   10  C   UNL     1     -10.518   8.326  68.953  1.00  0.00    -0.209 A  
HETATM   11  F   UNL     1     -12.407   6.391  72.130  1.00  0.00    -0.359 F  
HETATM   12  F   UNL     1     -10.680   5.084  72.314  1.00  0.00    -0.258 F  
HETATM   13  C   UNL     1     -11.134   7.636  70.004  1.00  0.00    -0.201 A  
HETATM   14  F   UNL     1     -10.744   6.965  73.405  1.00  0.00    -0.269 F  
HETATM   15  C   UNL     1     -10.379   7.087  71.047  1.00  0.00    -0.216 A  
HETATM   16  C   UNL     1     -11.046   6.391  72.207  1.00  0.00    -0.265 C  
HETATM   17  C   UNL     1      -8.983   7.218  70.998  1.00  0.00    -0.149 A  
ENDBRANCH   7   8
BRANCH   7  18
HETATM   18  N   UNL     1      -8.532   8.992  66.630  1.00  0.00    -0.121 NA 
HETATM   19  H   UNL     1      -8.561   9.648  65.849  1.00  0.00     0.000 HD 
BRANCH  18  20
HETATM   20  O   UNL     1      -8.602   7.600  66.499  1.00  0.00    -0.125 OA 
BRANCH  20  21
HETATM   21  C   UNL     1      -7.353   7.080  66.046  1.00  0.00    -0.075 C  
BRANCH  21  22
HETATM   22  C   UNL     1      -7.152   5.739  66.761  1.00  0.00    -0.070 C  
HETATM   23  H2  UNL     1      -9.144   5.261  66.923  1.00  0.00     0.000 HD 
HETATM   24  H1  UNL     1      -8.185   4.401  67.996  1.00  0.00     0.000 HD 
HETATM   25  N   UNL     1      -8.318   5.293  67.520  1.00  0.00    -0.107 NA 
ENDBRANCH  21  22
ENDBRANCH  20  21
ENDBRANCH  18  20
ENDBRANCH   7  18
ENDBRANCH   6   7
ENDBRANCH   5   6
ENDBRANCH   4   5
ENDBRANCH   3   4
ENDBRANCH   2   3
TORSDOF 10
ENDMDL
MODEL      233
REMARK 921   NORMALIZED FREE ENERGY PREDICTED BY IDOCK:   -2.40 KCAL/MOL
REMARK 922        TOTAL FREE ENERGY PREDICTED BY IDOCK:   -4.92 KCAL/MOL
REMARK 923 INTER-LIGAND FREE ENERGY PREDICTED BY IDOCK:   -4.35 KCAL/MOL
REMARK 924 INTRA-LIGAND FREE ENERGY PREDICTED BY IDOCK:   -0.57 KCAL/MOL
REMARK 927      BINDING AFFINITY PREDICTED BY RF-SCORE:    0.00 PKD
ROOT
HETATM    1  C   UNL     1      -5.206  14.559  69.102  1.00  0.00    -0.082 C  
HETATM    2  O   UNL     1      -5.485  13.173  69.271  1.00  0.00    -0.073 OA 
ENDROOT
BRANCH   2   3
HETATM    3  C   UNL     1      -6.870  12.967  69.534  1.00  0.00     0.099 C  
BRANCH   3   4
HETATM    4  C   UNL     1      -7.582  14.311  69.651  1.00  0.00     0.239 C  
BRANCH   4   5
HETATM    5  C   UNL     1      -8.802  14.331  68.730  1.00  0.00    -0.094 C  
BRANCH   5   6
HETATM    6  C   UNL     1      -8.528  13.675  67.376  1.00  0.00    -0.206 C  
BRANCH   6   7
HETATM    7  C   UNL     1      -9.794  13.030  66.781  1.00  0.00    -0.243 C  
BRANCH   7   8
HETATM    8  C   UNL     1     -10.013  11.542  66.917  1.00  0.00    -0.231 A  
HETATM    9  C   UNL     1      -9.908  10.733  65.773  1.00  0.00    -0.292 A  
HETATM   10  C   UNL     1     -10.259  10.914  68.146  1.00  0.00    -0.197 A  
HETATM   11  F   UNL     1     -10.370   6.757  68.487  1.00  0.00    -0.156 F  
HETATM   12  F   UNL     1     -11.238   6.652  66.497  1.00  0.00    -0.370 F  
HETATM   13  C   UNL     1     -10.336   9.519  68.237  1.00  0.00    -0.244 A  
HETATM   14  F   UNL     1      -9.076   6.628  66.746  1.00  0.00    -0.124 F  
HETATM   15  C   UNL     1     -10.189   8.712  67.103  1.00  0.00    -0.353 A  
HETATM   16  C   UNL     1     -10.219   7.207  67.210  1.00  0.00    -0.245 C  
HETATM   17  C   UNL     1      -9.991   9.338  65.863  1.00  0.00    -0.289 A  
ENDBRANCH   7   8
BRANCH   7  18
HETATM   18  N   UNL     1     -10.676  13.726  66.113  1.00  0.00    -0.281 NA 
HETATM   19  H   UNL     1     -11.405  13.320  65.526  1.00  0.00     0.000 HD 
BRANCH  18  20
HETATM   20  O   UNL     1     -10.488  15.099  66.307  1.00  0.00    -0.287 OA 
BRANCH  20  21
HETATM   21  C   UNL     1     -10.819  15.819  65.121  1.00  0.00    -0.428 C  
BRANCH  21  22
HETATM   22  C   UNL     1     -11.708  14.894  64.281  1.00  0.00    -0.247 C  
HETATM   23  H2  UNL     1     -12.866  16.373  63.450  1.00  0.00     0.000 HD 
HETATM   24  H1  UNL     1     -13.588  14.863  63.362  1.00  0.00     0.000 HD 
HETATM   25  N   UNL     1     -12.997  15.478  63.921  1.00  0.00    -0.241 NA 
ENDBRANCH  21  22
ENDBRANCH  20  21
ENDBRANCH  18  20
ENDBRANCH   7  18
ENDBRANCH   6   7
ENDBRANCH   5   6
ENDBRANCH   4   5
ENDBRANCH   3   4
ENDBRANCH   2   3
TORSDOF 10
ENDMDL
MODEL      234
REMARK 921   NORMALIZED FREE ENERGY PREDICTED BY IDOCK:   -2.37 KCAL/MOL
REMARK 922        TOTAL FREE ENERGY PREDICTED BY IDOCK:   -4.86 KCAL/MOL
REMARK 923 INTER-LIGAND FREE ENERGY PREDICTED BY IDOCK:   -3.84 KCAL/MOL
REMARK 924 INTRA-LIGAND FREE ENERGY PREDICTED BY IDOCK:   -1.01 KCAL/MOL
REMARK 927      BINDING AFFINITY PREDICTED BY RF-SCORE:    0.00 PKD
ROOT
HETATM    1  C   UNL     1      -6.077  11.720  67.193  1.00  0.00    -0.144 C  
HETATM    2  O   UNL     1      -5.405  10.467  67.107  1.00  0.00    -0.040 OA 
ENDROOT
BRANCH   2   3
HETATM    3  C   UNL     1      -5.277   9.876  68.397  1.00  0.00    -0.036 C  
BRANCH   3   4
HETATM    4  C   UNL     1      -5.745   8.425  68.352  1.00  0.00    -0.038 C  
BRANCH   4   5
HETATM    5  C   UNL     1      -6.241   7.999  69.734  1.00  0.00    -0.029 C  
BRANCH   5   6
HETATM    6  C   UNL     1      -7.707   7.563  69.724  1.00  0.00    -0.095 C  
BRANCH   6   7
HETATM    7  C   UNL     1      -8.653   8.718  70.104  1.00  0.00    -0.146 C  
BRANCH   7   8
HETATM    8  C   UNL     1      -9.265   9.574  69.021  1.00  0.00    -0.155 A  
HETATM    9  C   UNL     1     -10.070  10.665  69.391  1.00  0.00    -0.199 A  
HETATM   10  C   UNL     1      -9.023   9.370  67.656  1.00  0.00    -0.125 A  
HETATM   11  F   UNL     1     -10.365  12.073  64.774  1.00  0.00    -0.268 F  
HETATM   12  F   UNL     1     -12.127  12.441  65.992  1.00  0.00    -0.463 F  
HETATM   13  C   UNL     1      -9.516  10.263  66.697  1.00  0.00    -0.203 A  
HETATM   14  F   UNL     1     -10.330  13.630  66.289  1.00  0.00    -0.271 F  
HETATM   15  C   UNL     1     -10.282  11.373  67.071  1.00  0.00    -0.246 A  
HETATM   16  C   UNL     1     -10.769  12.365  66.043  1.00  0.00    -0.261 C  
HETATM   17  C   UNL     1     -10.569  11.555  68.432  1.00  0.00    -0.227 A  
ENDBRANCH   7   8
BRANCH   7  18
HETATM   18  N   UNL     1      -8.912   9.019  71.350  1.00  0.00    -0.297 NA 
HETATM   19  H   UNL     1      -8.931   9.969  71.721  1.00  0.00     0.000 HD 
BRANCH  18  20
HETATM   20  O   UNL     1      -9.160   7.868  72.106  1.00  0.00    -0.128 OA 
BRANCH  20  21
HETATM   21  C   UNL     1      -9.114   8.168  73.500  1.00  0.00    -0.207 C  
BRANCH  21  22
HETATM   22  C   UNL     1      -8.637   6.894  74.207  1.00  0.00    -0.163 C  
HETATM   23  H2  UNL     1      -7.026   6.538  72.983  1.00  0.00     0.000 HD 
HETATM   24  H1  UNL     1      -7.500   5.176  73.838  1.00  0.00     0.000 HD 
HETATM   25  N   UNL     1      -7.818   6.023  73.368  1.00  0.00    -0.101 NA 
ENDBRANCH  21  22
ENDBRANCH  20  21
ENDBRANCH  18  20
ENDBRANCH   7  18
ENDBRANCH   6   7
ENDBRANCH   5   6
ENDBRANCH   4   5
ENDBRANCH   3   4
ENDBRANCH   2   3
TORSDOF 10
ENDMDL
MODEL      235
REMARK 921   NORMALIZED FREE ENERGY PREDICTED BY IDOCK:   -2.29 KCAL/MOL
REMARK 922        TOTAL FREE ENERGY PREDICTED BY IDOCK:   -4.73 KCAL/MOL
REMARK 923 INTER-LIGAND FREE ENERGY PREDICTED BY IDOCK:   -3.77 KCAL/MOL
REMARK 924 INTRA-LIGAND FREE ENERGY PREDICTED BY IDOCK:   -0.96 KCAL/MOL
REMARK 927      BINDING AFFINITY PREDICTED BY RF-SCORE:    0.00 PKD
ROOT
HETATM    1  C   UNL     1      -7.061  11.235  66.879  1.00  0.00    -0.139 C  
HETATM    2  O   UNL     1      -6.441  10.549  65.796  1.00  0.00    -0.115 OA 
ENDROOT
BRANCH   2   3
HETATM    3  C   UNL     1      -6.296   9.163  66.096  1.00  0.00    -0.064 C  
BRANCH   3   4
HETATM    4  C   UNL     1      -6.205   8.359  64.803  1.00  0.00    -0.064 C  
BRANCH   4   5
HETATM    5  C   UNL     1      -6.852   6.988  65.001  1.00  0.00    -0.051 C  
BRANCH   5   6
HETATM    6  C   UNL     1      -8.380   7.048  64.960  1.00  0.00    -0.051 C  
BRANCH   6   7
HETATM    7  C   UNL     1      -9.023   5.993  65.880  1.00  0.00    -0.133 C  
BRANCH   7   8
HETATM    8  C   UNL     1      -9.606   6.412  67.209  1.00  0.00    -0.143 A  
HETATM    9  C   UNL     1      -9.324   7.699  67.699  1.00  0.00    -0.158 A  
HETATM   10  C   UNL     1     -10.468   5.599  67.957  1.00  0.00    -0.264 A  
HETATM   11  F   UNL     1     -12.405   7.026  71.365  1.00  0.00    -0.331 F  
HETATM   12  F   UNL     1     -10.657   8.241  71.806  1.00  0.00    -0.251 F  
HETATM   13  C   UNL     1     -11.078   6.078  69.123  1.00  0.00    -0.405 A  
HETATM   14  F   UNL     1     -12.248   9.036  70.554  1.00  0.00    -0.208 F  
HETATM   15  C   UNL     1     -10.829   7.375  69.586  1.00  0.00    -0.222 A  
HETATM   16  C   UNL     1     -11.527   7.910  70.812  1.00  0.00    -0.263 C  
HETATM   17  C   UNL     1      -9.929   8.176  68.869  1.00  0.00    -0.198 A  
ENDBRANCH   7   8
BRANCH   7  18
HETATM   18  N   UNL     1      -9.040   4.724  65.571  1.00  0.00    -0.147 NA 
HETATM   19  H   UNL     1      -9.122   3.966  66.249  1.00  0.00     0.000 HD 
BRANCH  18  20
HETATM   20  O   UNL     1      -8.930   4.539  64.188  1.00  0.00    -0.145 OA 
BRANCH  20  21
HETATM   21  C   UNL     1      -8.650   3.172  63.889  1.00  0.00    -0.089 C  
BRANCH  21  22
HETATM   22  C   UNL     1      -9.970   2.409  64.054  1.00  0.00    -0.107 C  
HETATM   23  H2  UNL     1     -11.123   3.694  62.941  1.00  0.00     0.000 HD 
HETATM   24  H1  UNL     1     -12.037   2.725  63.960  1.00  0.00     0.000 HD 
HETATM   25  N   UNL     1     -11.159   3.232  63.850  1.00  0.00    -0.219 NA 
ENDBRANCH  21  22
ENDBRANCH  20  21
ENDBRANCH  18  20
ENDBRANCH   7  18
ENDBRANCH   6   7
ENDBRANCH   5   6
ENDBRANCH   4   5
ENDBRANCH   3   4
ENDBRANCH   2   3
TORSDOF 10
ENDMDL
MODEL      236
REMARK 921   NORMALIZED FREE ENERGY PREDICTED BY IDOCK:   -2.25 KCAL/MOL
REMARK 922        TOTAL FREE ENERGY PREDICTED BY IDOCK:   -4.67 KCAL/MOL
REMARK 923 INTER-LIGAND FREE ENERGY PREDICTED BY IDOCK:   -4.10 KCAL/MOL
REMARK 924 INTRA-LIGAND FREE ENERGY PREDICTED BY IDOCK:   -0.57 KCAL/MOL
REMARK 927      BINDING AFFINITY PREDICTED BY RF-SCORE:    0.00 PKD
ROOT
HETATM    1  C   UNL     1      -9.722   3.308  71.019  1.00  0.00    -0.129 C  
HETATM    2  O   UNL     1     -10.357   4.582  71.037  1.00  0.00    -0.142 OA 
ENDROOT
BRANCH   2   3
HETATM    3  C   UNL     1      -9.590   5.516  71.791  1.00  0.00    -0.151 C  
BRANCH   3   4
HETATM    4  C   UNL     1      -8.767   6.391  70.850  1.00  0.00    -0.136 C  
BRANCH   4   5
HETATM    5  C   UNL     1      -9.698   7.149  69.903  1.00  0.00    -0.170 C  
BRANCH   5   6
HETATM    6  C   UNL     1      -9.116   8.491  69.456  1.00  0.00    -0.150 C  
BRANCH   6   7
HETATM    7  C   UNL     1      -9.176   8.664  67.927  1.00  0.00    -0.139 C  
BRANCH   7   8
HETATM    8  C   UNL     1      -9.335  10.043  67.333  1.00  0.00    -0.167 A  
HETATM    9  C   UNL     1     -10.564  10.393  66.747  1.00  0.00    -0.270 A  
HETATM   10  C   UNL     1      -8.332  11.021  67.389  1.00  0.00    -0.126 A  
HETATM   11  F   UNL     1      -9.037  14.943  66.154  1.00  0.00    -0.298 F  
HETATM   12  F   UNL     1     -10.368  14.182  64.614  1.00  0.00    -0.422 F  
HETATM   13  C   UNL     1      -8.571  12.322  66.931  1.00  0.00    -0.182 A  
HETATM   14  F   UNL     1     -11.146  14.650  66.591  1.00  0.00    -0.305 F  
HETATM   15  C   UNL     1      -9.809  12.681  66.387  1.00  0.00    -0.263 A  
HETATM   16  C   UNL     1     -10.084  14.096  65.942  1.00  0.00    -0.321 C  
HETATM   17  C   UNL     1     -10.800  11.694  66.283  1.00  0.00    -0.333 A  
ENDBRANCH   7   8
BRANCH   7  18
HETATM   18  N   UNL     1      -9.142   7.641  67.113  1.00  0.00    -0.124 NA 
HETATM   19  H   UNL     1      -9.947   7.290  66.595  1.00  0.00     0.000 HD 
BRANCH  18  20
HETATM   20  O   UNL     1      -7.856   7.092  67.047  1.00  0.00    -0.105 OA 
BRANCH  20  21
HETATM   21  C   UNL     1      -7.909   5.763  66.530  1.00  0.00    -0.101 C  
BRANCH  21  22
HETATM   22  C   UNL     1      -6.458   5.290  66.389  1.00  0.00    -0.044 C  
HETATM   23  H2  UNL     1      -6.645   3.610  67.557  1.00  0.00     0.000 HD 
HETATM   24  H1  UNL     1      -5.050   4.093  67.372  1.00  0.00     0.000 HD 
HETATM   25  N   UNL     1      -6.015   4.407  67.465  1.00  0.00    -0.023 NA 
ENDBRANCH  21  22
ENDBRANCH  20  21
ENDBRANCH  18  20
ENDBRANCH   7  18
ENDBRANCH   6   7
ENDBRANCH   5   6
ENDBRANCH   4   5
ENDBRANCH   3   4
ENDBRANCH   2   3
TORSDOF 10
ENDMDL
MODEL      237
REMARK 921   NORMALIZED FREE ENERGY PREDICTED BY IDOCK:   -2.21 KCAL/MOL
REMARK 922        TOTAL FREE ENERGY PREDICTED BY IDOCK:   -4.61 KCAL/MOL
REMARK 923 INTER-LIGAND FREE ENERGY PREDICTED BY IDOCK:   -4.28 KCAL/MOL
REMARK 924 INTRA-LIGAND FREE ENERGY PREDICTED BY IDOCK:   -0.33 KCAL/MOL
REMARK 927      BINDING AFFINITY PREDICTED BY RF-SCORE:    0.00 PKD
ROOT
HETATM    1  C   UNL     1      -6.408   6.388  69.083  1.00  0.00    -0.035 C  
HETATM    2  O   UNL     1      -6.285   5.001  69.378  1.00  0.00    -0.030 OA 
ENDROOT
BRANCH   2   3
HETATM    3  C   UNL     1      -7.569   4.402  69.524  1.00  0.00    -0.054 C  
BRANCH   3   4
HETATM    4  C   UNL     1      -7.499   3.262  70.535  1.00  0.00    -0.040 C  
BRANCH   4   5
HETATM    5  C   UNL     1      -8.878   3.035  71.155  1.00  0.00    -0.141 C  
BRANCH   5   6
HETATM    6  C   UNL     1      -9.882   4.124  70.769  1.00  0.00    -0.248 C  
BRANCH   6   7
HETATM    7  C   UNL     1      -9.822   5.328  71.727  1.00  0.00    -0.170 C  
BRANCH   7   8
HETATM    8  C   UNL     1     -10.262   6.691  71.248  1.00  0.00    -0.222 A  
HETATM    9  C   UNL     1     -11.636   6.978  71.188  1.00  0.00    -0.351 A  
HETATM   10  C   UNL     1      -9.362   7.712  70.915  1.00  0.00    -0.158 A  
HETATM   11  F   UNL     1     -10.670  11.582  70.070  1.00  0.00    -0.091 F  
HETATM   12  F   UNL     1     -12.458  10.742  69.163  1.00  0.00    -0.362 F  
HETATM   13  C   UNL     1      -9.819   8.996  70.591  1.00  0.00    -0.284 A  
HETATM   14  F   UNL     1     -12.428  11.203  71.289  1.00  0.00    -0.431 F  
HETATM   15  C   UNL     1     -11.186   9.291  70.573  1.00  0.00    -0.315 A  
HETATM   16  C   UNL     1     -11.676  10.687  70.277  1.00  0.00    -0.344 C  
HETATM   17  C   UNL     1     -12.094   8.260  70.858  1.00  0.00    -0.149 A  
ENDBRANCH   7   8
BRANCH   7  18
HETATM   18  N   UNL     1      -9.354   5.222  72.943  1.00  0.00    -0.137 NA 
HETATM   19  H   UNL     1      -9.151   4.336  73.407  1.00  0.00     0.000 HD 
BRANCH  18  20
HETATM   20  O   UNL     1      -9.167   6.481  73.524  1.00  0.00    -0.130 OA 
BRANCH  20  21
HETATM   21  C   UNL     1      -7.987   6.489  74.327  1.00  0.00    -0.108 C  
BRANCH  21  22
HETATM   22  C   UNL     1      -7.037   7.514  73.696  1.00  0.00    -0.087 C  
HETATM   23  H2  UNL     1      -7.443   9.045  75.004  1.00  0.00     0.000 HD 
HETATM   24  H1  UNL     1      -6.746   9.583  73.577  1.00  0.00     0.000 HD 
HETATM   25  N   UNL     1      -7.378   8.902  73.997  1.00  0.00    -0.397 NA 
ENDBRANCH  21  22
ENDBRANCH  20  21
ENDBRANCH  18  20
ENDBRANCH   7  18
ENDBRANCH   6   7
ENDBRANCH   5   6
ENDBRANCH   4   5
ENDBRANCH   3   4
ENDBRANCH   2   3
TORSDOF 10
ENDMDL
MODEL      238
REMARK 921   NORMALIZED FREE ENERGY PREDICTED BY IDOCK:   -2.17 KCAL/MOL
REMARK 922        TOTAL FREE ENERGY PREDICTED BY IDOCK:   -4.54 KCAL/MOL
REMARK 923 INTER-LIGAND FREE ENERGY PREDICTED BY IDOCK:   -3.80 KCAL/MOL
REMARK 924 INTRA-LIGAND FREE ENERGY PREDICTED BY IDOCK:   -0.74 KCAL/MOL
REMARK 927      BINDING AFFINITY PREDICTED BY RF-SCORE:    0.00 PKD
ROOT
HETATM    1  C   UNL     1     -10.745  12.891  64.704  1.00  0.00    -0.353 C  
HETATM    2  O   UNL     1      -9.946  11.849  65.255  1.00  0.00    -0.246 OA 
ENDROOT
BRANCH   2   3
HETATM    3  C   UNL     1      -9.552  10.928  64.242  1.00  0.00    -0.272 C  
BRANCH   3   4
HETATM    4  C   UNL     1      -9.493   9.517  64.818  1.00  0.00    -0.178 C  
BRANCH   4   5
HETATM    5  C   UNL     1      -8.903   9.560  66.229  1.00  0.00    -0.172 C  
BRANCH   5   6
HETATM    6  C   UNL     1      -7.965   8.384  66.510  1.00  0.00    -0.096 C  
BRANCH   6   7
HETATM    7  C   UNL     1      -8.733   7.133  66.976  1.00  0.00    -0.123 C  
BRANCH   7   8
HETATM    8  C   UNL     1      -9.083   6.969  68.436  1.00  0.00    -0.127 A  
HETATM    9  C   UNL     1     -10.176   6.157  68.785  1.00  0.00    -0.226 A  
HETATM   10  C   UNL     1      -8.331   7.540  69.472  1.00  0.00    -0.131 A  
HETATM   11  F   UNL     1      -9.090   6.633  73.473  1.00  0.00    -0.127 F  
HETATM   12  F   UNL     1     -11.206   6.482  73.002  1.00  0.00    -0.262 F  
HETATM   13  C   UNL     1      -8.625   7.260  70.812  1.00  0.00    -0.144 A  
HETATM   14  F   UNL     1      -9.925   4.732  72.834  1.00  0.00    -0.162 F  
HETATM   15  C   UNL     1      -9.688   6.417  71.157  1.00  0.00    -0.191 A  
HETATM   16  C   UNL     1      -9.972   6.073  72.599  1.00  0.00    -0.176 C  
HETATM   17  C   UNL     1     -10.474   5.882  70.126  1.00  0.00    -0.329 A  
ENDBRANCH   7   8
BRANCH   7  18
HETATM   18  N   UNL     1      -9.057   6.173  66.151  1.00  0.00    -0.160 NA 
HETATM   19  H   UNL     1     -10.015   5.920  65.908  1.00  0.00     0.000 HD 
BRANCH  18  20
HETATM   20  O   UNL     1      -7.918   5.536  65.645  1.00  0.00    -0.102 OA 
BRANCH  20  21
HETATM   21  C   UNL     1      -8.109   4.122  65.619  1.00  0.00    -0.101 C  
BRANCH  21  22
HETATM   22  C   UNL     1      -7.247   3.585  64.470  1.00  0.00    -0.062 C  
HETATM   23  H2  UNL     1      -7.522   5.182  63.208  1.00  0.00     0.000 HD 
HETATM   24  H1  UNL     1      -6.995   3.808  62.404  1.00  0.00     0.000 HD 
HETATM   25  N   UNL     1      -7.569   4.164  63.169  1.00  0.00    -0.060 NA 
ENDBRANCH  21  22
ENDBRANCH  20  21
ENDBRANCH  18  20
ENDBRANCH   7  18
ENDBRANCH   6   7
ENDBRANCH   5   6
ENDBRANCH   4   5
ENDBRANCH   3   4
ENDBRANCH   2   3
TORSDOF 10
ENDMDL
MODEL      239
REMARK 921   NORMALIZED FREE ENERGY PREDICTED BY IDOCK:   -2.09 KCAL/MOL
REMARK 922        TOTAL FREE ENERGY PREDICTED BY IDOCK:   -4.43 KCAL/MOL
REMARK 923 INTER-LIGAND FREE ENERGY PREDICTED BY IDOCK:   -4.11 KCAL/MOL
REMARK 924 INTRA-LIGAND FREE ENERGY PREDICTED BY IDOCK:   -0.31 KCAL/MOL
REMARK 927      BINDING AFFINITY PREDICTED BY RF-SCORE:    0.00 PKD
ROOT
HETATM    1  C   UNL     1      -8.321  14.769  66.940  1.00  0.00    -0.151 C  
HETATM    2  O   UNL     1      -9.138  13.615  67.105  1.00  0.00    -0.220 OA 
ENDROOT
BRANCH   2   3
HETATM    3  C   UNL     1      -8.992  13.079  68.417  1.00  0.00    -0.126 C  
BRANCH   3   4
HETATM    4  C   UNL     1      -8.806  11.567  68.343  1.00  0.00    -0.163 C  
BRANCH   4   5
HETATM    5  C   UNL     1      -7.619  11.236  67.439  1.00  0.00    -0.120 C  
BRANCH   5   6
HETATM    6  C   UNL     1      -6.982   9.886  67.775  1.00  0.00    -0.085 C  
BRANCH   6   7
HETATM    7  C   UNL     1      -7.956   8.716  67.539  1.00  0.00    -0.106 C  
BRANCH   7   8
HETATM    8  C   UNL     1      -8.846   8.242  68.662  1.00  0.00    -0.133 A  
HETATM    9  C   UNL     1      -8.253   7.730  69.829  1.00  0.00    -0.129 A  
HETATM   10  C   UNL     1     -10.244   8.342  68.625  1.00  0.00    -0.220 A  
HETATM   11  F   UNL     1     -12.583   7.455  71.964  1.00  0.00    -0.316 F  
HETATM   12  F   UNL     1     -11.160   5.905  72.506  1.00  0.00    -0.257 F  
HETATM   13  C   UNL     1     -11.019   8.000  69.740  1.00  0.00    -0.138 A  
HETATM   14  F   UNL     1     -10.882   7.939  73.225  1.00  0.00    -0.412 F  
HETATM   15  C   UNL     1     -10.423   7.530  70.916  1.00  0.00    -0.218 A  
HETATM   16  C   UNL     1     -11.254   7.212  72.135  1.00  0.00    -0.255 C  
HETATM   17  C   UNL     1      -9.029   7.381  70.942  1.00  0.00    -0.149 A  
ENDBRANCH   7   8
BRANCH   7  18
HETATM   18  N   UNL     1      -8.006   8.078  66.399  1.00  0.00    -0.099 NA 
HETATM   19  H   UNL     1      -7.791   7.087  66.283  1.00  0.00     0.000 HD 
BRANCH  18  20
HETATM   20  O   UNL     1      -8.393   8.930  65.359  1.00  0.00    -0.130 OA 
BRANCH  20  21
HETATM   21  C   UNL     1      -9.755   9.325  65.519  1.00  0.00    -0.177 C  
BRANCH  21  22
HETATM   22  C   UNL     1      -9.990  10.491  64.553  1.00  0.00    -0.345 C  
HETATM   23  H2  UNL     1      -8.560   9.948  63.181  1.00  0.00     0.000 HD 
HETATM   24  H1  UNL     1      -9.004  11.560  63.047  1.00  0.00     0.000 HD 
HETATM   25  N   UNL     1      -8.848  10.784  63.690  1.00  0.00    -0.164 NA 
ENDBRANCH  21  22
ENDBRANCH  20  21
ENDBRANCH  18  20
ENDBRANCH   7  18
ENDBRANCH   6   7
ENDBRANCH   5   6
ENDBRANCH   4   5
ENDBRANCH   3   4
ENDBRANCH   2   3
TORSDOF 10
ENDMDL
MODEL      240
REMARK 921   NORMALIZED FREE ENERGY PREDICTED BY IDOCK:   -1.98 KCAL/MOL
REMARK 922        TOTAL FREE ENERGY PREDICTED BY IDOCK:   -4.25 KCAL/MOL
REMARK 923 INTER-LIGAND FREE ENERGY PREDICTED BY IDOCK:   -3.64 KCAL/MOL
REMARK 924 INTRA-LIGAND FREE ENERGY PREDICTED BY IDOCK:   -0.61 KCAL/MOL
REMARK 927      BINDING AFFINITY PREDICTED BY RF-SCORE:    0.00 PKD
ROOT
HETATM    1  C   UNL     1     -12.120   1.605  73.559  1.00  0.00    -0.134 C  
HETATM    2  O   UNL     1     -10.903   1.776  74.279  1.00  0.00    -0.133 OA 
ENDROOT
BRANCH   2   3
HETATM    3  C   UNL     1      -9.931   2.438  73.474  1.00  0.00    -0.099 C  
BRANCH   3   4
HETATM    4  C   UNL     1      -9.372   1.470  72.435  1.00  0.00    -0.120 C  
BRANCH   4   5
HETATM    5  C   UNL     1      -9.657   2.000  71.030  1.00  0.00    -0.196 C  
BRANCH   5   6
HETATM    6  C   UNL     1      -8.874   3.275  70.712  1.00  0.00    -0.143 C  
BRANCH   6   7
HETATM    7  C   UNL     1      -9.356   3.936  69.406  1.00  0.00    -0.176 C  
BRANCH   7   8
HETATM    8  C   UNL     1      -9.688   5.409  69.389  1.00  0.00    -0.226 A  
HETATM    9  C   UNL     1      -8.896   6.292  70.142  1.00  0.00    -0.149 A  
HETATM   10  C   UNL     1     -10.716   5.952  68.607  1.00  0.00    -0.339 A  
HETATM   11  F   UNL     1     -11.243  10.076  68.254  1.00  0.00    -0.286 F  
HETATM   12  F   UNL     1     -10.585  10.300  70.314  1.00  0.00    -0.307 F  
HETATM   13  C   UNL     1     -10.908   7.337  68.532  1.00  0.00    -0.106 A  
HETATM   14  F   UNL     1      -9.131  10.335  68.696  1.00  0.00    -0.128 F  
HETATM   15  C   UNL     1     -10.091   8.218  69.250  1.00  0.00    -0.199 A  
HETATM   16  C   UNL     1     -10.263   9.712  69.128  1.00  0.00    -0.202 C  
HETATM   17  C   UNL     1      -9.092   7.678  70.073  1.00  0.00    -0.151 A  
ENDBRANCH   7   8
BRANCH   7  18
HETATM   18  N   UNL     1      -9.535   3.249  68.309  1.00  0.00    -0.180 NA 
HETATM   19  H   UNL     1     -10.360   2.683  68.112  1.00  0.00     0.000 HD 
BRANCH  18  20
HETATM   20  O   UNL     1      -8.447   3.392  67.440  1.00  0.00    -0.092 OA 
BRANCH  20  21
HETATM   21  C   UNL     1      -8.876   3.283  66.083  1.00  0.00    -0.139 C  
BRANCH  21  22
HETATM   22  C   UNL     1      -7.672   2.772  65.283  1.00  0.00    -0.077 C  
HETATM   23  H2  UNL     1      -7.120   4.591  64.505  1.00  0.00     0.000 HD 
HETATM   24  H1  UNL     1      -6.485   3.301  63.643  1.00  0.00     0.000 HD 
HETATM   25  N   UNL     1      -7.286   3.641  64.175  1.00  0.00    -0.058 NA 
ENDBRANCH  21  22
ENDBRANCH  20  21
ENDBRANCH  18  20
ENDBRANCH   7  18
ENDBRANCH   6   7
ENDBRANCH   5   6
ENDBRANCH   4   5
ENDBRANCH   3   4
ENDBRANCH   2   3
TORSDOF 10
ENDMDL
MODEL      241
REMARK 921   NORMALIZED FREE ENERGY PREDICTED BY IDOCK:   -1.94 KCAL/MOL
REMARK 922        TOTAL FREE ENERGY PREDICTED BY IDOCK:   -4.18 KCAL/MOL
REMARK 923 INTER-LIGAND FREE ENERGY PREDICTED BY IDOCK:   -2.91 KCAL/MOL
REMARK 924 INTRA-LIGAND FREE ENERGY PREDICTED BY IDOCK:   -1.26 KCAL/MOL
REMARK 927      BINDING AFFINITY PREDICTED BY RF-SCORE:    0.00 PKD
ROOT
HETATM    1  C   UNL     1      -5.674   6.744  67.517  1.00  0.00    -0.016 C  
HETATM    2  O   UNL     1      -5.688   7.025  68.913  1.00  0.00    -0.017 OA 
ENDROOT
BRANCH   2   3
HETATM    3  C   UNL     1      -6.748   6.322  69.556  1.00  0.00    -0.056 C  
BRANCH   3   4
HETATM    4  C   UNL     1      -7.517   7.269  70.472  1.00  0.00    -0.083 C  
BRANCH   4   5
HETATM    5  C   UNL     1      -8.918   6.713  70.729  1.00  0.00    -0.151 C  
BRANCH   5   6
HETATM    6  C   UNL     1      -9.794   6.722  69.475  1.00  0.00    -0.164 C  
BRANCH   6   7
HETATM    7  C   UNL     1      -9.929   8.136  68.878  1.00  0.00    -0.192 C  
BRANCH   7   8
HETATM    8  C   UNL     1      -9.245   8.467  67.573  1.00  0.00    -0.151 A  
HETATM    9  C   UNL     1      -8.277   9.485  67.553  1.00  0.00    -0.121 A  
HETATM   10  C   UNL     1      -9.487   7.766  66.383  1.00  0.00    -0.245 A  
HETATM   11  F   UNL     1      -7.203   8.436  62.956  1.00  0.00    -0.090 F  
HETATM   12  F   UNL     1      -7.050  10.532  63.510  1.00  0.00    -0.130 F  
HETATM   13  C   UNL     1      -8.741   8.033  65.228  1.00  0.00    -0.062 A  
HETATM   14  F   UNL     1      -5.575   9.105  64.230  1.00  0.00    -0.063 F  
HETATM   15  C   UNL     1      -7.747   9.017  65.222  1.00  0.00    -0.100 A  
HETATM   16  C   UNL     1      -6.907   9.268  63.994  1.00  0.00    -0.092 C  
HETATM   17  C   UNL     1      -7.535   9.755  66.396  1.00  0.00    -0.099 A  
ENDBRANCH   7   8
BRANCH   7  18
HETATM   18  N   UNL     1     -10.584   9.086  69.491  1.00  0.00    -0.226 NA 
HETATM   19  H   UNL     1     -10.278  10.059  69.539  1.00  0.00     0.000 HD 
BRANCH  18  20
HETATM   20  O   UNL     1     -11.758   8.596  70.074  1.00  0.00     0.055 OA 
BRANCH  20  21
HETATM   21  C   UNL     1     -12.144   9.413  71.178  1.00  0.00    -0.328 C  
BRANCH  21  22
HETATM   22  C   UNL     1     -12.090   8.520  72.423  1.00  0.00    -0.367 C  
HETATM   23  H2  UNL     1     -11.975   6.731  71.422  1.00  0.00     0.000 HD 
HETATM   24  H1  UNL     1     -12.477   6.549  73.011  1.00  0.00     0.000 HD 
HETATM   25  N   UNL     1     -12.514   7.143  72.183  1.00  0.00    -0.213 NA 
ENDBRANCH  21  22
ENDBRANCH  20  21
ENDBRANCH  18  20
ENDBRANCH   7  18
ENDBRANCH   6   7
ENDBRANCH   5   6
ENDBRANCH   4   5
ENDBRANCH   3   4
ENDBRANCH   2   3
TORSDOF 10
ENDMDL
MODEL      242
REMARK 921   NORMALIZED FREE ENERGY PREDICTED BY IDOCK:   -1.93 KCAL/MOL
REMARK 922        TOTAL FREE ENERGY PREDICTED BY IDOCK:   -4.17 KCAL/MOL
REMARK 923 INTER-LIGAND FREE ENERGY PREDICTED BY IDOCK:   -3.64 KCAL/MOL
REMARK 924 INTRA-LIGAND FREE ENERGY PREDICTED BY IDOCK:   -0.52 KCAL/MOL
REMARK 927      BINDING AFFINITY PREDICTED BY RF-SCORE:    0.00 PKD
ROOT
HETATM    1  C   UNL     1     -10.832  13.270  66.965  1.00  0.00    -0.269 C  
HETATM    2  O   UNL     1      -9.485  13.706  66.810  1.00  0.00    -0.254 OA 
ENDROOT
BRANCH   2   3
HETATM    3  C   UNL     1      -8.632  13.040  67.737  1.00  0.00    -0.189 C  
BRANCH   3   4
HETATM    4  C   UNL     1      -8.740  11.530  67.551  1.00  0.00    -0.145 C  
BRANCH   4   5
HETATM    5  C   UNL     1      -8.793  10.843  68.916  1.00  0.00    -0.143 C  
BRANCH   5   6
HETATM    6  C   UNL     1      -8.098   9.480  68.915  1.00  0.00    -0.096 C  
BRANCH   6   7
HETATM    7  C   UNL     1      -9.040   8.354  68.449  1.00  0.00    -0.135 C  
BRANCH   7   8
HETATM    8  C   UNL     1      -8.760   7.629  67.154  1.00  0.00    -0.125 A  
HETATM    9  C   UNL     1      -8.766   8.357  65.953  1.00  0.00    -0.197 A  
HETATM   10  C   UNL     1      -8.433   6.267  67.096  1.00  0.00    -0.108 A  
HETATM   11  F   UNL     1      -7.207   4.470  63.536  1.00  0.00    -0.045 F  
HETATM   12  F   UNL     1      -8.556   5.783  62.449  1.00  0.00    -0.111 F  
HETATM   13  C   UNL     1      -8.065   5.668  65.885  1.00  0.00    -0.111 A  
HETATM   14  F   UNL     1      -6.512   6.412  62.851  1.00  0.00    -0.031 F  
HETATM   15  C   UNL     1      -8.030   6.405  64.696  1.00  0.00    -0.118 A  
HETATM   16  C   UNL     1      -7.582   5.773  63.401  1.00  0.00    -0.079 C  
HETATM   17  C   UNL     1      -8.404   7.756  64.741  1.00  0.00    -0.051 A  
ENDBRANCH   7   8
BRANCH   7  18
HETATM   18  N   UNL     1     -10.115   8.031  69.119  1.00  0.00    -0.196 NA 
HETATM   19  H   UNL     1     -10.924   8.641  69.241  1.00  0.00     0.000 HD 
BRANCH  18  20
HETATM   20  O   UNL     1     -10.013   6.738  69.645  1.00  0.00    -0.170 OA 
BRANCH  20  21
HETATM   21  C   UNL     1     -11.307   6.154  69.788  1.00  0.00    -0.382 C  
BRANCH  21  22
HETATM   22  C   UNL     1     -12.019   6.936  70.898  1.00  0.00    -0.381 C  
HETATM   23  H2  UNL     1     -10.922   6.177  72.460  1.00  0.00     0.000 HD 
HETATM   24  H1  UNL     1     -12.375   6.848  72.959  1.00  0.00     0.000 HD 
HETATM   25  N   UNL     1     -11.901   6.328  72.221  1.00  0.00    -0.306 NA 
ENDBRANCH  21  22
ENDBRANCH  20  21
ENDBRANCH  18  20
ENDBRANCH   7  18
ENDBRANCH   6   7
ENDBRANCH   5   6
ENDBRANCH   4   5
ENDBRANCH   3   4
ENDBRANCH   2   3
TORSDOF 10
ENDMDL
MODEL      243
REMARK 921   NORMALIZED FREE ENERGY PREDICTED BY IDOCK:   -1.74 KCAL/MOL
REMARK 922        TOTAL FREE ENERGY PREDICTED BY IDOCK:   -3.87 KCAL/MOL
REMARK 923 INTER-LIGAND FREE ENERGY PREDICTED BY IDOCK:   -3.81 KCAL/MOL
REMARK 924 INTRA-LIGAND FREE ENERGY PREDICTED BY IDOCK:   -0.06 KCAL/MOL
REMARK 927      BINDING AFFINITY PREDICTED BY RF-SCORE:    0.00 PKD
ROOT
HETATM    1  C   UNL     1     -11.309  13.341  63.781  1.00  0.00    -0.251 C  
HETATM    2  O   UNL     1     -10.465  12.447  64.499  1.00  0.00    -0.293 OA 
ENDROOT
BRANCH   2   3
HETATM    3  C   UNL     1      -9.812  11.547  63.608  1.00  0.00    -0.353 C  
BRANCH   3   4
HETATM    4  C   UNL     1      -9.233  10.372  64.389  1.00  0.00    -0.291 C  
BRANCH   4   5
HETATM    5  C   UNL     1      -9.387  10.623  65.890  1.00  0.00    -0.224 C  
BRANCH   5   6
HETATM    6  C   UNL     1      -8.049  10.598  66.631  1.00  0.00    -0.136 C  
BRANCH   6   7
HETATM    7  C   UNL     1      -7.688   9.182  67.118  1.00  0.00    -0.098 C  
BRANCH   7   8
HETATM    8  C   UNL     1      -8.172   8.707  68.468  1.00  0.00    -0.122 A  
HETATM    9  C   UNL     1      -7.253   8.115  69.349  1.00  0.00    -0.067 A  
HETATM   10  C   UNL     1      -9.490   8.880  68.912  1.00  0.00    -0.152 A  
HETATM   11  F   UNL     1     -10.610   7.973  72.827  1.00  0.00    -0.319 F  
HETATM   12  F   UNL     1      -9.188   6.329  72.815  1.00  0.00    -0.139 F  
HETATM   13  C   UNL     1      -9.861   8.531  70.216  1.00  0.00    -0.194 A  
HETATM   14  F   UNL     1      -8.554   8.313  73.443  1.00  0.00    -0.251 F  
HETATM   15  C   UNL     1      -8.933   7.981  71.107  1.00  0.00    -0.162 A  
HETATM   16  C   UNL     1      -9.319   7.654  72.529  1.00  0.00    -0.163 C  
HETATM   17  C   UNL     1      -7.625   7.759  70.652  1.00  0.00    -0.078 A  
ENDBRANCH   7   8
BRANCH   7  18
HETATM   18  N   UNL     1      -6.927   8.382  66.418  1.00  0.00    -0.073 NA 
HETATM   19  H   UNL     1      -6.243   8.694  65.729  1.00  0.00     0.000 HD 
BRANCH  18  20
HETATM   20  O   UNL     1      -7.174   7.042  66.737  1.00  0.00    -0.073 OA 
BRANCH  20  21
HETATM   21  C   UNL     1      -8.295   6.554  66.001  1.00  0.00    -0.133 C  
BRANCH  21  22
HETATM   22  C   UNL     1      -8.119   5.034  65.893  1.00  0.00    -0.108 C  
HETATM   23  H2  UNL     1      -8.079   4.950  63.841  1.00  0.00     0.000 HD 
HETATM   24  H1  UNL     1      -8.433   3.468  64.541  1.00  0.00     0.000 HD 
HETATM   25  N   UNL     1      -8.550   4.478  64.613  1.00  0.00    -0.133 NA 
ENDBRANCH  21  22
ENDBRANCH  20  21
ENDBRANCH  18  20
ENDBRANCH   7  18
ENDBRANCH   6   7
ENDBRANCH   5   6
ENDBRANCH   4   5
ENDBRANCH   3   4
ENDBRANCH   2   3
TORSDOF 10
ENDMDL
MODEL      244
REMARK 921   NORMALIZED FREE ENERGY PREDICTED BY IDOCK:   -0.78 KCAL/MOL
REMARK 922        TOTAL FREE ENERGY PREDICTED BY IDOCK:   -2.35 KCAL/MOL
REMARK 923 INTER-LIGAND FREE ENERGY PREDICTED BY IDOCK:   -2.41 KCAL/MOL
REMARK 924 INTRA-LIGAND FREE ENERGY PREDICTED BY IDOCK:    0.07 KCAL/MOL
REMARK 927      BINDING AFFINITY PREDICTED BY RF-SCORE:    0.00 PKD
ROOT
HETATM    1  C   UNL     1     -10.728  13.059  64.958  1.00  0.00    -0.315 C  
HETATM    2  O   UNL     1     -10.004  12.312  65.930  1.00  0.00    -0.246 OA 
ENDROOT
BRANCH   2   3
HETATM    3  C   UNL     1      -8.881  11.668  65.335  1.00  0.00     0.175 C  
BRANCH   3   4
HETATM    4  C   UNL     1      -9.016  10.155  65.475  1.00  0.00    -0.202 C  
BRANCH   4   5
HETATM    5  C   UNL     1      -8.685   9.737  66.908  1.00  0.00    -0.143 C  
BRANCH   5   6
HETATM    6  C   UNL     1      -7.725   8.548  66.967  1.00  0.00    -0.092 C  
BRANCH   6   7
HETATM    7  C   UNL     1      -8.261   7.419  67.868  1.00  0.00    -0.120 C  
BRANCH   7   8
HETATM    8  C   UNL     1      -7.957   7.432  69.347  1.00  0.00    -0.124 A  
HETATM    9  C   UNL     1      -7.216   8.500  69.879  1.00  0.00    -0.051 A  
HETATM   10  C   UNL     1      -8.431   6.455  70.234  1.00  0.00    -0.135 A  
HETATM   11  F   UNL     1      -7.949   6.836  74.360  1.00  0.00    -0.111 F  
HETATM   12  F   UNL     1      -6.036   7.808  74.011  1.00  0.00    -0.069 F  
HETATM   13  C   UNL     1      -8.224   6.575  71.613  1.00  0.00    -0.112 A  
HETATM   14  F   UNL     1      -7.859   8.991  74.102  1.00  0.00    -0.074 F  
HETATM   15  C   UNL     1      -7.522   7.662  72.145  1.00  0.00    -0.078 A  
HETATM   16  C   UNL     1      -7.345   7.819  73.636  1.00  0.00    -0.123 C  
HETATM   17  C   UNL     1      -7.003   8.617  71.259  1.00  0.00    -0.082 A  
ENDBRANCH   7   8
BRANCH   7  18
HETATM   18  N   UNL     1      -8.938   6.411  67.384  1.00  0.00    -0.110 NA 
HETATM   19  H   UNL     1      -9.857   6.491  66.949  1.00  0.00     0.000 HD 
BRANCH  18  20
HETATM   20  O   UNL     1      -8.239   5.210  67.543  1.00  0.00    -0.103 OA 
BRANCH  20  21
HETATM   21  C   UNL     1      -9.101   4.196  68.059  1.00  0.00    -0.136 C  
BRANCH  21  22
HETATM   22  C   UNL     1      -8.631   2.870  67.449  1.00  0.00    -0.102 C  
HETATM   23  H2  UNL     1      -9.452   1.650  68.883  1.00  0.00     0.000 HD 
HETATM   24  H1  UNL     1      -8.246   0.889  68.003  1.00  0.00     0.000 HD 
HETATM   25  N   UNL     1      -8.558   1.771  68.408  1.00  0.00    -0.060 NA 
ENDBRANCH  21  22
ENDBRANCH  20  21
ENDBRANCH  18  20
ENDBRANCH   7  18
ENDBRANCH   6   7
ENDBRANCH   5   6
ENDBRANCH   4   5
ENDBRANCH   3   4
ENDBRANCH   2   3
TORSDOF 10
ENDMDL
MODEL      245
REMARK 921   NORMALIZED FREE ENERGY PREDICTED BY IDOCK:    5.03 KCAL/MOL
REMARK 922        TOTAL FREE ENERGY PREDICTED BY IDOCK:    6.86 KCAL/MOL
REMARK 923 INTER-LIGAND FREE ENERGY PREDICTED BY IDOCK:   -1.39 KCAL/MOL
REMARK 924 INTRA-LIGAND FREE ENERGY PREDICTED BY IDOCK:    8.26 KCAL/MOL
REMARK 927      BINDING AFFINITY PREDICTED BY RF-SCORE:    0.00 PKD
ROOT
HETATM    1  C   UNL     1      -7.941  11.008  67.420  1.00  0.00    -0.119 C  
HETATM    2  O   UNL     1      -8.702  10.787  68.604  1.00  0.00    -0.138 OA 
ENDROOT
BRANCH   2   3
HETATM    3  C   UNL     1      -8.414  11.784  69.580  1.00  0.00     1.048 C  
BRANCH   3   4
HETATM    4  C   UNL     1      -8.706  13.169  69.010  1.00  0.00     0.458 C  
BRANCH   4   5
HETATM    5  C   UNL     1      -7.973  13.345  67.680  1.00  0.00    -0.174 C  
BRANCH   5   6
HETATM    6  C   UNL     1      -7.647  14.809  67.378  1.00  0.00    -0.228 C  
BRANCH   6   7
HETATM    7  C   UNL     1      -8.869  15.725  67.580  1.00  0.00    -0.175 C  
BRANCH   7   8
HETATM    8  C   UNL     1      -9.654  15.656  68.869  1.00  0.00    -0.224 A  
HETATM    9  C   UNL     1     -10.958  16.178  68.898  1.00  0.00    -0.324 A  
HETATM   10  C   UNL     1      -9.166  15.041  70.030  1.00  0.00     0.350 A  
HETATM   11  F   UNL     1     -11.587  14.476  73.380  1.00  0.00    -0.114 F  
HETATM   12  F   UNL     1     -12.587  16.353  72.930  1.00  0.00    -0.480 F  
HETATM   13  C   UNL     1      -9.977  14.897  71.162  1.00  0.00     1.653 A  
HETATM   14  F   UNL     1     -13.321  14.494  72.071  1.00  0.00    -0.354 F  
HETATM   15  C   UNL     1     -11.290  15.379  71.175  1.00  0.00    -0.427 A  
HETATM   16  C   UNL     1     -12.182  15.177  72.375  1.00  0.00    -0.374 C  
HETATM   17  C   UNL     1     -11.768  16.040  70.033  1.00  0.00    -0.284 A  
ENDBRANCH   7   8
BRANCH   7  18
HETATM   18  N   UNL     1      -9.286  16.537  66.645  1.00  0.00    -0.241 NA 
HETATM   19  H   UNL     1      -9.291  17.554  66.725  1.00  0.00     0.000 HD 
BRANCH  18  20
HETATM   20  O   UNL     1      -9.727  15.830  65.521  1.00  0.00    -0.322 OA 
BRANCH  20  21
HETATM   21  C   UNL     1     -10.918  15.106  65.823  1.00  0.00    -0.349 C  
BRANCH  21  22
HETATM   22  C   UNL     1     -10.480  13.819  66.532  1.00  0.00    -0.282 C  
HETATM   23  H2  UNL     1     -11.061  12.525  65.046  1.00  0.00     0.000 HD 
HETATM   24  H1  UNL     1     -10.871  11.763  66.527  1.00  0.00     0.000 HD 
HETATM   25  N   UNL     1     -11.163  12.619  66.056  1.00  0.00    -0.293 NA 
ENDBRANCH  21  22
ENDBRANCH  20  21
ENDBRANCH  18  20
ENDBRANCH   7  18
ENDBRANCH   6   7
ENDBRANCH   5   6
ENDBRANCH   4   5
ENDBRANCH   3   4
ENDBRANCH   2   3
TORSDOF 10
ENDMDL
