MODEL        1
REMARK 921   NORMALIZED FREE ENERGY PREDICTED BY IDOCK:   -8.57 KCAL/MOL
REMARK 922        TOTAL FREE ENERGY PREDICTED BY IDOCK:  -13.78 KCAL/MOL
REMARK 923 INTER-LIGAND FREE ENERGY PREDICTED BY IDOCK:  -12.07 KCAL/MOL
REMARK 924 INTRA-LIGAND FREE ENERGY PREDICTED BY IDOCK:   -1.71 KCAL/MOL
REMARK 927      BINDING AFFINITY PREDICTED BY RF-SCORE:    0.00 PKD
ROOT
HETATM    1  C   UNL     1     -11.541  14.834  67.270  1.00  0.00    -0.385 C  
HETATM    2  C   UNL     1     -10.685  14.278  68.412  1.00  0.00    -0.251 C  
HETATM    3  C   UNL     1      -9.807  15.311  69.120  1.00  0.00    -0.239 C  
ENDROOT
BRANCH   2   4
HETATM    4  N   UNL     1     -11.408  13.404  69.347  1.00  0.00    -0.250 NA 
HETATM    5  C   UNL     1     -11.340  12.019  69.455  1.00  0.00    -0.228 A  
HETATM    6  C   UNL     1     -14.084  14.438  72.349  1.00  0.00    -0.544 A  
HETATM    7  C   UNL     1     -12.095  11.639  70.577  1.00  0.00    -0.458 A  
HETATM    8  C   UNL     1     -13.693  15.464  71.504  1.00  0.00    -0.601 A  
HETATM    9  C   UNL     1     -12.314  13.907  70.272  1.00  0.00    -0.345 A  
HETATM   10  C   UNL     1     -12.715  12.842  71.086  1.00  0.00    -0.366 A  
HETATM   11  C   UNL     1     -13.592  13.140  72.160  1.00  0.00    -0.637 A  
HETATM   12  C   UNL     1     -12.797  15.217  70.465  1.00  0.00    -0.395 A  
BRANCH   5  13
HETATM   13  C   UNL     1     -10.537  11.280  68.540  1.00  0.00    -0.227 C  
HETATM   14  C   UNL     1     -11.041  10.747  67.414  1.00  0.00    -0.363 C  
BRANCH  14  15
HETATM   15  C   UNL     1     -10.217  10.009  66.396  1.00  0.00    -0.221 C  
HETATM   16  H   UNL     1      -8.638   8.919  66.470  1.00  0.00     0.000 HD 
HETATM   17  O   UNL     1      -9.158   9.385  67.114  1.00  0.00    -0.129 OA 
BRANCH  15  18
HETATM   18  C   UNL     1      -9.674  10.955  65.314  1.00  0.00    -0.296 C  
BRANCH  18  19
HETATM   19  C   UNL     1     -10.690  11.259  64.197  1.00  0.00    -0.369 C  
HETATM   20  O   UNL     1     -10.290  10.616  62.976  1.00  0.00    -0.660 OA 
HETATM   21  H   UNL     1     -10.917  10.804  62.287  1.00  0.00     0.000 HD 
BRANCH  19  22
HETATM   22  C   UNL     1     -10.844  12.755  63.928  1.00  0.00    -0.447 C  
HETATM   23  C   UNL     1     -12.269  13.262  63.931  1.00  0.00    -0.425 C  
HETATM   24  O   UNL     1     -13.076  12.686  64.847  1.00  0.00    -0.850 OA 
HETATM   25  O   UNL     1     -12.643  14.185  63.221  1.00  0.00    -0.766 OA 
ENDBRANCH  19  22
ENDBRANCH  18  19
ENDBRANCH  15  18
ENDBRANCH  14  15
ENDBRANCH   5  13
BRANCH   7  26
HETATM   26  C   UNL     1     -12.248  10.244  71.043  1.00  0.00    -0.487 A  
HETATM   27  C   UNL     1     -13.678   8.309  71.507  1.00  0.00    -0.354 A  
HETATM   28  C   UNL     1     -11.294   8.101  71.750  1.00  0.00    -0.333 A  
HETATM   29  C   UNL     1     -12.560   7.543  71.794  1.00  0.00    -0.334 A  
HETATM   30  C   UNL     1     -13.518   9.645  71.115  1.00  0.00    -0.292 A  
HETATM   31  C   UNL     1     -11.144   9.450  71.407  1.00  0.00    -0.450 A  
HETATM   32  F   UNL     1     -12.705   6.250  72.112  1.00  0.00    -0.369 F  
ENDBRANCH   7  26
ENDBRANCH   2   4
TORSDOF 7
ENDMDL
MODEL        2
REMARK 921   NORMALIZED FREE ENERGY PREDICTED BY IDOCK:   -8.02 KCAL/MOL
REMARK 922        TOTAL FREE ENERGY PREDICTED BY IDOCK:  -13.00 KCAL/MOL
REMARK 923 INTER-LIGAND FREE ENERGY PREDICTED BY IDOCK:  -11.41 KCAL/MOL
REMARK 924 INTRA-LIGAND FREE ENERGY PREDICTED BY IDOCK:   -1.59 KCAL/MOL
REMARK 927      BINDING AFFINITY PREDICTED BY RF-SCORE:    0.00 PKD
ROOT
HETATM    1  C   UNL     1     -14.000  15.339  71.467  1.00  0.00    -0.627 C  
HETATM    2  C   UNL     1     -12.578  15.267  70.901  1.00  0.00    -0.412 C  
HETATM    3  C   UNL     1     -11.466  15.507  71.922  1.00  0.00    -0.506 C  
ENDROOT
BRANCH   2   4
HETATM    4  N   UNL     1     -12.324  14.103  70.040  1.00  0.00    -0.346 NA 
HETATM    5  C   UNL     1     -11.908  14.091  68.713  1.00  0.00    -0.361 A  
HETATM    6  C   UNL     1     -12.589  10.064  70.965  1.00  0.00    -0.463 A  
HETATM    7  C   UNL     1     -11.662  12.756  68.353  1.00  0.00    -0.380 A  
HETATM    8  C   UNL     1     -13.063  10.940  71.928  1.00  0.00    -0.537 A  
HETATM    9  C   UNL     1     -12.505  12.802  70.491  1.00  0.00    -0.202 A  
HETATM   10  C   UNL     1     -12.050  11.943  69.485  1.00  0.00    -0.288 A  
HETATM   11  C   UNL     1     -12.070  10.552  69.759  1.00  0.00    -0.285 A  
HETATM   12  C   UNL     1     -13.016  12.316  71.711  1.00  0.00    -0.431 A  
BRANCH   5  13
HETATM   13  C   UNL     1     -11.747  15.322  68.015  1.00  0.00    -0.268 C  
HETATM   14  C   UNL     1     -10.594  15.657  67.412  1.00  0.00    -0.301 C  
BRANCH  14  15
HETATM   15  C   UNL     1     -10.399  16.919  66.619  1.00  0.00    -0.299 C  
HETATM   16  H   UNL     1      -9.154  17.489  65.272  1.00  0.00     0.000 HD 
HETATM   17  O   UNL     1      -9.277  16.691  65.773  1.00  0.00    -0.502 OA 
BRANCH  15  18
HETATM   18  C   UNL     1     -10.168  18.132  67.534  1.00  0.00    -0.382 C  
BRANCH  18  19
HETATM   19  C   UNL     1     -10.548  19.474  66.882  1.00  0.00    -0.490 C  
HETATM   20  O   UNL     1     -10.627  19.327  65.454  1.00  0.00    -0.492 OA 
HETATM   21  H   UNL     1     -10.861  20.156  65.052  1.00  0.00     0.000 HD 
BRANCH  19  22
HETATM   22  C   UNL     1      -9.554  20.589  67.199  1.00  0.00    -0.570 C  
HETATM   23  C   UNL     1      -8.131  20.322  66.762  1.00  0.00    -0.272 C  
HETATM   24  O   UNL     1      -8.010  19.665  65.588  1.00  0.00    -0.405 OA 
HETATM   25  O   UNL     1      -7.161  20.743  67.376  1.00  0.00    -0.322 OA 
ENDBRANCH  19  22
ENDBRANCH  18  19
ENDBRANCH  15  18
ENDBRANCH  14  15
ENDBRANCH   5  13
BRANCH   7  26
HETATM   26  C   UNL     1     -11.178  12.329  67.022  1.00  0.00    -0.367 A  
HETATM   27  C   UNL     1     -11.518  12.139  64.603  1.00  0.00    -0.388 A  
HETATM   28  C   UNL     1      -9.416  11.463  65.557  1.00  0.00    -0.251 A  
HETATM   29  C   UNL     1     -10.230  11.653  64.453  1.00  0.00    -0.300 A  
HETATM   30  C   UNL     1     -11.980  12.492  65.878  1.00  0.00    -0.472 A  
HETATM   31  C   UNL     1      -9.900  11.770  66.835  1.00  0.00    -0.221 A  
HETATM   32  F   UNL     1      -9.765  11.370  63.229  1.00  0.00    -0.269 F  
ENDBRANCH   7  26
ENDBRANCH   2   4
TORSDOF 7
ENDMDL
MODEL        3
REMARK 921   NORMALIZED FREE ENERGY PREDICTED BY IDOCK:   -8.01 KCAL/MOL
REMARK 922        TOTAL FREE ENERGY PREDICTED BY IDOCK:  -12.99 KCAL/MOL
REMARK 923 INTER-LIGAND FREE ENERGY PREDICTED BY IDOCK:  -11.40 KCAL/MOL
REMARK 924 INTRA-LIGAND FREE ENERGY PREDICTED BY IDOCK:   -1.59 KCAL/MOL
REMARK 927      BINDING AFFINITY PREDICTED BY RF-SCORE:    0.00 PKD
ROOT
HETATM    1  C   UNL     1     -12.132  12.585  65.278  1.00  0.00    -0.500 C  
HETATM    2  C   UNL     1     -11.057  11.984  66.189  1.00  0.00    -0.322 C  
HETATM    3  C   UNL     1      -9.618  12.321  65.795  1.00  0.00    -0.185 C  
ENDROOT
BRANCH   2   4
HETATM    4  N   UNL     1     -11.312  12.155  67.626  1.00  0.00    -0.292 NA 
HETATM    5  C   UNL     1     -11.624  13.325  68.310  1.00  0.00    -0.334 A  
HETATM    6  C   UNL     1     -11.353   9.287  70.630  1.00  0.00    -0.330 A  
HETATM    7  C   UNL     1     -11.918  12.979  69.640  1.00  0.00    -0.367 A  
HETATM    8  C   UNL     1     -10.905   8.862  69.390  1.00  0.00    -0.133 A  
HETATM    9  C   UNL     1     -11.241  11.091  68.517  1.00  0.00    -0.268 A  
HETATM   10  C   UNL     1     -11.667  11.560  69.764  1.00  0.00    -0.426 A  
HETATM   11  C   UNL     1     -11.749  10.617  70.820  1.00  0.00    -0.435 A  
HETATM   12  C   UNL     1     -10.855   9.750  68.317  1.00  0.00    -0.256 A  
BRANCH   5  13
HETATM   13  C   UNL     1     -11.660  14.563  67.607  1.00  0.00    -0.402 C  
HETATM   14  C   UNL     1     -10.583  15.359  67.505  1.00  0.00    -0.283 C  
BRANCH  14  15
HETATM   15  C   UNL     1     -10.563  16.645  66.726  1.00  0.00    -0.214 C  
HETATM   16  H   UNL     1      -9.509  17.327  65.272  1.00  0.00     0.000 HD 
HETATM   17  O   UNL     1      -9.521  16.514  65.764  1.00  0.00    -0.484 OA 
BRANCH  15  18
HETATM   18  C   UNL     1     -10.326  17.857  67.640  1.00  0.00    -0.387 C  
BRANCH  18  19
HETATM   19  C   UNL     1     -10.722  19.199  66.997  1.00  0.00    -0.448 C  
HETATM   20  O   UNL     1     -10.742  19.075  65.565  1.00  0.00    -0.536 OA 
HETATM   21  H   UNL     1     -10.986  19.903  65.168  1.00  0.00     0.000 HD 
BRANCH  19  22
HETATM   22  C   UNL     1      -9.776  20.338  67.370  1.00  0.00    -0.584 C  
HETATM   23  C   UNL     1      -8.338  20.141  66.946  1.00  0.00    -0.315 C  
HETATM   24  O   UNL     1      -8.175  19.534  65.750  1.00  0.00    -0.427 OA 
HETATM   25  O   UNL     1      -7.393  20.574  67.590  1.00  0.00    -0.303 OA 
ENDBRANCH  19  22
ENDBRANCH  18  19
ENDBRANCH  15  18
ENDBRANCH  14  15
ENDBRANCH   5  13
BRANCH   7  26
HETATM   26  C   UNL     1     -12.323  13.948  70.681  1.00  0.00    -0.451 A  
HETATM   27  C   UNL     1     -14.000  14.788  72.258  1.00  0.00    -0.598 A  
HETATM   28  C   UNL     1     -11.804  15.771  72.233  1.00  0.00    -0.598 A  
HETATM   29  C   UNL     1     -13.080  15.692  72.765  1.00  0.00    -0.495 A  
HETATM   30  C   UNL     1     -13.615  13.910  71.237  1.00  0.00    -0.212 A  
HETATM   31  C   UNL     1     -11.441  14.925  71.178  1.00  0.00    -0.312 A  
HETATM   32  F   UNL     1     -13.427  16.492  73.781  1.00  0.00    -0.505 F  
ENDBRANCH   7  26
ENDBRANCH   2   4
TORSDOF 7
ENDMDL
MODEL        4
REMARK 921   NORMALIZED FREE ENERGY PREDICTED BY IDOCK:   -7.77 KCAL/MOL
REMARK 922        TOTAL FREE ENERGY PREDICTED BY IDOCK:  -12.66 KCAL/MOL
REMARK 923 INTER-LIGAND FREE ENERGY PREDICTED BY IDOCK:  -10.88 KCAL/MOL
REMARK 924 INTRA-LIGAND FREE ENERGY PREDICTED BY IDOCK:   -1.77 KCAL/MOL
REMARK 927      BINDING AFFINITY PREDICTED BY RF-SCORE:    0.00 PKD
ROOT
HETATM    1  C   UNL     1     -11.154   9.577  71.442  1.00  0.00    -0.438 C  
HETATM    2  C   UNL     1     -12.181  10.200  70.491  1.00  0.00    -0.264 C  
HETATM    3  C   UNL     1     -13.640   9.904  70.838  1.00  0.00    -0.084 C  
ENDROOT
BRANCH   2   4
HETATM    4  N   UNL     1     -11.942  11.615  70.179  1.00  0.00    -0.349 NA 
HETATM    5  C   UNL     1     -11.103  12.151  69.207  1.00  0.00    -0.167 A  
HETATM    6  C   UNL     1     -13.636  14.992  71.903  1.00  0.00    -0.520 A  
HETATM    7  C   UNL     1     -11.307  13.541  69.183  1.00  0.00    -0.333 A  
HETATM    8  C   UNL     1     -13.918  13.786  72.525  1.00  0.00    -0.572 A  
HETATM    9  C   UNL     1     -12.559  12.639  70.887  1.00  0.00    -0.249 A  
HETATM   10  C   UNL     1     -12.228  13.843  70.256  1.00  0.00    -0.428 A  
HETATM   11  C   UNL     1     -12.814  15.028  70.770  1.00  0.00    -0.447 A  
HETATM   12  C   UNL     1     -13.396  12.596  72.020  1.00  0.00    -0.555 A  
BRANCH   5  13
HETATM   13  C   UNL     1     -10.297  11.282  68.417  1.00  0.00    -0.207 C  
HETATM   14  C   UNL     1     -10.692  10.836  67.214  1.00  0.00    -0.325 C  
BRANCH  14  15
HETATM   15  C   UNL     1      -9.849   9.964  66.325  1.00  0.00    -0.245 C  
HETATM   16  H   UNL     1      -8.224   8.967  66.561  1.00  0.00     0.000 HD 
HETATM   17  O   UNL     1      -8.756   9.519  67.123  1.00  0.00    -0.130 OA 
BRANCH  15  18
HETATM   18  C   UNL     1      -9.358  10.726  65.085  1.00  0.00    -0.254 C  
BRANCH  18  19
HETATM   19  C   UNL     1     -10.482  11.067  64.089  1.00  0.00    -0.366 C  
HETATM   20  O   UNL     1     -10.175  10.530  62.792  1.00  0.00    -0.706 OA 
HETATM   21  H   UNL     1     -10.868  10.741  62.178  1.00  0.00     0.000 HD 
BRANCH  19  22
HETATM   22  C   UNL     1     -10.712  12.570  63.948  1.00  0.00    -0.473 C  
HETATM   23  C   UNL     1     -12.162  12.992  63.873  1.00  0.00    -0.437 C  
HETATM   24  O   UNL     1     -13.003  12.283  64.656  1.00  0.00    -0.741 OA 
HETATM   25  O   UNL     1     -12.537  13.957  63.222  1.00  0.00    -0.824 OA 
ENDBRANCH  19  22
ENDBRANCH  18  19
ENDBRANCH  15  18
ENDBRANCH  14  15
ENDBRANCH   5  13
BRANCH   7  26
HETATM   26  C   UNL     1     -10.615  14.467  68.261  1.00  0.00    -0.241 A  
HETATM   27  C   UNL     1      -8.652  15.819  67.694  1.00  0.00    -0.173 A  
HETATM   28  C   UNL     1     -10.467  15.653  66.122  1.00  0.00    -0.327 A  
HETATM   29  C   UNL     1      -9.210  16.125  66.462  1.00  0.00    -0.272 A  
HETATM   30  C   UNL     1      -9.344  14.980  68.576  1.00  0.00    -0.196 A  
HETATM   31  C   UNL     1     -11.175  14.855  67.029  1.00  0.00    -0.344 A  
HETATM   32  F   UNL     1      -8.526  16.879  65.592  1.00  0.00    -0.217 F  
ENDBRANCH   7  26
ENDBRANCH   2   4
TORSDOF 7
ENDMDL
MODEL        5
REMARK 921   NORMALIZED FREE ENERGY PREDICTED BY IDOCK:   -7.73 KCAL/MOL
REMARK 922        TOTAL FREE ENERGY PREDICTED BY IDOCK:  -12.60 KCAL/MOL
REMARK 923 INTER-LIGAND FREE ENERGY PREDICTED BY IDOCK:  -11.44 KCAL/MOL
REMARK 924 INTRA-LIGAND FREE ENERGY PREDICTED BY IDOCK:   -1.16 KCAL/MOL
REMARK 927      BINDING AFFINITY PREDICTED BY RF-SCORE:    0.00 PKD
ROOT
HETATM    1  C   UNL     1      -8.296  10.209  67.360  1.00  0.00    -0.118 C  
HETATM    2  C   UNL     1      -9.819  10.338  67.247  1.00  0.00    -0.182 C  
HETATM    3  C   UNL     1     -10.512   9.169  66.546  1.00  0.00    -0.197 C  
ENDROOT
BRANCH   2   4
HETATM    4  N   UNL     1     -10.490  10.739  68.490  1.00  0.00    -0.176 NA 
HETATM    5  C   UNL     1     -11.045  11.976  68.806  1.00  0.00    -0.249 A  
HETATM    6  C   UNL     1     -11.274   8.479  71.884  1.00  0.00    -0.397 A  
HETATM    7  C   UNL     1     -11.698  11.849  70.043  1.00  0.00    -0.366 A  
HETATM    8  C   UNL     1     -10.463   7.884  70.932  1.00  0.00    -0.217 A  
HETATM    9  C   UNL     1     -10.634   9.869  69.564  1.00  0.00    -0.242 A  
HETATM   10  C   UNL     1     -11.427  10.511  70.520  1.00  0.00    -0.433 A  
HETATM   11  C   UNL     1     -11.770   9.773  71.682  1.00  0.00    -0.390 A  
HETATM   12  C   UNL     1     -10.143   8.562  69.757  1.00  0.00    -0.197 A  
BRANCH   5  13
HETATM   13  C   UNL     1     -10.931  13.054  67.883  1.00  0.00    -0.264 C  
HETATM   14  C   UNL     1      -9.782  13.727  67.706  1.00  0.00    -0.230 C  
BRANCH  14  15
HETATM   15  C   UNL     1      -9.605  14.834  66.703  1.00  0.00    -0.272 C  
HETATM   16  H   UNL     1      -8.788  16.572  66.741  1.00  0.00     0.000 HD 
HETATM   17  O   UNL     1      -8.900  15.873  67.375  1.00  0.00    -0.182 OA 
BRANCH  15  18
HETATM   18  C   UNL     1     -10.956  15.334  66.169  1.00  0.00    -0.307 C  
BRANCH  18  19
HETATM   19  C   UNL     1     -11.188  15.006  64.682  1.00  0.00    -0.332 C  
HETATM   20  O   UNL     1     -11.336  16.219  63.925  1.00  0.00    -1.415 OA 
HETATM   21  H   UNL     1     -11.479  16.016  63.008  1.00  0.00     0.000 HD 
BRANCH  19  22
HETATM   22  C   UNL     1     -12.423  14.139  64.452  1.00  0.00    -0.325 C  
HETATM   23  C   UNL     1     -12.138  12.727  63.990  1.00  0.00    -0.457 C  
HETATM   24  O   UNL     1     -11.045  12.158  64.540  1.00  0.00    -0.300 OA 
HETATM   25  O   UNL     1     -12.885  12.113  63.242  1.00  0.00    -0.735 OA 
ENDBRANCH  19  22
ENDBRANCH  18  19
ENDBRANCH  15  18
ENDBRANCH  14  15
ENDBRANCH   5  13
BRANCH   7  26
HETATM   26  C   UNL     1     -12.436  12.945  70.710  1.00  0.00    -0.370 A  
HETATM   27  C   UNL     1     -14.025  13.698  72.415  1.00  0.00    -0.651 A  
HETATM   28  C   UNL     1     -12.867  15.328  71.077  1.00  0.00    -0.505 A  
HETATM   29  C   UNL     1     -13.754  15.018  72.095  1.00  0.00    -0.453 A  
HETATM   30  C   UNL     1     -13.355  12.671  71.739  1.00  0.00    -0.405 A  
HETATM   31  C   UNL     1     -12.237  14.296  70.371  1.00  0.00    -0.411 A  
HETATM   32  F   UNL     1     -14.349  16.003  72.780  1.00  0.00    -0.660 F  
ENDBRANCH   7  26
ENDBRANCH   2   4
TORSDOF 7
ENDMDL
MODEL        6
REMARK 921   NORMALIZED FREE ENERGY PREDICTED BY IDOCK:   -7.52 KCAL/MOL
REMARK 922        TOTAL FREE ENERGY PREDICTED BY IDOCK:  -12.30 KCAL/MOL
REMARK 923 INTER-LIGAND FREE ENERGY PREDICTED BY IDOCK:  -11.42 KCAL/MOL
REMARK 924 INTRA-LIGAND FREE ENERGY PREDICTED BY IDOCK:   -0.89 KCAL/MOL
REMARK 927      BINDING AFFINITY PREDICTED BY RF-SCORE:    0.00 PKD
ROOT
HETATM    1  C   UNL     1      -8.414  10.207  66.814  1.00  0.00    -0.126 C  
HETATM    2  C   UNL     1      -9.923   9.972  66.937  1.00  0.00    -0.209 C  
HETATM    3  C   UNL     1     -10.394   8.583  66.504  1.00  0.00    -0.215 C  
ENDROOT
BRANCH   2   4
HETATM    4  N   UNL     1     -10.504  10.400  68.216  1.00  0.00    -0.179 NA 
HETATM    5  C   UNL     1     -11.111  11.615  68.521  1.00  0.00    -0.235 A  
HETATM    6  C   UNL     1     -10.816   8.291  71.780  1.00  0.00    -0.332 A  
HETATM    7  C   UNL     1     -11.638  11.517  69.819  1.00  0.00    -0.401 A  
HETATM    8  C   UNL     1     -10.056   7.696  70.786  1.00  0.00    -0.189 A  
HETATM    9  C   UNL     1     -10.488   9.585  69.341  1.00  0.00    -0.217 A  
HETATM   10  C   UNL     1     -11.233  10.228  70.335  1.00  0.00    -0.407 A  
HETATM   11  C   UNL     1     -11.417   9.537  71.560  1.00  0.00    -0.466 A  
HETATM   12  C   UNL     1      -9.892   8.325  69.554  1.00  0.00    -0.181 A  
BRANCH   5  13
HETATM   13  C   UNL     1     -11.157  12.644  67.537  1.00  0.00    -0.313 C  
HETATM   14  C   UNL     1     -12.154  12.733  66.641  1.00  0.00    -0.316 C  
BRANCH  14  15
HETATM   15  C   UNL     1     -12.270  13.834  65.623  1.00  0.00    -0.454 C  
HETATM   16  H   UNL     1     -12.971  13.954  63.839  1.00  0.00     0.000 HD 
HETATM   17  O   UNL     1     -12.898  13.258  64.482  1.00  0.00    -0.665 OA 
BRANCH  15  18
HETATM   18  C   UNL     1     -10.895  14.419  65.265  1.00  0.00    -0.370 C  
BRANCH  18  19
HETATM   19  C   UNL     1     -10.833  15.954  65.378  1.00  0.00    -0.349 C  
HETATM   20  O   UNL     1     -11.185  16.557  64.122  1.00  0.00    -1.355 OA 
HETATM   21  H   UNL     1     -11.147  17.504  64.191  1.00  0.00     0.000 HD 
BRANCH  19  22
HETATM   22  C   UNL     1      -9.453  16.462  65.788  1.00  0.00    -0.191 C  
HETATM   23  C   UNL     1      -9.393  17.928  66.154  1.00  0.00    -0.132 C  
HETATM   24  O   UNL     1     -10.474  18.395  66.815  1.00  0.00    -0.380 OA 
HETATM   25  O   UNL     1      -8.407  18.622  65.947  1.00  0.00    -0.494 OA 
ENDBRANCH  19  22
ENDBRANCH  18  19
ENDBRANCH  15  18
ENDBRANCH  14  15
ENDBRANCH   5  13
BRANCH   7  26
HETATM   26  C   UNL     1     -12.385  12.599  70.497  1.00  0.00    -0.350 A  
HETATM   27  C   UNL     1     -13.901  13.336  72.274  1.00  0.00    -0.637 A  
HETATM   28  C   UNL     1     -12.908  14.971  70.815  1.00  0.00    -0.447 A  
HETATM   29  C   UNL     1     -13.714  14.656  71.896  1.00  0.00    -0.419 A  
HETATM   30  C   UNL     1     -13.225  12.319  71.590  1.00  0.00    -0.356 A  
HETATM   31  C   UNL     1     -12.274  13.946  70.103  1.00  0.00    -0.425 A  
HETATM   32  F   UNL     1     -14.313  15.635  72.586  1.00  0.00    -0.605 F  
ENDBRANCH   7  26
ENDBRANCH   2   4
TORSDOF 7
ENDMDL
MODEL        7
REMARK 921   NORMALIZED FREE ENERGY PREDICTED BY IDOCK:   -7.51 KCAL/MOL
REMARK 922        TOTAL FREE ENERGY PREDICTED BY IDOCK:  -12.29 KCAL/MOL
REMARK 923 INTER-LIGAND FREE ENERGY PREDICTED BY IDOCK:  -10.48 KCAL/MOL
REMARK 924 INTRA-LIGAND FREE ENERGY PREDICTED BY IDOCK:   -1.81 KCAL/MOL
REMARK 927      BINDING AFFINITY PREDICTED BY RF-SCORE:    0.00 PKD
ROOT
HETATM    1  C   UNL     1     -11.808  15.203  72.305  1.00  0.00    -0.493 C  
HETATM    2  C   UNL     1     -12.892  14.266  71.763  1.00  0.00    -0.348 C  
HETATM    3  C   UNL     1     -14.144  14.968  71.235  1.00  0.00    -0.516 C  
ENDROOT
BRANCH   2   4
HETATM    4  N   UNL     1     -12.397  13.221  70.856  1.00  0.00    -0.368 NA 
HETATM    5  C   UNL     1     -11.728  13.380  69.646  1.00  0.00    -0.310 A  
HETATM    6  C   UNL     1     -12.568   9.095  71.284  1.00  0.00    -0.351 A  
HETATM    7  C   UNL     1     -11.327  12.107  69.207  1.00  0.00    -0.327 A  
HETATM    8  C   UNL     1     -13.280   9.832  72.217  1.00  0.00    -0.468 A  
HETATM    9  C   UNL     1     -12.576  11.870  71.123  1.00  0.00    -0.288 A  
HETATM   10  C   UNL     1     -11.875  11.153  70.147  1.00  0.00    -0.449 A  
HETATM   11  C   UNL     1     -11.856   9.740  70.266  1.00  0.00    -0.208 A  
HETATM   12  C   UNL     1     -13.283  11.225  72.157  1.00  0.00    -0.286 A  
BRANCH   5  13
HETATM   13  C   UNL     1     -11.514  14.689  69.127  1.00  0.00    -0.320 C  
HETATM   14  C   UNL     1     -10.290  15.144  68.813  1.00  0.00    -0.236 C  
BRANCH  14  15
HETATM   15  C   UNL     1     -10.028  16.496  68.212  1.00  0.00    -0.250 C  
HETATM   16  H   UNL     1     -10.426  18.303  68.728  1.00  0.00     0.000 HD 
HETATM   17  O   UNL     1     -10.592  17.449  69.108  1.00  0.00    -0.321 OA 
BRANCH  15  18
HETATM   18  C   UNL     1     -10.642  16.621  66.810  1.00  0.00    -0.214 C  
BRANCH  18  19
HETATM   19  C   UNL     1     -10.495  15.345  65.959  1.00  0.00    -0.321 C  
HETATM   20  O   UNL     1      -9.105  15.047  65.749  1.00  0.00    -0.468 OA 
HETATM   21  H   UNL     1      -9.015  14.261  65.224  1.00  0.00     0.000 HD 
BRANCH  19  22
HETATM   22  C   UNL     1     -11.176  15.460  64.597  1.00  0.00    -0.374 C  
HETATM   23  C   UNL     1     -12.264  14.442  64.337  1.00  0.00    -0.458 C  
HETATM   24  O   UNL     1     -13.021  14.131  65.411  1.00  0.00    -0.706 OA 
HETATM   25  O   UNL     1     -12.501  13.998  63.223  1.00  0.00    -0.795 OA 
ENDBRANCH  19  22
ENDBRANCH  18  19
ENDBRANCH  15  18
ENDBRANCH  14  15
ENDBRANCH   5  13
BRANCH   7  26
HETATM   26  C   UNL     1     -10.563  11.858  67.966  1.00  0.00    -0.234 A  
HETATM   27  C   UNL     1      -8.428  11.436  66.840  1.00  0.00    -0.157 A  
HETATM   28  C   UNL     1     -10.467  11.388  65.564  1.00  0.00    -0.322 A  
HETATM   29  C   UNL     1      -9.092  11.245  65.639  1.00  0.00    -0.189 A  
HETATM   30  C   UNL     1      -9.164  11.721  67.998  1.00  0.00    -0.181 A  
HETATM   31  C   UNL     1     -11.192  11.722  66.714  1.00  0.00    -0.388 A  
HETATM   32  F   UNL     1      -8.398  10.915  64.542  1.00  0.00    -0.136 F  
ENDBRANCH   7  26
ENDBRANCH   2   4
TORSDOF 7
ENDMDL
MODEL        8
REMARK 921   NORMALIZED FREE ENERGY PREDICTED BY IDOCK:   -7.45 KCAL/MOL
REMARK 922        TOTAL FREE ENERGY PREDICTED BY IDOCK:  -12.21 KCAL/MOL
REMARK 923 INTER-LIGAND FREE ENERGY PREDICTED BY IDOCK:  -10.52 KCAL/MOL
REMARK 924 INTRA-LIGAND FREE ENERGY PREDICTED BY IDOCK:   -1.69 KCAL/MOL
REMARK 927      BINDING AFFINITY PREDICTED BY RF-SCORE:    0.00 PKD
ROOT
HETATM    1  C   UNL     1     -11.877  12.225  65.237  1.00  0.00    -0.411 C  
HETATM    2  C   UNL     1     -11.036  12.185  66.517  1.00  0.00    -0.284 C  
HETATM    3  C   UNL     1      -9.555  11.866  66.303  1.00  0.00    -0.243 C  
ENDROOT
BRANCH   2   4
HETATM    4  N   UNL     1     -11.252  13.321  67.423  1.00  0.00    -0.278 NA 
HETATM    5  C   UNL     1     -11.792  13.307  68.705  1.00  0.00    -0.345 A  
HETATM    6  C   UNL     1     -10.345  17.332  66.845  1.00  0.00    -0.310 A  
HETATM    7  C   UNL     1     -11.671  14.602  69.236  1.00  0.00    -0.348 A  
HETATM    8  C   UNL     1     -10.192  16.510  65.741  1.00  0.00    -0.350 A  
HETATM    9  C   UNL     1     -10.933  14.624  67.059  1.00  0.00    -0.317 A  
HETATM   10  C   UNL     1     -11.131  15.433  68.183  1.00  0.00    -0.309 A  
HETATM   11  C   UNL     1     -10.793  16.805  68.063  1.00  0.00    -0.341 A  
HETATM   12  C   UNL     1     -10.471  15.147  65.835  1.00  0.00    -0.350 A  
BRANCH   5  13
HETATM   13  C   UNL     1     -12.276  12.084  69.251  1.00  0.00    -0.135 C  
HETATM   14  C   UNL     1     -11.599  11.402  70.190  1.00  0.00    -0.368 C  
BRANCH  14  15
HETATM   15  C   UNL     1     -12.100  10.138  70.831  1.00  0.00    -0.356 C  
HETATM   16  H   UNL     1     -13.428   9.731  72.158  1.00  0.00     0.000 HD 
HETATM   17  O   UNL     1     -13.112  10.531  71.754  1.00  0.00    -0.432 OA 
BRANCH  15  18
HETATM   18  C   UNL     1     -10.969   9.376  71.539  1.00  0.00    -0.429 C  
BRANCH  18  19
HETATM   19  C   UNL     1     -11.361   7.948  71.962  1.00  0.00    -0.292 C  
HETATM   20  O   UNL     1     -12.707   7.933  72.466  1.00  0.00    -0.541 OA 
HETATM   21  H   UNL     1     -12.948   7.052  72.727  1.00  0.00     0.000 HD 
BRANCH  19  22
HETATM   22  C   UNL     1     -10.437   7.373  73.033  1.00  0.00    -0.373 C  
HETATM   23  C   UNL     1     -10.659   5.912  73.353  1.00  0.00    -0.258 C  
HETATM   24  O   UNL     1     -10.976   5.138  72.293  1.00  0.00    -0.211 OA 
HETATM   25  O   UNL     1     -10.482   5.445  74.469  1.00  0.00    -0.268 OA 
ENDBRANCH  19  22
ENDBRANCH  18  19
ENDBRANCH  15  18
ENDBRANCH  14  15
ENDBRANCH   5  13
BRANCH   7  26
HETATM   26  C   UNL     1     -12.109  14.988  70.595  1.00  0.00    -0.375 A  
HETATM   27  C   UNL     1     -11.563  15.646  72.891  1.00  0.00    -0.408 A  
HETATM   28  C   UNL     1     -13.864  15.613  72.186  1.00  0.00    -0.552 A  
HETATM   29  C   UNL     1     -12.907  15.859  73.156  1.00  0.00    -0.537 A  
HETATM   30  C   UNL     1     -11.169  15.233  71.612  1.00  0.00    -0.369 A  
HETATM   31  C   UNL     1     -13.467  15.151  70.925  1.00  0.00    -0.432 A  
HETATM   32  F   UNL     1     -13.282  16.311  74.360  1.00  0.00    -0.301 F  
ENDBRANCH   7  26
ENDBRANCH   2   4
TORSDOF 7
ENDMDL
MODEL        9
REMARK 921   NORMALIZED FREE ENERGY PREDICTED BY IDOCK:   -7.43 KCAL/MOL
REMARK 922        TOTAL FREE ENERGY PREDICTED BY IDOCK:  -12.18 KCAL/MOL
REMARK 923 INTER-LIGAND FREE ENERGY PREDICTED BY IDOCK:  -10.01 KCAL/MOL
REMARK 924 INTRA-LIGAND FREE ENERGY PREDICTED BY IDOCK:   -2.16 KCAL/MOL
REMARK 927      BINDING AFFINITY PREDICTED BY RF-SCORE:    0.00 PKD
ROOT
HETATM    1  C   UNL     1      -8.783   6.794  69.017  1.00  0.00    -0.130 C  
HETATM    2  C   UNL     1      -9.968   7.408  68.265  1.00  0.00    -0.163 C  
HETATM    3  C   UNL     1     -11.189   6.496  68.134  1.00  0.00    -0.250 C  
ENDROOT
BRANCH   2   4
HETATM    4  N   UNL     1     -10.315   8.772  68.685  1.00  0.00    -0.207 NA 
HETATM    5  C   UNL     1     -10.033   9.970  68.035  1.00  0.00    -0.150 A  
HETATM    6  C   UNL     1     -12.427  10.015  72.038  1.00  0.00    -0.311 A  
HETATM    7  C   UNL     1     -10.681  11.001  68.735  1.00  0.00    -0.240 A  
HETATM    8  C   UNL     1     -12.096   8.671  71.993  1.00  0.00    -0.442 A  
HETATM    9  C   UNL     1     -10.993   9.027  69.871  1.00  0.00    -0.193 A  
HETATM   10  C   UNL     1     -11.282  10.395  69.903  1.00  0.00    -0.371 A  
HETATM   11  C   UNL     1     -12.044  10.873  70.999  1.00  0.00    -0.425 A  
HETATM   12  C   UNL     1     -11.388   8.157  70.908  1.00  0.00    -0.286 A  
BRANCH   5  13
HETATM   13  C   UNL     1      -9.261   9.955  66.838  1.00  0.00    -0.171 C  
HETATM   14  C   UNL     1      -9.829   9.980  65.621  1.00  0.00    -0.363 C  
BRANCH  14  15
HETATM   15  C   UNL     1      -9.051  10.022  64.335  1.00  0.00    -0.247 C  
HETATM   16  H   UNL     1      -7.221  10.381  63.875  1.00  0.00     0.000 HD 
HETATM   17  O   UNL     1      -7.712  10.355  64.688  1.00  0.00    -0.140 OA 
BRANCH  15  18
HETATM   18  C   UNL     1      -9.638  11.046  63.352  1.00  0.00    -0.361 C  
BRANCH  18  19
HETATM   19  C   UNL     1     -10.963  11.666  63.829  1.00  0.00    -0.422 C  
HETATM   20  O   UNL     1     -12.018  11.355  62.904  1.00  0.00    -0.898 OA 
HETATM   21  H   UNL     1     -12.836  11.738  63.198  1.00  0.00     0.000 HD 
BRANCH  19  22
HETATM   22  C   UNL     1     -10.886  13.184  63.982  1.00  0.00    -0.348 C  
HETATM   23  C   UNL     1     -12.216  13.877  64.178  1.00  0.00    -0.393 C  
HETATM   24  O   UNL     1     -13.106  13.198  64.934  1.00  0.00    -0.744 OA 
HETATM   25  O   UNL     1     -12.443  15.003  63.760  1.00  0.00    -0.745 OA 
ENDBRANCH  19  22
ENDBRANCH  18  19
ENDBRANCH  15  18
ENDBRANCH  14  15
ENDBRANCH   5  13
BRANCH   7  26
HETATM   26  C   UNL     1     -10.643  12.426  68.340  1.00  0.00    -0.251 A  
HETATM   27  C   UNL     1      -9.370  14.397  67.637  1.00  0.00    -0.200 A  
HETATM   28  C   UNL     1     -11.771  14.513  67.730  1.00  0.00    -0.403 A  
HETATM   29  C   UNL     1     -10.549  15.101  67.450  1.00  0.00    -0.271 A  
HETATM   30  C   UNL     1      -9.421  13.063  68.060  1.00  0.00    -0.217 A  
HETATM   31  C   UNL     1     -11.814  13.195  68.201  1.00  0.00    -0.386 A  
HETATM   32  F   UNL     1     -10.506  16.357  66.989  1.00  0.00    -0.287 F  
ENDBRANCH   7  26
ENDBRANCH   2   4
TORSDOF 7
ENDMDL
MODEL       10
REMARK 921   NORMALIZED FREE ENERGY PREDICTED BY IDOCK:   -7.38 KCAL/MOL
REMARK 922        TOTAL FREE ENERGY PREDICTED BY IDOCK:  -12.10 KCAL/MOL
REMARK 923 INTER-LIGAND FREE ENERGY PREDICTED BY IDOCK:  -10.04 KCAL/MOL
REMARK 924 INTRA-LIGAND FREE ENERGY PREDICTED BY IDOCK:   -2.06 KCAL/MOL
REMARK 927      BINDING AFFINITY PREDICTED BY RF-SCORE:    0.00 PKD
ROOT
HETATM    1  C   UNL     1     -11.969  14.437  67.176  1.00  0.00    -0.419 C  
HETATM    2  C   UNL     1     -11.007  13.901  68.242  1.00  0.00    -0.255 C  
HETATM    3  C   UNL     1     -10.008  14.927  68.780  1.00  0.00    -0.228 C  
ENDROOT
BRANCH   2   4
HETATM    4  N   UNL     1     -11.650  13.117  69.305  1.00  0.00    -0.298 NA 
HETATM    5  C   UNL     1     -11.671  11.734  69.459  1.00  0.00    -0.343 A  
HETATM    6  C   UNL     1     -13.780  14.450  72.611  1.00  0.00    -0.546 A  
HETATM    7  C   UNL     1     -12.282  11.450  70.692  1.00  0.00    -0.484 A  
HETATM    8  C   UNL     1     -13.440  15.416  71.678  1.00  0.00    -0.593 A  
HETATM    9  C   UNL     1     -12.374  13.718  70.328  1.00  0.00    -0.337 A  
HETATM   10  C   UNL     1     -12.731  12.713  71.234  1.00  0.00    -0.354 A  
HETATM   11  C   UNL     1     -13.418  13.112  72.408  1.00  0.00    -0.643 A  
HETATM   12  C   UNL     1     -12.724  15.067  70.534  1.00  0.00    -0.406 A  
BRANCH   5  13
HETATM   13  C   UNL     1     -11.067  10.907  68.470  1.00  0.00    -0.311 C  
HETATM   14  C   UNL     1      -9.823  10.417  68.610  1.00  0.00    -0.183 C  
BRANCH  14  15
HETATM   15  C   UNL     1      -9.170   9.496  67.617  1.00  0.00    -0.124 C  
HETATM   16  H   UNL     1      -7.951   9.737  66.151  1.00  0.00     0.000 HD 
HETATM   17  O   UNL     1      -8.364  10.319  66.778  1.00  0.00    -0.122 OA 
BRANCH  15  18
HETATM   18  C   UNL     1     -10.210   8.718  66.797  1.00  0.00    -0.354 C  
BRANCH  18  19
HETATM   19  C   UNL     1     -10.328   7.237  67.204  1.00  0.00    -0.297 C  
HETATM   20  O   UNL     1     -11.532   6.669  66.661  1.00  0.00    -0.709 OA 
HETATM   21  H   UNL     1     -11.605   5.756  66.912  1.00  0.00     0.000 HD 
BRANCH  19  22
HETATM   22  C   UNL     1     -10.340   7.037  68.718  1.00  0.00    -0.196 C  
HETATM   23  C   UNL     1     -10.366   5.595  69.174  1.00  0.00    -0.258 C  
HETATM   24  O   UNL     1      -9.637   4.746  68.417  1.00  0.00    -0.136 OA 
HETATM   25  O   UNL     1     -10.929   5.236  70.197  1.00  0.00    -0.170 OA 
ENDBRANCH  19  22
ENDBRANCH  18  19
ENDBRANCH  15  18
ENDBRANCH  14  15
ENDBRANCH   5  13
BRANCH   7  26
HETATM   26  C   UNL     1     -12.470  10.085  71.232  1.00  0.00    -0.494 A  
HETATM   27  C   UNL     1     -13.931   8.177  71.706  1.00  0.00    -0.479 A  
HETATM   28  C   UNL     1     -11.572   7.997  72.144  1.00  0.00    -0.399 A  
HETATM   29  C   UNL     1     -12.838   7.436  72.126  1.00  0.00    -0.082 A  
HETATM   30  C   UNL     1     -13.742   9.485  71.244  1.00  0.00    -0.235 A  
HETATM   31  C   UNL     1     -11.397   9.323  71.729  1.00  0.00    -0.437 A  
HETATM   32  F   UNL     1     -13.006   6.165  72.512  1.00  0.00    -0.149 F  
ENDBRANCH   7  26
ENDBRANCH   2   4
TORSDOF 7
ENDMDL
MODEL       11
REMARK 921   NORMALIZED FREE ENERGY PREDICTED BY IDOCK:   -7.21 KCAL/MOL
REMARK 922        TOTAL FREE ENERGY PREDICTED BY IDOCK:  -11.86 KCAL/MOL
REMARK 923 INTER-LIGAND FREE ENERGY PREDICTED BY IDOCK:  -10.05 KCAL/MOL
REMARK 924 INTRA-LIGAND FREE ENERGY PREDICTED BY IDOCK:   -1.81 KCAL/MOL
REMARK 927      BINDING AFFINITY PREDICTED BY RF-SCORE:    0.00 PKD
ROOT
HETATM    1  C   UNL     1     -13.774  15.413  71.251  1.00  0.00    -0.558 C  
HETATM    2  C   UNL     1     -12.374  15.302  70.639  1.00  0.00    -0.377 C  
HETATM    3  C   UNL     1     -11.223  15.473  71.631  1.00  0.00    -0.388 C  
ENDROOT
BRANCH   2   4
HETATM    4  N   UNL     1     -12.191  14.153  69.742  1.00  0.00    -0.341 NA 
HETATM    5  C   UNL     1     -11.855  14.162  68.391  1.00  0.00    -0.353 A  
HETATM    6  C   UNL     1     -12.465  10.099  70.601  1.00  0.00    -0.372 A  
HETATM    7  C   UNL     1     -11.653  12.830  67.991  1.00  0.00    -0.388 A  
HETATM    8  C   UNL     1     -12.867  10.962  71.608  1.00  0.00    -0.554 A  
HETATM    9  C   UNL     1     -12.366  12.845  70.177  1.00  0.00    -0.179 A  
HETATM   10  C   UNL     1     -11.986  12.000  69.128  1.00  0.00    -0.326 A  
HETATM   11  C   UNL     1     -12.012  10.604  69.376  1.00  0.00    -0.298 A  
HETATM   12  C   UNL     1     -12.811  12.342  71.416  1.00  0.00    -0.373 A  
BRANCH   5  13
HETATM   13  C   UNL     1     -11.716  15.404  67.710  1.00  0.00    -0.159 C  
HETATM   14  C   UNL     1     -10.525  15.855  67.281  1.00  0.00    -0.310 C  
BRANCH  14  15
HETATM   15  C   UNL     1     -10.342  17.133  66.510  1.00  0.00    -0.306 C  
HETATM   16  H   UNL     1     -10.516  17.632  64.663  1.00  0.00     0.000 HD 
HETATM   17  O   UNL     1     -10.632  16.824  65.150  1.00  0.00    -0.663 OA 
BRANCH  15  18
HETATM   18  C   UNL     1      -8.918  17.687  66.662  1.00  0.00    -0.283 C  
BRANCH  18  19
HETATM   19  C   UNL     1      -8.401  17.660  68.113  1.00  0.00    -0.259 C  
HETATM   20  O   UNL     1      -8.223  19.001  68.600  1.00  0.00    -0.349 OA 
HETATM   21  H   UNL     1      -7.904  18.984  69.494  1.00  0.00     0.000 HD 
BRANCH  19  22
HETATM   22  C   UNL     1      -7.075  16.914  68.256  1.00  0.00    -0.179 C  
HETATM   23  C   UNL     1      -7.012  15.936  69.408  1.00  0.00    -0.211 C  
HETATM   24  O   UNL     1      -8.159  15.265  69.648  1.00  0.00    -0.233 OA 
HETATM   25  O   UNL     1      -5.981  15.704  70.021  1.00  0.00    -0.151 OA 
ENDBRANCH  19  22
ENDBRANCH  18  19
ENDBRANCH  15  18
ENDBRANCH  14  15
ENDBRANCH   5  13
BRANCH   7  26
HETATM   26  C   UNL     1     -11.256  12.423  66.626  1.00  0.00    -0.366 A  
HETATM   27  C   UNL     1      -9.580  11.512  65.089  1.00  0.00    -0.235 A  
HETATM   28  C   UNL     1     -11.794  11.987  64.276  1.00  0.00    -0.431 A  
HETATM   29  C   UNL     1     -10.511  11.511  64.063  1.00  0.00    -0.370 A  
HETATM   30  C   UNL     1      -9.958  11.948  66.365  1.00  0.00    -0.237 A  
HETATM   31  C   UNL     1     -12.152  12.468  65.541  1.00  0.00    -0.481 A  
HETATM   32  F   UNL     1     -10.169  11.040  62.857  1.00  0.00    -0.321 F  
ENDBRANCH   7  26
ENDBRANCH   2   4
TORSDOF 7
ENDMDL
MODEL       12
REMARK 921   NORMALIZED FREE ENERGY PREDICTED BY IDOCK:   -7.12 KCAL/MOL
REMARK 922        TOTAL FREE ENERGY PREDICTED BY IDOCK:  -11.73 KCAL/MOL
REMARK 923 INTER-LIGAND FREE ENERGY PREDICTED BY IDOCK:   -9.95 KCAL/MOL
REMARK 924 INTRA-LIGAND FREE ENERGY PREDICTED BY IDOCK:   -1.78 KCAL/MOL
REMARK 927      BINDING AFFINITY PREDICTED BY RF-SCORE:    0.00 PKD
ROOT
HETATM    1  C   UNL     1     -12.643  12.424  64.507  1.00  0.00    -0.477 C  
HETATM    2  C   UNL     1     -11.121  12.408  64.678  1.00  0.00    -0.307 C  
HETATM    3  C   UNL     1     -10.485  13.781  64.901  1.00  0.00    -0.437 C  
ENDROOT
BRANCH   2   4
HETATM    4  N   UNL     1     -10.623  11.388  65.611  1.00  0.00    -0.260 NA 
HETATM    5  C   UNL     1     -10.822  11.310  66.986  1.00  0.00    -0.280 A  
HETATM    6  C   UNL     1      -8.354   8.003  64.812  1.00  0.00    -0.086 A  
HETATM    7  C   UNL     1     -10.280  10.093  67.430  1.00  0.00    -0.267 A  
HETATM    8  C   UNL     1      -8.525   8.883  63.756  1.00  0.00    -0.147 A  
HETATM    9  C   UNL     1      -9.828  10.330  65.188  1.00  0.00    -0.321 A  
HETATM   10  C   UNL     1      -9.645   9.480  66.284  1.00  0.00    -0.287 A  
HETATM   11  C   UNL     1      -8.918   8.282  66.063  1.00  0.00    -0.224 A  
HETATM   12  C   UNL     1      -9.272  10.048  63.924  1.00  0.00    -0.317 A  
BRANCH   5  13
HETATM   13  C   UNL     1     -11.537  12.346  67.652  1.00  0.00    -0.421 C  
HETATM   14  C   UNL     1     -11.007  13.037  68.676  1.00  0.00    -0.297 C  
BRANCH  14  15
HETATM   15  C   UNL     1     -11.705  14.173  69.370  1.00  0.00    -0.313 C  
HETATM   16  H   UNL     1     -11.164  15.902  70.008  1.00  0.00     0.000 HD 
HETATM   17  O   UNL     1     -10.722  15.184  69.569  1.00  0.00    -0.244 OA 
BRANCH  15  18
HETATM   18  C   UNL     1     -12.323  13.728  70.704  1.00  0.00    -0.445 C  
BRANCH  18  19
HETATM   19  C   UNL     1     -13.582  14.524  71.094  1.00  0.00    -0.307 C  
HETATM   20  O   UNL     1     -13.570  15.813  70.458  1.00  0.00    -0.766 OA 
HETATM   21  H   UNL     1     -14.347  16.304  70.699  1.00  0.00     0.000 HD 
BRANCH  19  22
HETATM   22  C   UNL     1     -13.708  14.731  72.602  1.00  0.00    -0.547 C  
HETATM   23  C   UNL     1     -12.505  15.365  73.265  1.00  0.00    -0.486 C  
HETATM   24  O   UNL     1     -11.889  16.318  72.533  1.00  0.00    -0.516 OA 
HETATM   25  O   UNL     1     -12.166  15.101  74.409  1.00  0.00    -0.634 OA 
ENDBRANCH  19  22
ENDBRANCH  18  19
ENDBRANCH  15  18
ENDBRANCH  14  15
ENDBRANCH   5  13
BRANCH   7  26
HETATM   26  C   UNL     1     -10.316   9.629  68.834  1.00  0.00    -0.220 A  
HETATM   27  C   UNL     1      -9.155   9.140  70.934  1.00  0.00    -0.316 A  
HETATM   28  C   UNL     1     -11.552   8.952  70.838  1.00  0.00    -0.331 A  
HETATM   29  C   UNL     1     -10.367   8.881  71.553  1.00  0.00    -0.324 A  
HETATM   30  C   UNL     1      -9.134   9.530  69.589  1.00  0.00    -0.207 A  
HETATM   31  C   UNL     1     -11.520   9.294  69.480  1.00  0.00     0.186 A  
HETATM   32  F   UNL     1     -10.395   8.565  72.854  1.00  0.00    -0.355 F  
ENDBRANCH   7  26
ENDBRANCH   2   4
TORSDOF 7
ENDMDL
MODEL       13
REMARK 921   NORMALIZED FREE ENERGY PREDICTED BY IDOCK:   -7.11 KCAL/MOL
REMARK 922        TOTAL FREE ENERGY PREDICTED BY IDOCK:  -11.72 KCAL/MOL
REMARK 923 INTER-LIGAND FREE ENERGY PREDICTED BY IDOCK:  -10.19 KCAL/MOL
REMARK 924 INTRA-LIGAND FREE ENERGY PREDICTED BY IDOCK:   -1.54 KCAL/MOL
REMARK 927      BINDING AFFINITY PREDICTED BY RF-SCORE:    0.00 PKD
ROOT
HETATM    1  C   UNL     1     -13.687  15.361  71.171  1.00  0.00    -0.497 C  
HETATM    2  C   UNL     1     -12.212  15.719  70.962  1.00  0.00    -0.418 C  
HETATM    3  C   UNL     1     -11.269  15.231  72.062  1.00  0.00    -0.323 C  
ENDROOT
BRANCH   2   4
HETATM    4  N   UNL     1     -11.705  15.446  69.610  1.00  0.00    -0.315 NA 
HETATM    5  C   UNL     1     -11.852  14.287  68.855  1.00  0.00    -0.336 A  
HETATM    6  C   UNL     1      -9.555  17.935  67.075  1.00  0.00    -0.286 A  
HETATM    7  C   UNL     1     -11.325  14.537  67.578  1.00  0.00    -0.355 A  
HETATM    8  C   UNL     1      -9.745  18.401  68.365  1.00  0.00    -0.379 A  
HETATM    9  C   UNL     1     -10.954  16.378  68.904  1.00  0.00    -0.332 A  
HETATM   10  C   UNL     1     -10.750  15.864  67.619  1.00  0.00    -0.312 A  
HETATM   11  C   UNL     1     -10.064  16.688  66.691  1.00  0.00    -0.305 A  
HETATM   12  C   UNL     1     -10.455  17.638  69.291  1.00  0.00    -0.026 A  
BRANCH   5  13
HETATM   13  C   UNL     1     -12.514  13.159  69.420  1.00  0.00     0.121 C  
HETATM   14  C   UNL     1     -11.840  12.142  69.982  1.00  0.00    -0.383 C  
BRANCH  14  15
HETATM   15  C   UNL     1     -12.500  10.961  70.638  1.00  0.00    -0.369 C  
HETATM   16  H   UNL     1     -13.545  10.710  72.230  1.00  0.00     0.000 HD 
HETATM   17  O   UNL     1     -13.128  11.457  71.816  1.00  0.00    -0.480 OA 
BRANCH  15  18
HETATM   18  C   UNL     1     -11.484   9.858  70.972  1.00  0.00    -0.466 C  
BRANCH  18  19
HETATM   19  C   UNL     1     -12.117   8.461  71.111  1.00  0.00    -0.249 C  
HETATM   20  O   UNL     1     -13.549   8.569  71.163  1.00  0.00    -0.548 OA 
HETATM   21  H   UNL     1     -13.939   7.707  71.250  1.00  0.00     0.000 HD 
BRANCH  19  22
HETATM   22  C   UNL     1     -11.643   7.718  72.359  1.00  0.00    -0.410 C  
HETATM   23  C   UNL     1     -11.319   6.256  72.148  1.00  0.00    -0.297 C  
HETATM   24  O   UNL     1     -10.736   5.966  70.965  1.00  0.00    -0.244 OA 
HETATM   25  O   UNL     1     -11.489   5.410  73.014  1.00  0.00    -0.308 OA 
ENDBRANCH  19  22
ENDBRANCH  18  19
ENDBRANCH  15  18
ENDBRANCH  14  15
ENDBRANCH   5  13
BRANCH   7  26
HETATM   26  C   UNL     1     -11.318  13.553  66.473  1.00  0.00    -0.340 A  
HETATM   27  C   UNL     1     -12.406  12.555  64.518  1.00  0.00    -0.545 A  
HETATM   28  C   UNL     1     -10.187  11.850  65.124  1.00  0.00    -0.314 A  
HETATM   29  C   UNL     1     -11.280  11.785  64.276  1.00  0.00    -0.344 A  
HETATM   30  C   UNL     1     -12.415  13.446  65.599  1.00  0.00    -0.519 A  
HETATM   31  C   UNL     1     -10.221  12.706  66.232  1.00  0.00    -0.264 A  
HETATM   32  F   UNL     1     -11.246  10.976  63.210  1.00  0.00    -0.341 F  
ENDBRANCH   7  26
ENDBRANCH   2   4
TORSDOF 7
ENDMDL
MODEL       14
REMARK 921   NORMALIZED FREE ENERGY PREDICTED BY IDOCK:   -7.09 KCAL/MOL
REMARK 922        TOTAL FREE ENERGY PREDICTED BY IDOCK:  -11.70 KCAL/MOL
REMARK 923 INTER-LIGAND FREE ENERGY PREDICTED BY IDOCK:  -10.57 KCAL/MOL
REMARK 924 INTRA-LIGAND FREE ENERGY PREDICTED BY IDOCK:   -1.13 KCAL/MOL
REMARK 927      BINDING AFFINITY PREDICTED BY RF-SCORE:    0.00 PKD
ROOT
HETATM    1  C   UNL     1      -8.784   7.108  69.675  1.00  0.00    -0.141 C  
HETATM    2  C   UNL     1      -9.754   7.930  68.820  1.00  0.00    -0.158 C  
HETATM    3  C   UNL     1     -10.482   7.138  67.733  1.00  0.00    -0.284 C  
ENDROOT
BRANCH   2   4
HETATM    4  N   UNL     1     -10.650   8.806  69.587  1.00  0.00    -0.221 NA 
HETATM    5  C   UNL     1     -10.734  10.194  69.549  1.00  0.00    -0.249 A  
HETATM    6  C   UNL     1     -13.592   7.776  72.331  1.00  0.00     0.098 A  
HETATM    7  C   UNL     1     -11.826  10.580  70.344  1.00  0.00    -0.431 A  
HETATM    8  C   UNL     1     -12.778   6.742  71.895  1.00  0.00    -0.298 A  
HETATM    9  C   UNL     1     -11.558   8.303  70.511  1.00  0.00    -0.131 A  
HETATM   10  C   UNL     1     -12.339   9.374  70.956  1.00  0.00    -0.332 A  
HETATM   11  C   UNL     1     -13.393   9.079  71.858  1.00  0.00    -0.474 A  
HETATM   12  C   UNL     1     -11.762   6.988  70.973  1.00  0.00    -0.375 A  
BRANCH   5  13
HETATM   13  C   UNL     1      -9.828  10.932  68.733  1.00  0.00    -0.203 C  
HETATM   14  C   UNL     1      -9.936  10.965  67.395  1.00  0.00    -0.215 C  
BRANCH  14  15
HETATM   15  C   UNL     1      -9.036  11.774  66.503  1.00  0.00    -0.196 C  
HETATM   16  H   UNL     1      -7.137  12.043  66.386  1.00  0.00     0.000 HD 
HETATM   17  O   UNL     1      -7.705  11.532  66.950  1.00  0.00    -0.150 OA 
BRANCH  15  18
HETATM   18  C   UNL     1      -9.377  13.271  66.561  1.00  0.00    -0.221 C  
BRANCH  18  19
HETATM   19  C   UNL     1     -10.431  13.701  65.524  1.00  0.00    -0.306 C  
HETATM   20  O   UNL     1      -9.987  13.367  64.198  1.00  0.00    -0.757 OA 
HETATM   21  H   UNL     1     -10.636  13.633  63.559  1.00  0.00     0.000 HD 
BRANCH  19  22
HETATM   22  C   UNL     1     -10.730  15.198  65.570  1.00  0.00    -0.379 C  
HETATM   23  C   UNL     1     -11.554  15.723  64.415  1.00  0.00    -0.240 C  
HETATM   24  O   UNL     1     -12.519  14.886  63.978  1.00  0.00    -0.807 OA 
HETATM   25  O   UNL     1     -11.418  16.851  63.965  1.00  0.00    -1.130 OA 
ENDBRANCH  19  22
ENDBRANCH  18  19
ENDBRANCH  15  18
ENDBRANCH  14  15
ENDBRANCH   5  13
BRANCH   7  26
HETATM   26  C   UNL     1     -12.260  11.981  70.538  1.00  0.00    -0.414 A  
HETATM   27  C   UNL     1     -13.337  13.694  71.919  1.00  0.00    -0.510 A  
HETATM   28  C   UNL     1     -12.304  14.329  69.841  1.00  0.00    -0.377 A  
HETATM   29  C   UNL     1     -12.980  14.668  71.001  1.00  0.00    -0.356 A  
HETATM   30  C   UNL     1     -12.961  12.363  71.695  1.00  0.00    -0.409 A  
HETATM   31  C   UNL     1     -11.974  12.990  69.599  1.00  0.00    -0.367 A  
HETATM   32  F   UNL     1     -13.286  15.950  71.240  1.00  0.00    -0.538 F  
ENDBRANCH   7  26
ENDBRANCH   2   4
TORSDOF 7
ENDMDL
MODEL       15
REMARK 921   NORMALIZED FREE ENERGY PREDICTED BY IDOCK:   -7.00 KCAL/MOL
REMARK 922        TOTAL FREE ENERGY PREDICTED BY IDOCK:  -11.57 KCAL/MOL
REMARK 923 INTER-LIGAND FREE ENERGY PREDICTED BY IDOCK:   -9.69 KCAL/MOL
REMARK 924 INTRA-LIGAND FREE ENERGY PREDICTED BY IDOCK:   -1.89 KCAL/MOL
REMARK 927      BINDING AFFINITY PREDICTED BY RF-SCORE:    0.00 PKD
ROOT
HETATM    1  C   UNL     1     -10.668   8.599  66.853  1.00  0.00    -0.152 C  
HETATM    2  C   UNL     1      -9.853   9.729  67.489  1.00  0.00    -0.167 C  
HETATM    3  C   UNL     1      -8.606  10.142  66.705  1.00  0.00    -0.130 C  
ENDROOT
BRANCH   2   4
HETATM    4  N   UNL     1     -10.651  10.877  67.940  1.00  0.00    -0.193 NA 
HETATM    5  C   UNL     1     -10.963  11.247  69.244  1.00  0.00    -0.243 A  
HETATM    6  C   UNL     1     -12.463  13.850  65.676  1.00  0.00    -0.538 A  
HETATM    7  C   UNL     1     -11.625  12.485  69.193  1.00  0.00    -0.375 A  
HETATM    8  C   UNL     1     -11.924  12.789  64.966  1.00  0.00    -0.456 A  
HETATM    9  C   UNL     1     -11.235  11.765  67.045  1.00  0.00    -0.322 A  
HETATM   10  C   UNL     1     -11.799  12.804  67.793  1.00  0.00    -0.387 A  
HETATM   11  C   UNL     1     -12.392  13.874  67.075  1.00  0.00    -0.287 A  
HETATM   12  C   UNL     1     -11.293  11.743  65.637  1.00  0.00    -0.293 A  
BRANCH   5  13
HETATM   13  C   UNL     1     -10.543  10.424  70.328  1.00  0.00    -0.184 C  
HETATM   14  C   UNL     1     -11.377   9.568  70.942  1.00  0.00    -0.410 C  
BRANCH  14  15
HETATM   15  C   UNL     1     -10.960   8.643  72.051  1.00  0.00    -0.362 C  
HETATM   16  H   UNL     1      -9.287   8.208  72.889  1.00  0.00     0.000 HD 
HETATM   17  O   UNL     1      -9.550   8.792  72.188  1.00  0.00    -0.305 OA 
BRANCH  15  18
HETATM   18  C   UNL     1     -11.337   7.186  71.745  1.00  0.00    -0.285 C  
BRANCH  18  19
HETATM   19  C   UNL     1     -10.776   6.675  70.405  1.00  0.00    -0.250 C  
HETATM   20  O   UNL     1     -11.837   6.535  69.445  1.00  0.00    -0.636 OA 
HETATM   21  H   UNL     1     -11.491   6.220  68.619  1.00  0.00     0.000 HD 
BRANCH  19  22
HETATM   22  C   UNL     1     -10.063   5.330  70.535  1.00  0.00    -0.315 C  
HETATM   23  C   UNL     1      -9.660   4.689  69.226  1.00  0.00    -0.181 C  
HETATM   24  O   UNL     1      -9.241   5.552  68.276  1.00  0.00    -0.108 OA 
HETATM   25  O   UNL     1      -9.631   3.478  69.065  1.00  0.00    -0.169 OA 
ENDBRANCH  19  22
ENDBRANCH  18  19
ENDBRANCH  15  18
ENDBRANCH  14  15
ENDBRANCH   5  13
BRANCH   7  26
HETATM   26  C   UNL     1     -12.098  13.225  70.383  1.00  0.00    -0.401 A  
HETATM   27  C   UNL     1     -12.023  15.216  71.808  1.00  0.00    -0.448 A  
HETATM   28  C   UNL     1     -13.627  13.486  72.279  1.00  0.00    -0.690 A  
HETATM   29  C   UNL     1     -13.075  14.724  72.564  1.00  0.00    -0.402 A  
HETATM   30  C   UNL     1     -11.554  14.479  70.714  1.00  0.00    -0.260 A  
HETATM   31  C   UNL     1     -13.120  12.730  71.215  1.00  0.00    -0.245 A  
HETATM   32  F   UNL     1     -13.565  15.453  73.574  1.00  0.00    -0.493 F  
ENDBRANCH   7  26
ENDBRANCH   2   4
TORSDOF 7
ENDMDL
MODEL       16
REMARK 921   NORMALIZED FREE ENERGY PREDICTED BY IDOCK:   -7.00 KCAL/MOL
REMARK 922        TOTAL FREE ENERGY PREDICTED BY IDOCK:  -11.57 KCAL/MOL
REMARK 923 INTER-LIGAND FREE ENERGY PREDICTED BY IDOCK:   -9.90 KCAL/MOL
REMARK 924 INTRA-LIGAND FREE ENERGY PREDICTED BY IDOCK:   -1.67 KCAL/MOL
REMARK 927      BINDING AFFINITY PREDICTED BY RF-SCORE:    0.00 PKD
ROOT
HETATM    1  C   UNL     1     -10.614  10.779  65.875  1.00  0.00    -0.216 C  
HETATM    2  C   UNL     1      -9.896  11.324  67.114  1.00  0.00    -0.190 C  
HETATM    3  C   UNL     1      -8.371  11.373  67.003  1.00  0.00    -0.161 C  
ENDROOT
BRANCH   2   4
HETATM    4  N   UNL     1     -10.471  12.562  67.655  1.00  0.00    -0.215 NA 
HETATM    5  C   UNL     1     -11.085  12.757  68.889  1.00  0.00    -0.262 A  
HETATM    6  C   UNL     1     -10.609  16.344  65.946  1.00  0.00    -0.294 A  
HETATM    7  C   UNL     1     -11.348  14.130  69.025  1.00  0.00    -0.310 A  
HETATM    8  C   UNL     1     -10.162  15.322  65.124  1.00  0.00    -0.374 A  
HETATM    9  C   UNL     1     -10.479  13.748  66.931  1.00  0.00    -0.272 A  
HETATM   10  C   UNL     1     -10.967  14.751  67.775  1.00  0.00    -0.294 A  
HETATM   11  C   UNL     1     -10.993  16.074  67.265  1.00  0.00    -0.207 A  
HETATM   12  C   UNL     1     -10.079  14.017  65.607  1.00  0.00    -0.342 A  
BRANCH   5  13
HETATM   13  C   UNL     1     -11.270  11.650  69.765  1.00  0.00    -0.203 C  
HETATM   14  C   UNL     1     -12.479  11.110  69.990  1.00  0.00    -0.292 C  
BRANCH  14  15
HETATM   15  C   UNL     1     -12.710   9.907  70.863  1.00  0.00    -0.290 C  
HETATM   16  H   UNL     1     -13.441   9.634  72.618  1.00  0.00     0.000 HD 
HETATM   17  O   UNL     1     -13.295  10.394  72.067  1.00  0.00    -0.433 OA 
BRANCH  15  18
HETATM   18  C   UNL     1     -11.402   9.153  71.145  1.00  0.00    -0.392 C  
BRANCH  18  19
HETATM   19  C   UNL     1     -11.619   7.717  71.657  1.00  0.00    -0.267 C  
HETATM   20  O   UNL     1     -11.946   7.733  73.056  1.00  0.00    -0.610 OA 
HETATM   21  H   UNL     1     -12.080   6.848  73.371  1.00  0.00     0.000 HD 
BRANCH  19  22
HETATM   22  C   UNL     1     -10.394   6.826  71.457  1.00  0.00    -0.228 C  
HETATM   23  C   UNL     1     -10.577   5.699  70.465  1.00  0.00    -0.284 C  
HETATM   24  O   UNL     1     -11.333   6.005  69.389  1.00  0.00    -0.398 OA 
HETATM   25  O   UNL     1     -10.014   4.620  70.579  1.00  0.00    -0.215 OA 
ENDBRANCH  19  22
ENDBRANCH  18  19
ENDBRANCH  15  18
ENDBRANCH  14  15
ENDBRANCH   5  13
BRANCH   7  26
HETATM   26  C   UNL     1     -11.975  14.743  70.217  1.00  0.00    -0.367 A  
HETATM   27  C   UNL     1     -13.955  15.136  71.603  1.00  0.00    -0.618 A  
HETATM   28  C   UNL     1     -11.815  15.951  72.341  1.00  0.00    -0.618 A  
HETATM   29  C   UNL     1     -13.174  15.780  72.549  1.00  0.00    -0.487 A  
HETATM   30  C   UNL     1     -13.354  14.605  70.456  1.00  0.00    -0.065 A  
HETATM   31  C   UNL     1     -11.228  15.462  71.168  1.00  0.00    -0.410 A  
HETATM   32  F   UNL     1     -13.736  16.238  73.675  1.00  0.00    -0.590 F  
ENDBRANCH   7  26
ENDBRANCH   2   4
TORSDOF 7
ENDMDL
MODEL       17
REMARK 921   NORMALIZED FREE ENERGY PREDICTED BY IDOCK:   -6.95 KCAL/MOL
REMARK 922        TOTAL FREE ENERGY PREDICTED BY IDOCK:  -11.50 KCAL/MOL
REMARK 923 INTER-LIGAND FREE ENERGY PREDICTED BY IDOCK:  -10.14 KCAL/MOL
REMARK 924 INTRA-LIGAND FREE ENERGY PREDICTED BY IDOCK:   -1.36 KCAL/MOL
REMARK 927      BINDING AFFINITY PREDICTED BY RF-SCORE:    0.00 PKD
ROOT
HETATM    1  C   UNL     1      -8.522   9.686  66.419  1.00  0.00    -0.128 C  
HETATM    2  C   UNL     1     -10.047   9.533  66.412  1.00  0.00    -0.258 C  
HETATM    3  C   UNL     1     -10.559   8.174  66.889  1.00  0.00    -0.311 C  
ENDROOT
BRANCH   2   4
HETATM    4  N   UNL     1     -10.775  10.661  67.008  1.00  0.00    -0.266 NA 
HETATM    5  C   UNL     1     -11.093  10.867  68.347  1.00  0.00    -0.262 A  
HETATM    6  C   UNL     1     -12.325  14.041  65.159  1.00  0.00    -0.468 A  
HETATM    7  C   UNL     1     -11.667  12.144  68.460  1.00  0.00    -0.382 A  
HETATM    8  C   UNL     1     -11.842  13.054  64.315  1.00  0.00    -0.456 A  
HETATM    9  C   UNL     1     -11.275  11.704  66.238  1.00  0.00    -0.271 A  
HETATM   10  C   UNL     1     -11.785  12.666  67.116  1.00  0.00    -0.438 A  
HETATM   11  C   UNL     1     -12.285  13.865  66.548  1.00  0.00    -0.482 A  
HETATM   12  C   UNL     1     -11.301  11.882  64.840  1.00  0.00    -0.337 A  
BRANCH   5  13
HETATM   13  C   UNL     1     -10.756   9.874  69.311  1.00  0.00    -0.247 C  
HETATM   14  C   UNL     1      -9.649   9.957  70.067  1.00  0.00    -0.260 C  
BRANCH  14  15
HETATM   15  C   UNL     1      -9.286   8.960  71.133  1.00  0.00    -0.257 C  
HETATM   16  H   UNL     1      -7.664   8.494  72.050  1.00  0.00     0.000 HD 
HETATM   17  O   UNL     1      -7.893   9.124  71.376  1.00  0.00    -0.310 OA 
BRANCH  15  18
HETATM   18  C   UNL     1      -9.608   7.523  70.696  1.00  0.00    -0.171 C  
BRANCH  18  19
HETATM   19  C   UNL     1     -10.671   6.837  71.575  1.00  0.00    -0.226 C  
HETATM   20  O   UNL     1     -10.258   5.500  71.900  1.00  0.00    -0.187 OA 
HETATM   21  H   UNL     1     -10.914   5.077  72.442  1.00  0.00     0.000 HD 
BRANCH  19  22
HETATM   22  C   UNL     1     -12.042   6.770  70.903  1.00  0.00    -0.421 C  
HETATM   23  C   UNL     1     -13.129   7.568  71.586  1.00  0.00    -0.358 C  
HETATM   24  O   UNL     1     -12.727   8.745  72.112  1.00  0.00    -0.351 OA 
HETATM   25  O   UNL     1     -14.302   7.221  71.588  1.00  0.00    -0.437 OA 
ENDBRANCH  19  22
ENDBRANCH  18  19
ENDBRANCH  15  18
ENDBRANCH  14  15
ENDBRANCH   5  13
BRANCH   7  26
HETATM   26  C   UNL     1     -12.117  12.744  69.735  1.00  0.00    -0.305 A  
HETATM   27  C   UNL     1     -12.509  14.723  71.124  1.00  0.00    -0.397 A  
HETATM   28  C   UNL     1     -13.170  12.558  71.939  1.00  0.00    -0.495 A  
HETATM   29  C   UNL     1     -13.094  13.932  72.099  1.00  0.00    -0.406 A  
HETATM   30  C   UNL     1     -12.042  14.133  69.943  1.00  0.00    -0.405 A  
HETATM   31  C   UNL     1     -12.657  11.968  70.778  1.00  0.00    -0.312 A  
HETATM   32  F   UNL     1     -13.594  14.500  73.204  1.00  0.00    -0.537 F  
ENDBRANCH   7  26
ENDBRANCH   2   4
TORSDOF 7
ENDMDL
MODEL       18
REMARK 921   NORMALIZED FREE ENERGY PREDICTED BY IDOCK:   -6.93 KCAL/MOL
REMARK 922        TOTAL FREE ENERGY PREDICTED BY IDOCK:  -11.48 KCAL/MOL
REMARK 923 INTER-LIGAND FREE ENERGY PREDICTED BY IDOCK:   -9.71 KCAL/MOL
REMARK 924 INTRA-LIGAND FREE ENERGY PREDICTED BY IDOCK:   -1.77 KCAL/MOL
REMARK 927      BINDING AFFINITY PREDICTED BY RF-SCORE:    0.00 PKD
ROOT
HETATM    1  C   UNL     1     -10.071  14.751  65.234  1.00  0.00    -0.388 C  
HETATM    2  C   UNL     1     -11.335  14.013  65.687  1.00  0.00    -0.313 C  
HETATM    3  C   UNL     1     -12.395  13.828  64.601  1.00  0.00    -0.410 C  
ENDROOT
BRANCH   2   4
HETATM    4  N   UNL     1     -11.082  12.787  66.456  1.00  0.00    -0.277 NA 
HETATM    5  C   UNL     1     -11.289  12.566  67.814  1.00  0.00    -0.296 A  
HETATM    6  C   UNL     1      -9.655   9.120  65.129  1.00  0.00     0.000 A  
HETATM    7  C   UNL     1     -11.040  11.208  68.071  1.00  0.00    -0.334 A  
HETATM    8  C   UNL     1      -9.623  10.154  64.208  1.00  0.00    -0.354 A  
HETATM    9  C   UNL     1     -10.553  11.645  65.867  1.00  0.00    -0.271 A  
HETATM   10  C   UNL     1     -10.567  10.632  66.831  1.00  0.00    -0.311 A  
HETATM   11  C   UNL     1     -10.136   9.343  66.425  1.00  0.00    -0.332 A  
HETATM   12  C   UNL     1     -10.081  11.423  64.558  1.00  0.00    -0.337 A  
BRANCH   5  13
HETATM   13  C   UNL     1     -11.744  13.635  68.639  1.00  0.00    -0.389 C  
HETATM   14  C   UNL     1     -10.896  14.482  69.244  1.00  0.00    -0.270 C  
BRANCH  14  15
HETATM   15  C   UNL     1     -11.335  15.655  70.077  1.00  0.00    -0.334 C  
HETATM   16  H   UNL     1     -12.996  16.588  70.324  1.00  0.00     0.000 HD 
HETATM   17  O   UNL     1     -12.718  15.848  69.797  1.00  0.00    -0.134 OA 
BRANCH  15  18
HETATM   18  C   UNL     1     -10.521  16.916  69.751  1.00  0.00    -0.078 C  
BRANCH  18  19
HETATM   19  C   UNL     1     -10.397  17.195  68.242  1.00  0.00    -0.354 C  
HETATM   20  O   UNL     1      -9.059  16.920  67.796  1.00  0.00    -0.225 OA 
HETATM   21  H   UNL     1      -8.983  17.093  66.865  1.00  0.00     0.000 HD 
BRANCH  19  22
HETATM   22  C   UNL     1     -10.742  18.638  67.876  1.00  0.00    -0.347 C  
HETATM   23  C   UNL     1     -10.363  19.049  66.471  1.00  0.00    -0.439 C  
HETATM   24  O   UNL     1     -10.524  18.091  65.533  1.00  0.00    -0.636 OA 
HETATM   25  O   UNL     1     -10.021  20.188  66.185  1.00  0.00    -0.452 OA 
ENDBRANCH  19  22
ENDBRANCH  18  19
ENDBRANCH  15  18
ENDBRANCH  14  15
ENDBRANCH   5  13
BRANCH   7  26
HETATM   26  C   UNL     1     -11.178  10.574  69.400  1.00  0.00    -0.327 A  
HETATM   27  C   UNL     1     -12.577   9.919  71.301  1.00  0.00    -0.480 A  
HETATM   28  C   UNL     1     -10.264   9.261  71.255  1.00  0.00    -0.383 A  
HETATM   29  C   UNL     1     -11.504   9.253  71.871  1.00  0.00    -0.311 A  
HETATM   30  C   UNL     1     -12.417  10.557  70.064  1.00  0.00    -0.243 A  
HETATM   31  C   UNL     1     -10.097   9.943  70.044  1.00  0.00    -0.308 A  
HETATM   32  F   UNL     1     -11.669   8.592  73.023  1.00  0.00    -0.375 F  
ENDBRANCH   7  26
ENDBRANCH   2   4
TORSDOF 7
ENDMDL
MODEL       19
REMARK 921   NORMALIZED FREE ENERGY PREDICTED BY IDOCK:   -6.93 KCAL/MOL
REMARK 922        TOTAL FREE ENERGY PREDICTED BY IDOCK:  -11.47 KCAL/MOL
REMARK 923 INTER-LIGAND FREE ENERGY PREDICTED BY IDOCK:   -9.92 KCAL/MOL
REMARK 924 INTRA-LIGAND FREE ENERGY PREDICTED BY IDOCK:   -1.55 KCAL/MOL
REMARK 927      BINDING AFFINITY PREDICTED BY RF-SCORE:    0.00 PKD
ROOT
HETATM    1  C   UNL     1     -10.957   9.646  71.447  1.00  0.00    -0.354 C  
HETATM    2  C   UNL     1     -12.263  10.124  70.804  1.00  0.00    -0.338 C  
HETATM    3  C   UNL     1     -13.513   9.922  71.661  1.00  0.00    -0.421 C  
ENDROOT
BRANCH   2   4
HETATM    4  N   UNL     1     -12.192  11.462  70.201  1.00  0.00    -0.325 NA 
HETATM    5  C   UNL     1     -11.726  11.812  68.938  1.00  0.00    -0.323 A  
HETATM    6  C   UNL     1     -13.385  15.108  71.790  1.00  0.00    -0.506 A  
HETATM    7  C   UNL     1     -11.982  13.180  68.750  1.00  0.00    -0.316 A  
HETATM    8  C   UNL     1     -13.408  14.031  72.660  1.00  0.00    -0.643 A  
HETATM    9  C   UNL     1     -12.593  12.601  70.889  1.00  0.00    -0.249 A  
HETATM   10  C   UNL     1     -12.527  13.675  69.995  1.00  0.00    -0.267 A  
HETATM   11  C   UNL     1     -12.967  14.939  70.464  1.00  0.00    -0.339 A  
HETATM   12  C   UNL     1     -13.026  12.764  72.220  1.00  0.00    -0.289 A  
BRANCH   5  13
HETATM   13  C   UNL     1     -11.178  10.809  68.088  1.00  0.00    -0.365 C  
HETATM   14  C   UNL     1      -9.873  10.777  67.769  1.00  0.00    -0.186 C  
BRANCH  14  15
HETATM   15  C   UNL     1      -9.244   9.706  66.921  1.00  0.00    -0.143 C  
HETATM   16  H   UNL     1      -8.224   9.697  65.294  1.00  0.00     0.000 HD 
HETATM   17  O   UNL     1      -8.621  10.375  65.829  1.00  0.00    -0.152 OA 
BRANCH  15  18
HETATM   18  C   UNL     1     -10.286   8.689  66.430  1.00  0.00    -0.224 C  
BRANCH  18  19
HETATM   19  C   UNL     1     -10.185   7.321  67.129  1.00  0.00    -0.269 C  
HETATM   20  O   UNL     1     -11.217   6.442  66.649  1.00  0.00    -0.707 OA 
HETATM   21  H   UNL     1     -11.154   5.598  67.080  1.00  0.00     0.000 HD 
BRANCH  19  22
HETATM   22  C   UNL     1     -10.304   7.421  68.648  1.00  0.00    -0.215 C  
HETATM   23  C   UNL     1     -10.700   6.139  69.346  1.00  0.00    -0.320 C  
HETATM   24  O   UNL     1     -10.172   5.015  68.814  1.00  0.00    -0.163 OA 
HETATM   25  O   UNL     1     -11.374   6.122  70.366  1.00  0.00    -0.352 OA 
ENDBRANCH  19  22
ENDBRANCH  18  19
ENDBRANCH  15  18
ENDBRANCH  14  15
ENDBRANCH   5  13
BRANCH   7  26
HETATM   26  C   UNL     1     -11.655  13.926  67.515  1.00  0.00    -0.392 A  
HETATM   27  C   UNL     1     -12.148  14.478  65.179  1.00  0.00    -0.363 A  
HETATM   28  C   UNL     1     -10.365  15.628  66.315  1.00  0.00    -0.316 A  
HETATM   29  C   UNL     1     -11.143  15.432  65.186  1.00  0.00    -0.394 A  
HETATM   30  C   UNL     1     -12.412  13.745  66.343  1.00  0.00    -0.404 A  
HETATM   31  C   UNL     1     -10.602  14.857  67.460  1.00  0.00    -0.266 A  
HETATM   32  F   UNL     1     -10.927  16.176  64.094  1.00  0.00    -0.321 F  
ENDBRANCH   7  26
ENDBRANCH   2   4
TORSDOF 7
ENDMDL
MODEL       20
REMARK 921   NORMALIZED FREE ENERGY PREDICTED BY IDOCK:   -6.92 KCAL/MOL
REMARK 922        TOTAL FREE ENERGY PREDICTED BY IDOCK:  -11.46 KCAL/MOL
REMARK 923 INTER-LIGAND FREE ENERGY PREDICTED BY IDOCK:  -10.72 KCAL/MOL
REMARK 924 INTRA-LIGAND FREE ENERGY PREDICTED BY IDOCK:   -0.74 KCAL/MOL
REMARK 927      BINDING AFFINITY PREDICTED BY RF-SCORE:    0.00 PKD
ROOT
HETATM    1  C   UNL     1     -10.297  10.522  65.908  1.00  0.00    -0.275 C  
HETATM    2  C   UNL     1      -9.502  10.741  67.199  1.00  0.00    -0.160 C  
HETATM    3  C   UNL     1      -8.292  11.665  67.060  1.00  0.00    -0.169 C  
ENDROOT
BRANCH   2   4
HETATM    4  N   UNL     1     -10.325  11.049  68.377  1.00  0.00    -0.175 NA 
HETATM    5  C   UNL     1     -10.816  12.286  68.782  1.00  0.00    -0.229 A  
HETATM    6  C   UNL     1     -11.820   8.467  71.265  1.00  0.00    -0.335 A  
HETATM    7  C   UNL     1     -11.665  12.071  69.881  1.00  0.00    -0.374 A  
HETATM    8  C   UNL     1     -10.922   7.917  70.366  1.00  0.00    -0.251 A  
HETATM    9  C   UNL     1     -10.708  10.068  69.283  1.00  0.00    -0.224 A  
HETATM   10  C   UNL     1     -11.586  10.662  70.197  1.00  0.00    -0.414 A  
HETATM   11  C   UNL     1     -12.168   9.821  71.179  1.00  0.00    -0.453 A  
HETATM   12  C   UNL     1     -10.365   8.703  69.358  1.00  0.00    -0.221 A  
BRANCH   5  13
HETATM   13  C   UNL     1     -10.469  13.455  68.047  1.00  0.00    -0.243 C  
HETATM   14  C   UNL     1     -11.243  13.937  67.061  1.00  0.00    -0.327 C  
BRANCH  14  15
HETATM   15  C   UNL     1     -10.941  15.198  66.300  1.00  0.00    -0.335 C  
HETATM   16  H   UNL     1      -9.818  15.636  64.804  1.00  0.00     0.000 HD 
HETATM   17  O   UNL     1     -10.008  14.839  65.285  1.00  0.00    -0.361 OA 
BRANCH  15  18
HETATM   18  C   UNL     1     -10.372  16.291  67.217  1.00  0.00    -0.285 C  
BRANCH  18  19
HETATM   19  C   UNL     1     -10.207  17.654  66.519  1.00  0.00    -0.355 C  
HETATM   20  O   UNL     1      -8.875  17.784  65.994  1.00  0.00    -0.494 OA 
HETATM   21  H   UNL     1      -8.774  18.625  65.564  1.00  0.00     0.000 HD 
BRANCH  19  22
HETATM   22  C   UNL     1     -10.475  18.833  67.453  1.00  0.00    -0.490 C  
HETATM   23  C   UNL     1     -10.125  20.191  66.886  1.00  0.00    -0.455 C  
HETATM   24  O   UNL     1     -10.379  20.341  65.568  1.00  0.00    -0.327 OA 
HETATM   25  O   UNL     1      -9.723  21.113  67.581  1.00  0.00    -0.274 OA 
ENDBRANCH  19  22
ENDBRANCH  18  19
ENDBRANCH  15  18
ENDBRANCH  14  15
ENDBRANCH   5  13
BRANCH   7  26
HETATM   26  C   UNL     1     -12.403  13.143  70.583  1.00  0.00    -0.405 A  
HETATM   27  C   UNL     1     -13.797  13.878  72.459  1.00  0.00    -0.620 A  
HETATM   28  C   UNL     1     -13.012  15.499  70.864  1.00  0.00    -0.526 A  
HETATM   29  C   UNL     1     -13.707  15.190  72.021  1.00  0.00    -0.471 A  
HETATM   30  C   UNL     1     -13.132  12.867  71.753  1.00  0.00    -0.458 A  
HETATM   31  C   UNL     1     -12.392  14.477  70.135  1.00  0.00    -0.398 A  
HETATM   32  F   UNL     1     -14.292  16.166  72.726  1.00  0.00    -0.620 F  
ENDBRANCH   7  26
ENDBRANCH   2   4
TORSDOF 7
ENDMDL
MODEL       21
REMARK 921   NORMALIZED FREE ENERGY PREDICTED BY IDOCK:   -6.89 KCAL/MOL
REMARK 922        TOTAL FREE ENERGY PREDICTED BY IDOCK:  -11.41 KCAL/MOL
REMARK 923 INTER-LIGAND FREE ENERGY PREDICTED BY IDOCK:   -9.67 KCAL/MOL
REMARK 924 INTRA-LIGAND FREE ENERGY PREDICTED BY IDOCK:   -1.74 KCAL/MOL
REMARK 927      BINDING AFFINITY PREDICTED BY RF-SCORE:    0.00 PKD
ROOT
HETATM    1  C   UNL     1     -11.844  12.192  65.074  1.00  0.00    -0.357 C  
HETATM    2  C   UNL     1     -11.008  12.122  66.356  1.00  0.00    -0.288 C  
HETATM    3  C   UNL     1      -9.527  11.809  66.141  1.00  0.00    -0.240 C  
ENDROOT
BRANCH   2   4
HETATM    4  N   UNL     1     -11.229  13.236  67.288  1.00  0.00    -0.282 NA 
HETATM    5  C   UNL     1     -11.769  13.190  68.570  1.00  0.00    -0.352 A  
HETATM    6  C   UNL     1     -10.339  17.263  66.804  1.00  0.00    -0.308 A  
HETATM    7  C   UNL     1     -11.653  14.472  69.131  1.00  0.00    -0.331 A  
HETATM    8  C   UNL     1     -10.183  16.467  65.681  1.00  0.00    -0.316 A  
HETATM    9  C   UNL     1     -10.916  14.548  66.954  1.00  0.00    -0.316 A  
HETATM   10  C   UNL     1     -11.116  15.330  68.097  1.00  0.00    -0.309 A  
HETATM   11  C   UNL     1     -10.784  16.706  68.009  1.00  0.00    -0.350 A  
HETATM   12  C   UNL     1     -10.456  15.102  65.743  1.00  0.00    -0.355 A  
BRANCH   5  13
HETATM   13  C   UNL     1     -12.248  11.952  69.087  1.00  0.00    -0.141 C  
HETATM   14  C   UNL     1     -11.950  11.532  70.327  1.00  0.00    -0.455 C  
BRANCH  14  15
HETATM   15  C   UNL     1     -12.478  10.261  70.931  1.00  0.00    -0.370 C  
HETATM   16  H   UNL     1     -13.612   9.844  72.424  1.00  0.00     0.000 HD 
HETATM   17  O   UNL     1     -13.279  10.648  72.044  1.00  0.00    -0.473 OA 
BRANCH  15  18
HETATM   18  C   UNL     1     -11.340   9.324  71.364  1.00  0.00    -0.434 C  
BRANCH  18  19
HETATM   19  C   UNL     1     -10.428   8.887  70.203  1.00  0.00    -0.214 C  
HETATM   20  O   UNL     1     -10.437   7.455  70.077  1.00  0.00    -0.215 OA 
HETATM   21  H   UNL     1      -9.874   7.186  69.361  1.00  0.00     0.000 HD 
BRANCH  19  22
HETATM   22  C   UNL     1      -8.983   9.349  70.379  1.00  0.00    -0.294 C  
HETATM   23  C   UNL     1      -8.019   8.849  69.327  1.00  0.00    -0.104 C  
HETATM   24  O   UNL     1      -8.525   8.779  68.077  1.00  0.00    -0.124 OA 
HETATM   25  O   UNL     1      -6.844   8.608  69.567  1.00  0.00    -0.043 OA 
ENDBRANCH  19  22
ENDBRANCH  18  19
ENDBRANCH  15  18
ENDBRANCH  14  15
ENDBRANCH   5  13
BRANCH   7  26
HETATM   26  C   UNL     1     -12.093  14.825  70.498  1.00  0.00    -0.378 A  
HETATM   27  C   UNL     1     -11.552  15.497  72.791  1.00  0.00    -0.472 A  
HETATM   28  C   UNL     1     -13.856  15.343  72.117  1.00  0.00    -0.636 A  
HETATM   29  C   UNL     1     -12.901  15.635  73.076  1.00  0.00    -0.490 A  
HETATM   30  C   UNL     1     -11.153  15.114  71.504  1.00  0.00    -0.218 A  
HETATM   31  C   UNL     1     -13.453  14.912  70.848  1.00  0.00    -0.356 A  
HETATM   32  F   UNL     1     -13.283  16.058  74.288  1.00  0.00    -0.449 F  
ENDBRANCH   7  26
ENDBRANCH   2   4
TORSDOF 7
ENDMDL
MODEL       22
REMARK 921   NORMALIZED FREE ENERGY PREDICTED BY IDOCK:   -6.86 KCAL/MOL
REMARK 922        TOTAL FREE ENERGY PREDICTED BY IDOCK:  -11.37 KCAL/MOL
REMARK 923 INTER-LIGAND FREE ENERGY PREDICTED BY IDOCK:   -9.11 KCAL/MOL
REMARK 924 INTRA-LIGAND FREE ENERGY PREDICTED BY IDOCK:   -2.26 KCAL/MOL
REMARK 927      BINDING AFFINITY PREDICTED BY RF-SCORE:    0.00 PKD
ROOT
HETATM    1  C   UNL     1     -13.113   8.603  72.073  1.00  0.00    -0.417 C  
HETATM    2  C   UNL     1     -11.682   9.107  71.858  1.00  0.00    -0.366 C  
HETATM    3  C   UNL     1     -10.592   8.232  72.479  1.00  0.00    -0.407 C  
ENDROOT
BRANCH   2   4
HETATM    4  N   UNL     1     -11.377   9.506  70.477  1.00  0.00    -0.268 NA 
HETATM    5  C   UNL     1     -11.289  10.793  69.955  1.00  0.00    -0.311 A  
HETATM    6  C   UNL     1     -10.497   7.113  67.200  1.00  0.00    -0.389 A  
HETATM    7  C   UNL     1     -10.837  10.687  68.629  1.00  0.00    -0.266 A  
HETATM    8  C   UNL     1     -10.921   6.450  68.340  1.00  0.00    -0.390 A  
HETATM    9  C   UNL     1     -11.149   8.572  69.474  1.00  0.00     0.052 A  
HETATM   10  C   UNL     1     -10.757   9.274  68.329  1.00  0.00    -0.195 A  
HETATM   11  C   UNL     1     -10.397   8.510  67.190  1.00  0.00    -0.377 A  
HETATM   12  C   UNL     1     -11.239   7.166  69.493  1.00  0.00    -0.121 A  
BRANCH   5  13
HETATM   13  C   UNL     1     -11.576  11.911  70.788  1.00  0.00     0.478 C  
HETATM   14  C   UNL     1     -12.834  12.274  71.090  1.00  0.00    -0.302 C  
BRANCH  14  15
HETATM   15  C   UNL     1     -13.180  13.412  72.009  1.00  0.00    -0.438 C  
HETATM   16  H   UNL     1     -14.621  13.775  73.226  1.00  0.00     0.000 HD 
HETATM   17  O   UNL     1     -14.403  13.055  72.646  1.00  0.00    -0.565 OA 
BRANCH  15  18
HETATM   18  C   UNL     1     -13.319  14.736  71.242  1.00  0.00    -0.465 C  
BRANCH  18  19
HETATM   19  C   UNL     1     -11.971  15.331  70.794  1.00  0.00    -0.339 C  
HETATM   20  O   UNL     1     -11.696  16.540  71.521  1.00  0.00    -0.658 OA 
HETATM   21  H   UNL     1     -10.865  16.906  71.245  1.00  0.00     0.000 HD 
BRANCH  19  22
HETATM   22  C   UNL     1     -11.929  15.646  69.300  1.00  0.00    -0.338 C  
HETATM   23  C   UNL     1     -10.702  16.400  68.838  1.00  0.00    -0.319 C  
HETATM   24  O   UNL     1      -9.553  16.050  69.455  1.00  0.00    -0.254 OA 
HETATM   25  O   UNL     1     -10.728  17.204  67.917  1.00  0.00    -0.368 OA 
ENDBRANCH  19  22
ENDBRANCH  18  19
ENDBRANCH  15  18
ENDBRANCH  14  15
ENDBRANCH   5  13
BRANCH   7  26
HETATM   26  C   UNL     1     -10.590  11.843  67.739  1.00  0.00    -0.233 A  
HETATM   27  C   UNL     1     -11.434  13.539  66.186  1.00  0.00    -0.348 A  
HETATM   28  C   UNL     1      -9.121  13.588  66.848  1.00  0.00    -0.246 A  
HETATM   29  C   UNL     1     -10.182  14.131  66.142  1.00  0.00    -0.304 A  
HETATM   30  C   UNL     1     -11.638  12.415  66.995  1.00  0.00    -0.434 A  
HETATM   31  C   UNL     1      -9.320  12.434  67.615  1.00  0.00    -0.188 A  
HETATM   32  F   UNL     1      -9.997  15.241  65.416  1.00  0.00    -0.333 F  
ENDBRANCH   7  26
ENDBRANCH   2   4
TORSDOF 7
ENDMDL
MODEL       23
REMARK 921   NORMALIZED FREE ENERGY PREDICTED BY IDOCK:   -6.83 KCAL/MOL
REMARK 922        TOTAL FREE ENERGY PREDICTED BY IDOCK:  -11.33 KCAL/MOL
REMARK 923 INTER-LIGAND FREE ENERGY PREDICTED BY IDOCK:   -9.92 KCAL/MOL
REMARK 924 INTRA-LIGAND FREE ENERGY PREDICTED BY IDOCK:   -1.42 KCAL/MOL
REMARK 927      BINDING AFFINITY PREDICTED BY RF-SCORE:    0.00 PKD
ROOT
HETATM    1  C   UNL     1     -13.842  15.302  71.113  1.00  0.00    -0.498 C  
HETATM    2  C   UNL     1     -12.371  15.062  70.759  1.00  0.00    -0.343 C  
HETATM    3  C   UNL     1     -11.386  15.309  71.902  1.00  0.00    -0.447 C  
ENDROOT
BRANCH   2   4
HETATM    4  N   UNL     1     -12.114  13.804  70.044  1.00  0.00    -0.333 NA 
HETATM    5  C   UNL     1     -11.599  13.634  68.763  1.00  0.00    -0.324 A  
HETATM    6  C   UNL     1     -12.665   9.900  71.347  1.00  0.00    -0.503 A  
HETATM    7  C   UNL     1     -11.399  12.258  68.561  1.00  0.00    -0.332 A  
HETATM    8  C   UNL     1     -13.163  10.893  72.175  1.00  0.00    -0.333 A  
HETATM    9  C   UNL     1     -12.399  12.566  70.608  1.00  0.00    -0.282 A  
HETATM   10  C   UNL     1     -11.914  11.587  69.734  1.00  0.00    -0.415 A  
HETATM   11  C   UNL     1     -12.030  10.235  70.145  1.00  0.00    -0.313 A  
HETATM   12  C   UNL     1     -13.027  12.235  71.825  1.00  0.00    -0.431 A  
BRANCH   5  13
HETATM   13  C   UNL     1     -11.319  14.776  67.960  1.00  0.00    -0.332 C  
HETATM   14  C   UNL     1     -10.195  14.882  67.232  1.00  0.00    -0.241 C  
BRANCH  14  15
HETATM   15  C   UNL     1      -9.887  16.044  66.330  1.00  0.00    -0.308 C  
HETATM   16  H   UNL     1     -10.263  16.464  64.494  1.00  0.00     0.000 HD 
HETATM   17  O   UNL     1     -10.458  15.729  65.063  1.00  0.00    -0.462 OA 
BRANCH  15  18
HETATM   18  C   UNL     1      -8.374  16.284  66.213  1.00  0.00    -0.343 C  
BRANCH  18  19
HETATM   19  C   UNL     1      -7.871  17.458  67.073  1.00  0.00    -0.210 C  
HETATM   20  O   UNL     1      -7.397  16.976  68.341  1.00  0.00    -0.193 OA 
HETATM   21  H   UNL     1      -7.087  17.701  68.871  1.00  0.00     0.000 HD 
BRANCH  19  22
HETATM   22  C   UNL     1      -8.948  18.511  67.327  1.00  0.00    -0.275 C  
HETATM   23  C   UNL     1      -8.794  19.286  68.617  1.00  0.00    -0.374 C  
HETATM   24  O   UNL     1      -7.520  19.571  68.961  1.00  0.00    -0.363 OA 
HETATM   25  O   UNL     1      -9.750  19.700  69.257  1.00  0.00    -0.386 OA 
ENDBRANCH  19  22
ENDBRANCH  18  19
ENDBRANCH  15  18
ENDBRANCH  14  15
ENDBRANCH   5  13
BRANCH   7  26
HETATM   26  C   UNL     1     -10.837  11.673  67.324  1.00  0.00    -0.302 A  
HETATM   27  C   UNL     1      -9.186  10.240  66.217  1.00  0.00    -0.191 A  
HETATM   28  C   UNL     1     -10.935  11.254  64.913  1.00  0.00    -0.243 A  
HETATM   29  C   UNL     1      -9.825  10.430  65.003  1.00  0.00    -0.319 A  
HETATM   30  C   UNL     1      -9.703  10.843  67.372  1.00  0.00    -0.190 A  
HETATM   31  C   UNL     1     -11.417  11.894  66.061  1.00  0.00    -0.344 A  
HETATM   32  F   UNL     1      -9.369   9.809  63.908  1.00  0.00    -0.286 F  
ENDBRANCH   7  26
ENDBRANCH   2   4
TORSDOF 7
ENDMDL
MODEL       24
REMARK 921   NORMALIZED FREE ENERGY PREDICTED BY IDOCK:   -6.82 KCAL/MOL
REMARK 922        TOTAL FREE ENERGY PREDICTED BY IDOCK:  -11.31 KCAL/MOL
REMARK 923 INTER-LIGAND FREE ENERGY PREDICTED BY IDOCK:   -9.42 KCAL/MOL
REMARK 924 INTRA-LIGAND FREE ENERGY PREDICTED BY IDOCK:   -1.89 KCAL/MOL
REMARK 927      BINDING AFFINITY PREDICTED BY RF-SCORE:    0.00 PKD
ROOT
HETATM    1  C   UNL     1     -13.650  15.328  71.089  1.00  0.00    -0.540 C  
HETATM    2  C   UNL     1     -12.182  15.709  70.870  1.00  0.00    -0.419 C  
HETATM    3  C   UNL     1     -11.223  15.226  71.959  1.00  0.00    -0.323 C  
ENDROOT
BRANCH   2   4
HETATM    4  N   UNL     1     -11.682  15.452  69.513  1.00  0.00    -0.325 NA 
HETATM    5  C   UNL     1     -11.790  14.284  68.764  1.00  0.00    -0.341 A  
HETATM    6  C   UNL     1      -9.679  18.021  66.938  1.00  0.00    -0.314 A  
HETATM    7  C   UNL     1     -11.291  14.552  67.478  1.00  0.00    -0.355 A  
HETATM    8  C   UNL     1      -9.871  18.484  68.229  1.00  0.00    -0.394 A  
HETATM    9  C   UNL     1     -10.982  16.412  68.792  1.00  0.00    -0.344 A  
HETATM   10  C   UNL     1     -10.775  15.903  67.506  1.00  0.00    -0.318 A  
HETATM   11  C   UNL     1     -10.138  16.752  66.566  1.00  0.00    -0.322 A  
HETATM   12  C   UNL     1     -10.534  17.695  69.168  1.00  0.00    -0.128 A  
BRANCH   5  13
HETATM   13  C   UNL     1     -12.393  13.131  69.342  1.00  0.00    -0.053 C  
HETATM   14  C   UNL     1     -11.668  12.095  69.794  1.00  0.00    -0.381 C  
BRANCH  14  15
HETATM   15  C   UNL     1     -12.262  10.885  70.460  1.00  0.00    -0.367 C  
HETATM   16  H   UNL     1     -13.486  10.609  71.915  1.00  0.00     0.000 HD 
HETATM   17  O   UNL     1     -13.111  11.374  71.494  1.00  0.00    -0.416 OA 
BRANCH  15  18
HETATM   18  C   UNL     1     -11.174   9.959  71.026  1.00  0.00    -0.435 C  
BRANCH  18  19
HETATM   19  C   UNL     1     -10.685   8.901  70.020  1.00  0.00    -0.228 C  
HETATM   20  O   UNL     1     -10.228   7.729  70.716  1.00  0.00    -0.196 OA 
HETATM   21  H   UNL     1      -9.926   7.077  70.096  1.00  0.00     0.000 HD 
BRANCH  19  22
HETATM   22  C   UNL     1      -9.550   9.407  69.132  1.00  0.00    -0.163 C  
HETATM   23  C   UNL     1      -9.804   9.300  67.645  1.00  0.00    -0.176 C  
HETATM   24  O   UNL     1     -11.076   9.544  67.266  1.00  0.00    -0.115 OA 
HETATM   25  O   UNL     1      -8.911   9.096  66.835  1.00  0.00    -0.121 OA 
ENDBRANCH  19  22
ENDBRANCH  18  19
ENDBRANCH  15  18
ENDBRANCH  14  15
ENDBRANCH   5  13
BRANCH   7  26
HETATM   26  C   UNL     1     -11.258  13.565  66.377  1.00  0.00    -0.322 A  
HETATM   27  C   UNL     1     -12.333  12.504  64.448  1.00  0.00    -0.537 A  
HETATM   28  C   UNL     1     -10.069  11.915  65.011  1.00  0.00    -0.297 A  
HETATM   29  C   UNL     1     -11.174  11.791  64.185  1.00  0.00    -0.364 A  
HETATM   30  C   UNL     1     -12.365  13.399  65.525  1.00  0.00    -0.528 A  
HETATM   31  C   UNL     1     -10.124  12.773  66.116  1.00  0.00    -0.274 A  
HETATM   32  F   UNL     1     -11.121  10.979  63.122  1.00  0.00    -0.326 F  
ENDBRANCH   7  26
ENDBRANCH   2   4
TORSDOF 7
ENDMDL
MODEL       25
REMARK 921   NORMALIZED FREE ENERGY PREDICTED BY IDOCK:   -6.81 KCAL/MOL
REMARK 922        TOTAL FREE ENERGY PREDICTED BY IDOCK:  -11.30 KCAL/MOL
REMARK 923 INTER-LIGAND FREE ENERGY PREDICTED BY IDOCK:  -10.38 KCAL/MOL
REMARK 924 INTRA-LIGAND FREE ENERGY PREDICTED BY IDOCK:   -0.92 KCAL/MOL
REMARK 927      BINDING AFFINITY PREDICTED BY RF-SCORE:    0.00 PKD
ROOT
HETATM    1  C   UNL     1     -14.335  15.111  71.599  1.00  0.00    -0.685 C  
HETATM    2  C   UNL     1     -12.850  15.102  71.223  1.00  0.00    -0.391 C  
HETATM    3  C   UNL     1     -11.893  15.402  72.378  1.00  0.00    -0.558 C  
ENDROOT
BRANCH   2   4
HETATM    4  N   UNL     1     -12.431  13.945  70.419  1.00  0.00    -0.344 NA 
HETATM    5  C   UNL     1     -11.815  13.944  69.172  1.00  0.00    -0.358 A  
HETATM    6  C   UNL     1     -12.718   9.901  71.315  1.00  0.00    -0.482 A  
HETATM    7  C   UNL     1     -11.477  12.616  68.862  1.00  0.00    -0.354 A  
HETATM    8  C   UNL     1     -13.361  10.763  72.188  1.00  0.00    -0.314 A  
HETATM    9  C   UNL     1     -12.642  12.639  70.844  1.00  0.00    -0.249 A  
HETATM   10  C   UNL     1     -12.012  11.793  69.925  1.00  0.00    -0.405 A  
HETATM   11  C   UNL     1     -12.033  10.402  70.201  1.00  0.00    -0.357 A  
HETATM   12  C   UNL     1     -13.322  12.140  71.973  1.00  0.00    -0.470 A  
BRANCH   5  13
HETATM   13  C   UNL     1     -11.583  15.178  68.500  1.00  0.00    -0.354 C  
HETATM   14  C   UNL     1     -10.458  15.890  68.679  1.00  0.00    -0.240 C  
BRANCH  14  15
HETATM   15  C   UNL     1     -10.150  17.167  67.949  1.00  0.00    -0.308 C  
HETATM   16  H   UNL     1      -9.866  17.636  66.108  1.00  0.00     0.000 HD 
HETATM   17  O   UNL     1     -10.060  16.828  66.569  1.00  0.00    -0.289 OA 
BRANCH  15  18
HETATM   18  C   UNL     1      -8.845  17.805  68.450  1.00  0.00    -0.285 C  
BRANCH  18  19
HETATM   19  C   UNL     1      -8.951  19.325  68.674  1.00  0.00    -0.374 C  
HETATM   20  O   UNL     1     -10.212  19.650  69.282  1.00  0.00    -0.629 OA 
HETATM   21  H   UNL     1     -10.277  20.587  69.420  1.00  0.00     0.000 HD 
BRANCH  19  22
HETATM   22  C   UNL     1      -8.818  20.125  67.379  1.00  0.00    -0.440 C  
HETATM   23  C   UNL     1     -10.025  20.076  66.470  1.00  0.00    -0.479 C  
HETATM   24  O   UNL     1     -11.217  20.071  67.104  1.00  0.00    -0.087 OA 
HETATM   25  O   UNL     1      -9.937  20.126  65.251  1.00  0.00    -0.174 OA 
ENDBRANCH  19  22
ENDBRANCH  18  19
ENDBRANCH  15  18
ENDBRANCH  14  15
ENDBRANCH   5  13
BRANCH   7  26
HETATM   26  C   UNL     1     -10.780  12.202  67.625  1.00  0.00    -0.252 A  
HETATM   27  C   UNL     1      -8.741  11.458  66.489  1.00  0.00    -0.181 A  
HETATM   28  C   UNL     1     -10.803  11.580  65.256  1.00  0.00    -0.319 A  
HETATM   29  C   UNL     1      -9.453  11.277  65.314  1.00  0.00    -0.221 A  
HETATM   30  C   UNL     1      -9.407  11.899  67.640  1.00  0.00    -0.183 A  
HETATM   31  C   UNL     1     -11.453  12.068  66.396  1.00  0.00    -0.417 A  
HETATM   32  F   UNL     1      -8.832  10.800  64.228  1.00  0.00    -0.178 F  
ENDBRANCH   7  26
ENDBRANCH   2   4
TORSDOF 7
ENDMDL
MODEL       26
REMARK 921   NORMALIZED FREE ENERGY PREDICTED BY IDOCK:   -6.76 KCAL/MOL
REMARK 922        TOTAL FREE ENERGY PREDICTED BY IDOCK:  -11.22 KCAL/MOL
REMARK 923 INTER-LIGAND FREE ENERGY PREDICTED BY IDOCK:   -9.73 KCAL/MOL
REMARK 924 INTRA-LIGAND FREE ENERGY PREDICTED BY IDOCK:   -1.49 KCAL/MOL
REMARK 927      BINDING AFFINITY PREDICTED BY RF-SCORE:    0.00 PKD
ROOT
HETATM    1  C   UNL     1     -11.798   9.270  71.781  1.00  0.00    -0.454 C  
HETATM    2  C   UNL     1     -10.416   9.366  71.128  1.00  0.00    -0.322 C  
HETATM    3  C   UNL     1      -9.291   8.676  71.901  1.00  0.00    -0.357 C  
ENDROOT
BRANCH   2   4
HETATM    4  N   UNL     1     -10.397   9.057  69.692  1.00  0.00    -0.206 NA 
HETATM    5  C   UNL     1     -10.306   9.944  68.623  1.00  0.00    -0.195 A  
HETATM    6  C   UNL     1     -10.526   5.356  67.814  1.00  0.00    -0.208 A  
HETATM    7  C   UNL     1     -10.182   9.187  67.447  1.00  0.00    -0.310 A  
HETATM    8  C   UNL     1     -10.740   5.350  69.183  1.00  0.00    -0.168 A  
HETATM    9  C   UNL     1     -10.496   7.755  69.218  1.00  0.00    -0.217 A  
HETATM   10  C   UNL     1     -10.310   7.798  67.832  1.00  0.00    -0.276 A  
HETATM   11  C   UNL     1     -10.295   6.561  67.139  1.00  0.00    -0.311 A  
HETATM   12  C   UNL     1     -10.715   6.543  69.903  1.00  0.00    -0.310 A  
BRANCH   5  13
HETATM   13  C   UNL     1     -10.286  11.346  68.873  1.00  0.00    -0.203 C  
HETATM   14  C   UNL     1     -11.413  12.066  68.998  1.00  0.00    -0.357 C  
BRANCH  14  15
HETATM   15  C   UNL     1     -11.437  13.536  69.316  1.00  0.00    -0.291 C  
HETATM   16  H   UNL     1     -12.203  14.602  70.718  1.00  0.00     0.000 HD 
HETATM   17  O   UNL     1     -12.189  13.673  70.518  1.00  0.00    -0.339 OA 
BRANCH  15  18
HETATM   18  C   UNL     1     -12.061  14.352  68.174  1.00  0.00    -0.258 C  
BRANCH  18  19
HETATM   19  C   UNL     1     -11.029  15.146  67.351  1.00  0.00    -0.314 C  
HETATM   20  O   UNL     1     -10.920  16.487  67.855  1.00  0.00    -0.343 OA 
HETATM   21  H   UNL     1     -10.283  16.976  67.347  1.00  0.00     0.000 HD 
BRANCH  19  22
HETATM   22  C   UNL     1     -11.381  15.214  65.866  1.00  0.00    -0.225 C  
HETATM   23  C   UNL     1     -10.824  16.412  65.131  1.00  0.00    -0.275 C  
HETATM   24  O   UNL     1      -9.587  16.793  65.518  1.00  0.00    -0.515 OA 
HETATM   25  O   UNL     1     -11.406  16.944  64.197  1.00  0.00    -1.208 OA 
ENDBRANCH  19  22
ENDBRANCH  18  19
ENDBRANCH  15  18
ENDBRANCH  14  15
ENDBRANCH   5  13
BRANCH   7  26
HETATM   26  C   UNL     1     -10.034   9.768  66.095  1.00  0.00    -0.338 A  
HETATM   27  C   UNL     1     -10.628  11.483  64.449  1.00  0.00    -0.392 A  
HETATM   28  C   UNL     1      -8.923   9.872  63.914  1.00  0.00    -0.280 A  
HETATM   29  C   UNL     1      -9.676  10.984  63.575  1.00  0.00    -0.337 A  
HETATM   30  C   UNL     1     -10.790  10.889  65.707  1.00  0.00    -0.120 A  
HETATM   31  C   UNL     1      -9.125   9.252  65.153  1.00  0.00    -0.263 A  
HETATM   32  F   UNL     1      -9.477  11.586  62.396  1.00  0.00    -0.341 F  
ENDBRANCH   7  26
ENDBRANCH   2   4
TORSDOF 7
ENDMDL
MODEL       27
REMARK 921   NORMALIZED FREE ENERGY PREDICTED BY IDOCK:   -6.75 KCAL/MOL
REMARK 922        TOTAL FREE ENERGY PREDICTED BY IDOCK:  -11.21 KCAL/MOL
REMARK 923 INTER-LIGAND FREE ENERGY PREDICTED BY IDOCK:   -9.80 KCAL/MOL
REMARK 924 INTRA-LIGAND FREE ENERGY PREDICTED BY IDOCK:   -1.41 KCAL/MOL
REMARK 927      BINDING AFFINITY PREDICTED BY RF-SCORE:    0.00 PKD
ROOT
HETATM    1  C   UNL     1      -8.315   9.754  66.573  1.00  0.00    -0.124 C  
HETATM    2  C   UNL     1      -9.840   9.757  66.422  1.00  0.00    -0.235 C  
HETATM    3  C   UNL     1     -10.538   8.495  66.932  1.00  0.00    -0.279 C  
ENDROOT
BRANCH   2   4
HETATM    4  N   UNL     1     -10.495  10.994  66.869  1.00  0.00    -0.235 NA 
HETATM    5  C   UNL     1     -10.607  11.486  68.166  1.00  0.00    -0.196 A  
HETATM    6  C   UNL     1     -12.390  13.911  64.603  1.00  0.00    -0.421 A  
HETATM    7  C   UNL     1     -11.187  12.763  68.090  1.00  0.00    -0.310 A  
HETATM    8  C   UNL     1     -12.020  12.761  63.925  1.00  0.00    -0.554 A  
HETATM    9  C   UNL     1     -11.132  11.851  65.981  1.00  0.00    -0.322 A  
HETATM   10  C   UNL     1     -11.523  12.985  66.701  1.00  0.00    -0.382 A  
HETATM   11  C   UNL     1     -12.133  14.038  65.973  1.00  0.00    -0.461 A  
HETATM   12  C   UNL     1     -11.377  11.724  64.599  1.00  0.00    -0.320 A  
BRANCH   5  13
HETATM   13  C   UNL     1     -10.103  10.720  69.255  1.00  0.00    -0.200 C  
HETATM   14  C   UNL     1     -10.912  10.062  70.103  1.00  0.00    -0.368 C  
BRANCH  14  15
HETATM   15  C   UNL     1     -10.419   9.199  71.231  1.00  0.00    -0.328 C  
HETATM   16  H   UNL     1      -8.693   8.809  71.978  1.00  0.00     0.000 HD 
HETATM   17  O   UNL     1      -9.004   9.355  71.265  1.00  0.00    -0.282 OA 
BRANCH  15  18
HETATM   18  C   UNL     1     -10.811   7.727  71.030  1.00  0.00    -0.253 C  
BRANCH  18  19
HETATM   19  C   UNL     1     -12.064   7.311  71.823  1.00  0.00    -0.319 C  
HETATM   20  O   UNL     1     -12.225   8.157  72.974  1.00  0.00    -0.655 OA 
HETATM   21  H   UNL     1     -12.997   7.900  73.464  1.00  0.00     0.000 HD 
BRANCH  19  22
HETATM   22  C   UNL     1     -12.011   5.859  72.294  1.00  0.00    -0.211 C  
HETATM   23  C   UNL     1     -10.840   5.517  73.188  1.00  0.00    -0.285 C  
HETATM   24  O   UNL     1     -10.482   6.489  74.054  1.00  0.00    -0.331 OA 
HETATM   25  O   UNL     1     -10.310   4.416  73.190  1.00  0.00    -0.152 OA 
ENDBRANCH  19  22
ENDBRANCH  18  19
ENDBRANCH  15  18
ENDBRANCH  14  15
ENDBRANCH   5  13
BRANCH   7  26
HETATM   26  C   UNL     1     -11.450  13.628  69.262  1.00  0.00    -0.344 A  
HETATM   27  C   UNL     1     -11.033  15.698  70.504  1.00  0.00    -0.371 A  
HETATM   28  C   UNL     1     -12.715  14.167  71.289  1.00  0.00    -0.434 A  
HETATM   29  C   UNL     1     -12.027  15.363  71.409  1.00  0.00    -0.378 A  
HETATM   30  C   UNL     1     -10.762  14.843  69.427  1.00  0.00    -0.264 A  
HETATM   31  C   UNL     1     -12.406  13.293  70.239  1.00  0.00    -0.334 A  
HETATM   32  F   UNL     1     -12.329  16.205  72.405  1.00  0.00    -0.455 F  
ENDBRANCH   7  26
ENDBRANCH   2   4
TORSDOF 7
ENDMDL
MODEL       28
REMARK 921   NORMALIZED FREE ENERGY PREDICTED BY IDOCK:   -6.73 KCAL/MOL
REMARK 922        TOTAL FREE ENERGY PREDICTED BY IDOCK:  -11.19 KCAL/MOL
REMARK 923 INTER-LIGAND FREE ENERGY PREDICTED BY IDOCK:   -9.99 KCAL/MOL
REMARK 924 INTRA-LIGAND FREE ENERGY PREDICTED BY IDOCK:   -1.20 KCAL/MOL
REMARK 927      BINDING AFFINITY PREDICTED BY RF-SCORE:    0.00 PKD
ROOT
HETATM    1  C   UNL     1     -12.737  13.783  64.711  1.00  0.00    -0.259 C  
HETATM    2  C   UNL     1     -11.221  13.563  64.763  1.00  0.00    -0.352 C  
HETATM    3  C   UNL     1     -10.396  14.830  64.988  1.00  0.00    -0.420 C  
ENDROOT
BRANCH   2   4
HETATM    4  N   UNL     1     -10.797  12.444  65.616  1.00  0.00    -0.269 NA 
HETATM    5  C   UNL     1     -10.960  12.302  66.990  1.00  0.00    -0.268 A  
HETATM    6  C   UNL     1      -8.897   8.913  64.537  1.00  0.00    -0.069 A  
HETATM    7  C   UNL     1     -10.526  11.013  67.342  1.00  0.00    -0.255 A  
HETATM    8  C   UNL     1      -9.014   9.868  63.541  1.00  0.00    -0.277 A  
HETATM    9  C   UNL     1     -10.123  11.343  65.103  1.00  0.00    -0.271 A  
HETATM   10  C   UNL     1      -9.990  10.413  66.140  1.00  0.00    -0.290 A  
HETATM   11  C   UNL     1      -9.392   9.167  65.822  1.00  0.00    -0.309 A  
HETATM   12  C   UNL     1      -9.638  11.087  63.805  1.00  0.00    -0.321 A  
BRANCH   5  13
HETATM   13  C   UNL     1     -11.548  13.359  67.742  1.00  0.00    -0.375 C  
HETATM   14  C   UNL     1     -10.867  14.470  68.068  1.00  0.00    -0.249 C  
BRANCH  14  15
HETATM   15  C   UNL     1     -11.466  15.631  68.812  1.00  0.00    -0.376 C  
HETATM   16  H   UNL     1     -11.472  17.536  68.562  1.00  0.00     0.000 HD 
HETATM   17  O   UNL     1     -11.093  16.803  68.091  1.00  0.00    -0.363 OA 
BRANCH  15  18
HETATM   18  C   UNL     1     -10.969  15.690  70.264  1.00  0.00    -0.363 C  
BRANCH  18  19
HETATM   19  C   UNL     1     -12.064  15.379  71.301  1.00  0.00    -0.366 C  
HETATM   20  O   UNL     1     -11.489  15.282  72.615  1.00  0.00    -0.448 OA 
HETATM   21  H   UNL     1     -12.164  15.090  73.254  1.00  0.00     0.000 HD 
BRANCH  19  22
HETATM   22  C   UNL     1     -12.809  14.079  71.003  1.00  0.00    -0.410 C  
HETATM   23  C   UNL     1     -13.507  13.454  72.191  1.00  0.00    -0.552 C  
HETATM   24  O   UNL     1     -14.063  14.334  73.051  1.00  0.00    -0.396 OA 
HETATM   25  O   UNL     1     -13.636  12.246  72.321  1.00  0.00    -0.472 OA 
ENDBRANCH  19  22
ENDBRANCH  18  19
ENDBRANCH  15  18
ENDBRANCH  14  15
ENDBRANCH   5  13
BRANCH   7  26
HETATM   26  C   UNL     1     -10.563  10.469  68.717  1.00  0.00    -0.233 A  
HETATM   27  C   UNL     1     -11.822   9.926  70.747  1.00  0.00    -0.415 A  
HETATM   28  C   UNL     1      -9.504   9.300  70.591  1.00  0.00    -0.333 A  
HETATM   29  C   UNL     1     -10.701   9.316  71.288  1.00  0.00    -0.352 A  
HETATM   30  C   UNL     1     -11.756  10.480  69.463  1.00  0.00    -0.313 A  
HETATM   31  C   UNL     1      -9.431   9.900  69.328  1.00  0.00    -0.218 A  
HETATM   32  F   UNL     1     -10.777   8.733  72.491  1.00  0.00    -0.398 F  
ENDBRANCH   7  26
ENDBRANCH   2   4
TORSDOF 7
ENDMDL
MODEL       29
REMARK 921   NORMALIZED FREE ENERGY PREDICTED BY IDOCK:   -6.68 KCAL/MOL
REMARK 922        TOTAL FREE ENERGY PREDICTED BY IDOCK:  -11.12 KCAL/MOL
REMARK 923 INTER-LIGAND FREE ENERGY PREDICTED BY IDOCK:   -9.48 KCAL/MOL
REMARK 924 INTRA-LIGAND FREE ENERGY PREDICTED BY IDOCK:   -1.64 KCAL/MOL
REMARK 927      BINDING AFFINITY PREDICTED BY RF-SCORE:    0.00 PKD
ROOT
HETATM    1  C   UNL     1     -11.201   9.410  71.516  1.00  0.00    -0.457 C  
HETATM    2  C   UNL     1     -12.414   9.882  70.707  1.00  0.00    -0.256 C  
HETATM    3  C   UNL     1     -13.767   9.638  71.377  1.00  0.00    -0.273 C  
ENDROOT
BRANCH   2   4
HETATM    4  N   UNL     1     -12.286  11.235  70.150  1.00  0.00    -0.328 NA 
HETATM    5  C   UNL     1     -11.811  11.606  68.896  1.00  0.00    -0.329 A  
HETATM    6  C   UNL     1     -13.307  14.874  71.869  1.00  0.00    -0.458 A  
HETATM    7  C   UNL     1     -12.006  12.990  68.756  1.00  0.00    -0.302 A  
HETATM    8  C   UNL     1     -13.373  13.770  72.702  1.00  0.00    -0.618 A  
HETATM    9  C   UNL     1     -12.632  12.366  70.878  1.00  0.00    -0.246 A  
HETATM   10  C   UNL     1     -12.522  13.466  70.021  1.00  0.00    -0.202 A  
HETATM   11  C   UNL     1     -12.903  14.732  70.535  1.00  0.00    -0.374 A  
HETATM   12  C   UNL     1     -13.051  12.503  72.217  1.00  0.00    -0.335 A  
BRANCH   5  13
HETATM   13  C   UNL     1     -11.312  10.610  68.009  1.00  0.00    -0.350 C  
HETATM   14  C   UNL     1     -10.058  10.135  68.100  1.00  0.00    -0.178 C  
BRANCH  14  15
HETATM   15  C   UNL     1      -9.510   9.045  67.221  1.00  0.00    -0.149 C  
HETATM   16  H   UNL     1      -8.779   7.297  67.534  1.00  0.00     0.000 HD 
HETATM   17  O   UNL     1      -9.125   7.985  68.091  1.00  0.00    -0.135 OA 
BRANCH  15  18
HETATM   18  C   UNL     1      -8.320   9.538  66.384  1.00  0.00    -0.120 C  
BRANCH  18  19
HETATM   19  C   UNL     1      -8.669   9.783  64.904  1.00  0.00    -0.183 C  
HETATM   20  O   UNL     1      -7.645  10.574  64.278  1.00  0.00    -0.327 OA 
HETATM   21  H   UNL     1      -7.861  10.725  63.365  1.00  0.00     0.000 HD 
BRANCH  19  22
HETATM   22  C   UNL     1     -10.009  10.493  64.721  1.00  0.00    -0.412 C  
HETATM   23  C   UNL     1     -10.170  11.226  63.408  1.00  0.00    -0.403 C  
HETATM   24  O   UNL     1      -9.615  10.612  62.341  1.00  0.00    -0.235 OA 
HETATM   25  O   UNL     1     -10.827  12.251  63.300  1.00  0.00    -0.435 OA 
ENDBRANCH  19  22
ENDBRANCH  18  19
ENDBRANCH  15  18
ENDBRANCH  14  15
ENDBRANCH   5  13
BRANCH   7  26
HETATM   26  C   UNL     1     -11.652  13.762  67.545  1.00  0.00    -0.387 A  
HETATM   27  C   UNL     1     -12.203  14.529  65.285  1.00  0.00    -0.321 A  
HETATM   28  C   UNL     1     -10.208  15.343  66.356  1.00  0.00    -0.296 A  
HETATM   29  C   UNL     1     -11.074  15.333  65.275  1.00  0.00    -0.376 A  
HETATM   30  C   UNL     1     -12.497  13.766  66.421  1.00  0.00    -0.404 A  
HETATM   31  C   UNL     1     -10.481  14.540  67.469  1.00  0.00    -0.253 A  
HETATM   32  F   UNL     1     -10.820  16.109  64.213  1.00  0.00    -0.336 F  
ENDBRANCH   7  26
ENDBRANCH   2   4
TORSDOF 7
ENDMDL
MODEL       30
REMARK 921   NORMALIZED FREE ENERGY PREDICTED BY IDOCK:   -6.65 KCAL/MOL
REMARK 922        TOTAL FREE ENERGY PREDICTED BY IDOCK:  -11.08 KCAL/MOL
REMARK 923 INTER-LIGAND FREE ENERGY PREDICTED BY IDOCK:   -9.76 KCAL/MOL
REMARK 924 INTRA-LIGAND FREE ENERGY PREDICTED BY IDOCK:   -1.32 KCAL/MOL
REMARK 927      BINDING AFFINITY PREDICTED BY RF-SCORE:    0.00 PKD
ROOT
HETATM    1  C   UNL     1     -11.453  14.833  67.258  1.00  0.00    -0.378 C  
HETATM    2  C   UNL     1     -10.572  14.166  68.320  1.00  0.00    -0.251 C  
HETATM    3  C   UNL     1      -9.542  15.089  68.972  1.00  0.00    -0.225 C  
ENDROOT
BRANCH   2   4
HETATM    4  N   UNL     1     -11.306  13.348  69.294  1.00  0.00    -0.267 NA 
HETATM    5  C   UNL     1     -11.301  11.963  69.431  1.00  0.00    -0.261 A  
HETATM    6  C   UNL     1     -13.836  14.570  72.352  1.00  0.00    -0.587 A  
HETATM    7  C   UNL     1     -12.038  11.643  70.583  1.00  0.00    -0.432 A  
HETATM    8  C   UNL     1     -13.424  15.558  71.473  1.00  0.00    -0.582 A  
HETATM    9  C   UNL     1     -12.159  13.912  70.235  1.00  0.00    -0.353 A  
HETATM   10  C   UNL     1     -12.585  12.885  71.084  1.00  0.00    -0.373 A  
HETATM   11  C   UNL     1     -13.413  13.247  72.177  1.00  0.00    -0.655 A  
HETATM   12  C   UNL     1     -12.572  15.248  70.414  1.00  0.00    -0.421 A  
BRANCH   5  13
HETATM   13  C   UNL     1     -10.563  11.169  68.508  1.00  0.00    -0.219 C  
HETATM   14  C   UNL     1     -11.145  10.559  67.462  1.00  0.00    -0.358 C  
BRANCH  14  15
HETATM   15  C   UNL     1     -10.395   9.758  66.435  1.00  0.00    -0.177 C  
HETATM   16  H   UNL     1      -9.719   7.961  66.354  1.00  0.00     0.000 HD 
HETATM   17  O   UNL     1     -10.193   8.467  67.004  1.00  0.00    -0.246 OA 
BRANCH  15  18
HETATM   18  C   UNL     1      -9.057  10.418  66.069  1.00  0.00    -0.187 C  
BRANCH  18  19
HETATM   19  C   UNL     1      -8.693  10.282  64.579  1.00  0.00    -0.192 C  
HETATM   20  O   UNL     1      -9.874  10.025  63.801  1.00  0.00    -0.462 OA 
HETATM   21  H   UNL     1      -9.648   9.941  62.882  1.00  0.00     0.000 HD 
BRANCH  19  22
HETATM   22  C   UNL     1      -7.687   9.163  64.315  1.00  0.00    -0.120 C  
HETATM   23  C   UNL     1      -6.924   9.282  63.014  1.00  0.00    -0.092 C  
HETATM   24  O   UNL     1      -6.593  10.543  62.661  1.00  0.00    -0.142 OA 
HETATM   25  O   UNL     1      -6.556   8.308  62.373  1.00  0.00    -0.087 OA 
ENDBRANCH  19  22
ENDBRANCH  18  19
ENDBRANCH  15  18
ENDBRANCH  14  15
ENDBRANCH   5  13
BRANCH   7  26
HETATM   26  C   UNL     1     -12.243  10.266  71.083  1.00  0.00    -0.500 A  
HETATM   27  C   UNL     1     -13.752   8.474  71.797  1.00  0.00    -0.444 A  
HETATM   28  C   UNL     1     -11.390   8.041  71.650  1.00  0.00    -0.306 A  
HETATM   29  C   UNL     1     -12.679   7.604  71.907  1.00  0.00    -0.293 A  
HETATM   30  C   UNL     1     -13.534   9.789  71.369  1.00  0.00    -0.397 A  
HETATM   31  C   UNL     1     -11.173   9.372  71.271  1.00  0.00    -0.437 A  
HETATM   32  F   UNL     1     -12.890   6.329  72.258  1.00  0.00    -0.313 F  
ENDBRANCH   7  26
ENDBRANCH   2   4
TORSDOF 7
ENDMDL
MODEL       31
REMARK 921   NORMALIZED FREE ENERGY PREDICTED BY IDOCK:   -6.65 KCAL/MOL
REMARK 922        TOTAL FREE ENERGY PREDICTED BY IDOCK:  -11.08 KCAL/MOL
REMARK 923 INTER-LIGAND FREE ENERGY PREDICTED BY IDOCK:   -9.69 KCAL/MOL
REMARK 924 INTRA-LIGAND FREE ENERGY PREDICTED BY IDOCK:   -1.39 KCAL/MOL
REMARK 927      BINDING AFFINITY PREDICTED BY RF-SCORE:    0.00 PKD
ROOT
HETATM    1  C   UNL     1     -10.643  14.626  65.780  1.00  0.00    -0.330 C  
HETATM    2  C   UNL     1     -11.611  13.443  65.672  1.00  0.00    -0.327 C  
HETATM    3  C   UNL     1     -12.535  13.478  64.453  1.00  0.00    -0.324 C  
ENDROOT
BRANCH   2   4
HETATM    4  N   UNL     1     -10.993  12.128  65.884  1.00  0.00    -0.281 NA 
HETATM    5  C   UNL     1     -11.027  11.337  67.029  1.00  0.00    -0.294 A  
HETATM    6  C   UNL     1      -8.787   9.820  63.229  1.00  0.00    -0.260 A  
HETATM    7  C   UNL     1     -10.419  10.109  66.719  1.00  0.00    -0.270 A  
HETATM    8  C   UNL     1      -9.095  11.103  62.808  1.00  0.00    -0.353 A  
HETATM    9  C   UNL     1     -10.238  11.502  64.900  1.00  0.00    -0.275 A  
HETATM   10  C   UNL     1      -9.915  10.224  65.368  1.00  0.00    -0.371 A  
HETATM   11  C   UNL     1      -9.204   9.370  64.488  1.00  0.00    -0.155 A  
HETATM   12  C   UNL     1      -9.832  11.955  63.628  1.00  0.00    -0.339 A  
BRANCH   5  13
HETATM   13  C   UNL     1     -11.671  11.824  68.201  1.00  0.00    -0.377 C  
HETATM   14  C   UNL     1     -11.045  12.619  69.085  1.00  0.00    -0.252 C  
BRANCH  14  15
HETATM   15  C   UNL     1     -11.705  13.199  70.305  1.00  0.00    -0.127 C  
HETATM   16  H   UNL     1     -12.942  12.534  71.615  1.00  0.00     0.000 HD 
HETATM   17  O   UNL     1     -12.525  12.167  70.844  1.00  0.00    -0.368 OA 
BRANCH  15  18
HETATM   18  C   UNL     1     -12.534  14.446  69.960  1.00  0.00    -0.353 C  
BRANCH  18  19
HETATM   19  C   UNL     1     -12.232  15.653  70.867  1.00  0.00    -0.419 C  
HETATM   20  O   UNL     1     -11.303  16.538  70.220  1.00  0.00    -0.468 OA 
HETATM   21  H   UNL     1     -11.117  17.283  70.779  1.00  0.00     0.000 HD 
BRANCH  19  22
HETATM   22  C   UNL     1     -11.652  15.248  72.220  1.00  0.00    -0.530 C  
HETATM   23  C   UNL     1     -12.663  15.119  73.338  1.00  0.00    -0.537 C  
HETATM   24  O   UNL     1     -13.856  14.607  72.969  1.00  0.00    -0.522 OA 
HETATM   25  O   UNL     1     -12.396  15.375  74.503  1.00  0.00    -0.646 OA 
ENDBRANCH  19  22
ENDBRANCH  18  19
ENDBRANCH  15  18
ENDBRANCH  14  15
ENDBRANCH   5  13
BRANCH   7  26
HETATM   26  C   UNL     1     -10.282   8.985  67.672  1.00  0.00    -0.300 A  
HETATM   27  C   UNL     1      -9.491   8.113  69.820  1.00  0.00    -0.159 A  
HETATM   28  C   UNL     1     -10.801   6.699  68.380  1.00  0.00    -0.320 A  
HETATM   29  C   UNL     1     -10.122   6.905  69.570  1.00  0.00    -0.173 A  
HETATM   30  C   UNL     1      -9.589   9.151  68.884  1.00  0.00    -0.152 A  
HETATM   31  C   UNL     1     -10.852   7.723  67.426  1.00  0.00    -0.207 A  
HETATM   32  F   UNL     1     -10.081   5.931  70.488  1.00  0.00    -0.202 F  
ENDBRANCH   7  26
ENDBRANCH   2   4
TORSDOF 7
ENDMDL
MODEL       32
REMARK 921   NORMALIZED FREE ENERGY PREDICTED BY IDOCK:   -6.64 KCAL/MOL
REMARK 922        TOTAL FREE ENERGY PREDICTED BY IDOCK:  -11.06 KCAL/MOL
REMARK 923 INTER-LIGAND FREE ENERGY PREDICTED BY IDOCK:   -8.66 KCAL/MOL
REMARK 924 INTRA-LIGAND FREE ENERGY PREDICTED BY IDOCK:   -2.40 KCAL/MOL
REMARK 927      BINDING AFFINITY PREDICTED BY RF-SCORE:    0.00 PKD
ROOT
HETATM    1  C   UNL     1     -11.657  14.238  64.495  1.00  0.00    -0.397 C  
HETATM    2  C   UNL     1     -12.240  12.834  64.690  1.00  0.00    -0.447 C  
HETATM    3  C   UNL     1     -13.001  12.281  63.485  1.00  0.00    -0.263 C  
ENDROOT
BRANCH   2   4
HETATM    4  N   UNL     1     -11.306  11.862  65.273  1.00  0.00    -0.306 NA 
HETATM    5  C   UNL     1     -11.175  11.490  66.608  1.00  0.00    -0.271 A  
HETATM    6  C   UNL     1      -8.469   9.501  63.371  1.00  0.00    -0.197 A  
HETATM    7  C   UNL     1     -10.253  10.431  66.669  1.00  0.00    -0.292 A  
HETATM    8  C   UNL     1      -9.086  10.460  62.585  1.00  0.00    -0.305 A  
HETATM    9  C   UNL     1     -10.375  11.180  64.499  1.00  0.00    -0.337 A  
HETATM   10  C   UNL     1      -9.746  10.245  65.327  1.00  0.00    -0.354 A  
HETATM   11  C   UNL     1      -8.801   9.376  64.725  1.00  0.00    -0.243 A  
HETATM   12  C   UNL     1     -10.054  11.301  63.132  1.00  0.00    -0.385 A  
BRANCH   5  13
HETATM   13  C   UNL     1     -11.970  12.133  67.598  1.00  0.00    -0.190 C  
HETATM   14  C   UNL     1     -11.501  13.146  68.346  1.00  0.00    -0.350 C  
BRANCH  14  15
HETATM   15  C   UNL     1     -12.324  13.887  69.363  1.00  0.00    -0.197 C  
HETATM   16  H   UNL     1     -12.447  15.721  69.922  1.00  0.00     0.000 HD 
HETATM   17  O   UNL     1     -11.927  15.253  69.280  1.00  0.00    -0.320 OA 
BRANCH  15  18
HETATM   18  C   UNL     1     -12.110  13.331  70.778  1.00  0.00    -0.311 C  
BRANCH  18  19
HETATM   19  C   UNL     1     -12.884  12.028  71.050  1.00  0.00    -0.187 C  
HETATM   20  O   UNL     1     -13.593  12.122  72.296  1.00  0.00    -0.550 OA 
HETATM   21  H   UNL     1     -14.070  11.318  72.463  1.00  0.00     0.000 HD 
BRANCH  19  22
HETATM   22  C   UNL     1     -11.977  10.800  71.102  1.00  0.00    -0.361 C  
HETATM   23  C   UNL     1     -12.584   9.583  71.764  1.00  0.00    -0.405 C  
HETATM   24  O   UNL     1     -13.900   9.401  71.524  1.00  0.00    -0.336 OA 
HETATM   25  O   UNL     1     -11.920   8.774  72.396  1.00  0.00    -0.359 OA 
ENDBRANCH  19  22
ENDBRANCH  18  19
ENDBRANCH  15  18
ENDBRANCH  14  15
ENDBRANCH   5  13
BRANCH   7  26
HETATM   26  C   UNL     1      -9.863   9.739  67.917  1.00  0.00    -0.176 A  
HETATM   27  C   UNL     1      -8.616   9.716  70.025  1.00  0.00    -0.237 A  
HETATM   28  C   UNL     1     -10.088   7.886  69.502  1.00  0.00    -0.195 A  
HETATM   29  C   UNL     1      -9.206   8.510  70.369  1.00  0.00    -0.160 A  
HETATM   30  C   UNL     1      -8.959  10.333  68.816  1.00  0.00    -0.155 A  
HETATM   31  C   UNL     1     -10.389   8.483  68.272  1.00  0.00    -0.246 A  
HETATM   32  F   UNL     1      -8.925   7.946  71.550  1.00  0.00    -0.130 F  
ENDBRANCH   7  26
ENDBRANCH   2   4
TORSDOF 7
ENDMDL
MODEL       33
REMARK 921   NORMALIZED FREE ENERGY PREDICTED BY IDOCK:   -6.60 KCAL/MOL
REMARK 922        TOTAL FREE ENERGY PREDICTED BY IDOCK:  -11.01 KCAL/MOL
REMARK 923 INTER-LIGAND FREE ENERGY PREDICTED BY IDOCK:   -9.05 KCAL/MOL
REMARK 924 INTRA-LIGAND FREE ENERGY PREDICTED BY IDOCK:   -1.96 KCAL/MOL
REMARK 927      BINDING AFFINITY PREDICTED BY RF-SCORE:    0.00 PKD
ROOT
HETATM    1  C   UNL     1      -9.096  19.987  66.987  1.00  0.00    -0.466 C  
HETATM    2  C   UNL     1      -8.397  18.791  66.332  1.00  0.00    -0.280 C  
HETATM    3  C   UNL     1      -7.073  19.120  65.640  1.00  0.00    -0.265 C  
ENDROOT
BRANCH   2   4
HETATM    4  N   UNL     1      -8.318  17.593  67.178  1.00  0.00    -0.214 NA 
HETATM    5  C   UNL     1      -9.090  16.438  67.106  1.00  0.00    -0.205 A  
HETATM    6  C   UNL     1      -5.717  16.773  70.309  1.00  0.00    -0.169 A  
HETATM    7  C   UNL     1      -8.563  15.512  68.021  1.00  0.00    -0.155 A  
HETATM    8  C   UNL     1      -5.675  18.064  69.807  1.00  0.00    -0.238 A  
HETATM    9  C   UNL     1      -7.413  17.491  68.227  1.00  0.00    -0.237 A  
HETATM   10  C   UNL     1      -7.503  16.190  68.734  1.00  0.00    -0.189 A  
HETATM   11  C   UNL     1      -6.606  15.834  69.773  1.00  0.00    -0.154 A  
HETATM   12  C   UNL     1      -6.510  18.436  68.755  1.00  0.00    -0.239 A  
BRANCH   5  13
HETATM   13  C   UNL     1     -10.150  16.358  66.157  1.00  0.00    -0.364 C  
HETATM   14  C   UNL     1     -10.193  15.405  65.212  1.00  0.00    -0.390 C  
BRANCH  14  15
HETATM   15  C   UNL     1     -11.320  15.252  64.228  1.00  0.00    -0.103 C  
HETATM   16  H   UNL     1     -12.571  16.459  63.410  1.00  0.00     0.000 HD 
HETATM   17  O   UNL     1     -11.859  16.556  64.032  1.00  0.00    -1.022 OA 
BRANCH  15  18
HETATM   18  C   UNL     1     -12.392  14.279  64.742  1.00  0.00    -0.440 C  
BRANCH  18  19
HETATM   19  C   UNL     1     -12.181  12.829  64.271  1.00  0.00    -0.425 C  
HETATM   20  O   UNL     1     -13.448  12.165  64.126  1.00  0.00    -0.671 OA 
HETATM   21  H   UNL     1     -13.318  11.270  63.836  1.00  0.00     0.000 HD 
BRANCH  19  22
HETATM   22  C   UNL     1     -11.316  12.014  65.230  1.00  0.00    -0.366 C  
HETATM   23  C   UNL     1     -10.313  11.097  64.566  1.00  0.00    -0.337 C  
HETATM   24  O   UNL     1      -9.743  11.591  63.447  1.00  0.00    -0.322 OA 
HETATM   25  O   UNL     1      -9.976  10.026  65.050  1.00  0.00    -0.326 OA 
ENDBRANCH  19  22
ENDBRANCH  18  19
ENDBRANCH  15  18
ENDBRANCH  14  15
ENDBRANCH   5  13
BRANCH   7  26
HETATM   26  C   UNL     1      -9.096  14.146  68.223  1.00  0.00    -0.190 A  
HETATM   27  C   UNL     1     -10.954  12.662  68.810  1.00  0.00    -0.289 A  
HETATM   28  C   UNL     1      -8.873  11.712  68.066  1.00  0.00    -0.162 A  
HETATM   29  C   UNL     1     -10.184  11.557  68.485  1.00  0.00    -0.213 A  
HETATM   30  C   UNL     1     -10.418  13.947  68.660  1.00  0.00    -0.249 A  
HETATM   31  C   UNL     1      -8.325  12.997  67.967  1.00  0.00    -0.169 A  
HETATM   32  F   UNL     1     -10.713  10.330  68.570  1.00  0.00    -0.200 F  
ENDBRANCH   7  26
ENDBRANCH   2   4
TORSDOF 7
ENDMDL
MODEL       34
REMARK 921   NORMALIZED FREE ENERGY PREDICTED BY IDOCK:   -6.57 KCAL/MOL
REMARK 922        TOTAL FREE ENERGY PREDICTED BY IDOCK:  -10.97 KCAL/MOL
REMARK 923 INTER-LIGAND FREE ENERGY PREDICTED BY IDOCK:   -9.21 KCAL/MOL
REMARK 924 INTRA-LIGAND FREE ENERGY PREDICTED BY IDOCK:   -1.76 KCAL/MOL
REMARK 927      BINDING AFFINITY PREDICTED BY RF-SCORE:    0.00 PKD
ROOT
HETATM    1  C   UNL     1     -10.471  14.485  66.526  1.00  0.00    -0.285 C  
HETATM    2  C   UNL     1     -11.467  13.322  66.473  1.00  0.00    -0.337 C  
HETATM    3  C   UNL     1     -12.620  13.507  65.485  1.00  0.00    -0.531 C  
ENDROOT
BRANCH   2   4
HETATM    4  N   UNL     1     -10.847  11.993  66.386  1.00  0.00    -0.266 NA 
HETATM    5  C   UNL     1     -10.721  11.037  67.389  1.00  0.00    -0.257 A  
HETATM    6  C   UNL     1      -9.114  10.128  63.106  1.00  0.00    -0.296 A  
HETATM    7  C   UNL     1     -10.190   9.873  66.808  1.00  0.00    -0.301 A  
HETATM    8  C   UNL     1      -9.459  11.458  62.936  1.00  0.00    -0.372 A  
HETATM    9  C   UNL     1     -10.263  11.528  65.214  1.00  0.00    -0.267 A  
HETATM   10  C   UNL     1      -9.896  10.196  65.429  1.00  0.00    -0.375 A  
HETATM   11  C   UNL     1      -9.342   9.489  64.331  1.00  0.00    -0.120 A  
HETATM   12  C   UNL     1     -10.047  12.171  63.979  1.00  0.00    -0.357 A  
BRANCH   5  13
HETATM   13  C   UNL     1     -11.171  11.336  68.707  1.00  0.00    -0.311 C  
HETATM   14  C   UNL     1     -12.298  10.812  69.215  1.00  0.00    -0.055 C  
BRANCH  14  15
HETATM   15  C   UNL     1     -12.779  11.058  70.618  1.00  0.00    -0.288 C  
HETATM   16  H   UNL     1     -12.633  12.518  71.858  1.00  0.00     0.000 HD 
HETATM   17  O   UNL     1     -12.329  12.363  70.972  1.00  0.00    -0.349 OA 
BRANCH  15  18
HETATM   18  C   UNL     1     -12.240  10.001  71.594  1.00  0.00    -0.456 C  
BRANCH  18  19
HETATM   19  C   UNL     1     -13.229   8.852  71.861  1.00  0.00    -0.393 C  
HETATM   20  O   UNL     1     -13.676   8.889  73.227  1.00  0.00    -1.085 OA 
HETATM   21  H   UNL     1     -14.285   8.180  73.391  1.00  0.00     0.000 HD 
BRANCH  19  22
HETATM   22  C   UNL     1     -12.625   7.475  71.588  1.00  0.00    -0.376 C  
HETATM   23  C   UNL     1     -11.335   7.185  72.322  1.00  0.00    -0.265 C  
HETATM   24  O   UNL     1     -11.269   7.680  73.576  1.00  0.00    -0.283 OA 
HETATM   25  O   UNL     1     -10.451   6.483  71.852  1.00  0.00    -0.203 OA 
ENDBRANCH  19  22
ENDBRANCH  18  19
ENDBRANCH  15  18
ENDBRANCH  14  15
ENDBRANCH   5  13
BRANCH   7  26
HETATM   26  C   UNL     1      -9.930   8.619  67.548  1.00  0.00    -0.256 A  
HETATM   27  C   UNL     1     -10.409   6.247  67.930  1.00  0.00    -0.239 A  
HETATM   28  C   UNL     1      -8.623   7.303  69.148  1.00  0.00    -0.133 A  
HETATM   29  C   UNL     1      -9.367   6.176  68.841  1.00  0.00    -0.124 A  
HETATM   30  C   UNL     1     -10.673   7.456  67.275  1.00  0.00    -0.379 A  
HETATM   31  C   UNL     1      -8.925   8.522  68.527  1.00  0.00    -0.139 A  
HETATM   32  F   UNL     1      -9.074   5.007  69.425  1.00  0.00    -0.106 F  
ENDBRANCH   7  26
ENDBRANCH   2   4
TORSDOF 7
ENDMDL
MODEL       35
REMARK 921   NORMALIZED FREE ENERGY PREDICTED BY IDOCK:   -6.54 KCAL/MOL
REMARK 922        TOTAL FREE ENERGY PREDICTED BY IDOCK:  -10.92 KCAL/MOL
REMARK 923 INTER-LIGAND FREE ENERGY PREDICTED BY IDOCK:   -9.60 KCAL/MOL
REMARK 924 INTRA-LIGAND FREE ENERGY PREDICTED BY IDOCK:   -1.32 KCAL/MOL
REMARK 927      BINDING AFFINITY PREDICTED BY RF-SCORE:    0.00 PKD
ROOT
HETATM    1  C   UNL     1     -13.792   8.761  71.716  1.00  0.00    -0.469 C  
HETATM    2  C   UNL     1     -13.031   9.989  71.207  1.00  0.00    -0.400 C  
HETATM    3  C   UNL     1     -13.202  11.249  72.056  1.00  0.00    -0.437 C  
ENDROOT
BRANCH   2   4
HETATM    4  N   UNL     1     -11.632   9.731  70.842  1.00  0.00    -0.332 NA 
HETATM    5  C   UNL     1     -10.943  10.168  69.715  1.00  0.00    -0.280 A  
HETATM    6  C   UNL     1      -8.741   7.598  72.926  1.00  0.00    -0.202 A  
HETATM    7  C   UNL     1      -9.596   9.795  69.864  1.00  0.00    -0.269 A  
HETATM    8  C   UNL     1     -10.030   7.524  73.428  1.00  0.00    -0.378 A  
HETATM    9  C   UNL     1     -10.797   8.950  71.633  1.00  0.00    -0.349 A  
HETATM   10  C   UNL     1      -9.514   9.017  71.081  1.00  0.00    -0.348 A  
HETATM   11  C   UNL     1      -8.473   8.348  71.774  1.00  0.00    -0.220 A  
HETATM   12  C   UNL     1     -11.070   8.207  72.799  1.00  0.00    -0.407 A  
BRANCH   5  13
HETATM   13  C   UNL     1     -11.631  10.912  68.715  1.00  0.00    -0.378 C  
HETATM   14  C   UNL     1     -11.403  12.221  68.514  1.00  0.00    -0.332 C  
BRANCH  14  15
HETATM   15  C   UNL     1     -12.067  13.030  67.434  1.00  0.00    -0.233 C  
HETATM   16  H   UNL     1     -12.617  12.677  65.628  1.00  0.00     0.000 HD 
HETATM   17  O   UNL     1     -12.197  12.165  66.310  1.00  0.00    -0.604 OA 
BRANCH  15  18
HETATM   18  C   UNL     1     -11.248  14.281  67.081  1.00  0.00    -0.333 C  
BRANCH  18  19
HETATM   19  C   UNL     1     -10.256  14.060  65.924  1.00  0.00    -0.320 C  
HETATM   20  O   UNL     1      -8.994  14.675  66.229  1.00  0.00    -0.459 OA 
HETATM   21  H   UNL     1      -8.382  14.538  65.515  1.00  0.00     0.000 HD 
BRANCH  19  22
HETATM   22  C   UNL     1     -10.760  14.623  64.596  1.00  0.00    -0.309 C  
HETATM   23  C   UNL     1     -11.114  16.093  64.617  1.00  0.00    -0.296 C  
HETATM   24  O   UNL     1     -10.307  16.862  65.378  1.00  0.00    -0.609 OA 
HETATM   25  O   UNL     1     -12.007  16.567  63.930  1.00  0.00    -0.979 OA 
ENDBRANCH  19  22
ENDBRANCH  18  19
ENDBRANCH  15  18
ENDBRANCH  14  15
ENDBRANCH   5  13
BRANCH   7  26
HETATM   26  C   UNL     1      -8.534  10.104  68.882  1.00  0.00    -0.139 A  
HETATM   27  C   UNL     1      -6.476  11.294  68.290  1.00  0.00    -0.056 A  
HETATM   28  C   UNL     1      -7.411   9.707  66.742  1.00  0.00    -0.094 A  
HETATM   29  C   UNL     1      -6.419  10.610  67.086  1.00  0.00    -0.075 A  
HETATM   30  C   UNL     1      -7.517  11.026  69.188  1.00  0.00    -0.121 A  
HETATM   31  C   UNL     1      -8.476   9.480  67.622  1.00  0.00    -0.122 A  
HETATM   32  F   UNL     1      -5.394  10.821  66.251  1.00  0.00    -0.047 F  
ENDBRANCH   7  26
ENDBRANCH   2   4
TORSDOF 7
ENDMDL
MODEL       36
REMARK 921   NORMALIZED FREE ENERGY PREDICTED BY IDOCK:   -6.52 KCAL/MOL
REMARK 922        TOTAL FREE ENERGY PREDICTED BY IDOCK:  -10.89 KCAL/MOL
REMARK 923 INTER-LIGAND FREE ENERGY PREDICTED BY IDOCK:   -9.22 KCAL/MOL
REMARK 924 INTRA-LIGAND FREE ENERGY PREDICTED BY IDOCK:   -1.68 KCAL/MOL
REMARK 927      BINDING AFFINITY PREDICTED BY RF-SCORE:    0.00 PKD
ROOT
HETATM    1  C   UNL     1     -10.898  14.027  66.166  1.00  0.00    -0.291 C  
HETATM    2  C   UNL     1     -11.718  12.764  65.883  1.00  0.00    -0.414 C  
HETATM    3  C   UNL     1     -12.654  12.862  64.678  1.00  0.00    -0.459 C  
ENDROOT
BRANCH   2   4
HETATM    4  N   UNL     1     -10.942  11.517  65.906  1.00  0.00    -0.272 NA 
HETATM    5  C   UNL     1     -10.921  10.537  66.893  1.00  0.00    -0.131 A  
HETATM    6  C   UNL     1      -8.346  10.002  63.041  1.00  0.00    -0.166 A  
HETATM    7  C   UNL     1     -10.146   9.466  66.418  1.00  0.00    -0.332 A  
HETATM    8  C   UNL     1      -8.800  11.294  62.827  1.00  0.00    -0.236 A  
HETATM    9  C   UNL     1     -10.072  11.172  64.879  1.00  0.00    -0.289 A  
HETATM   10  C   UNL     1      -9.605   9.880  65.141  1.00  0.00    -0.367 A  
HETATM   11  C   UNL     1      -8.752   9.288  64.175  1.00  0.00    -0.201 A  
HETATM   12  C   UNL     1      -9.676  11.890  63.733  1.00  0.00    -0.233 A  
BRANCH   5  13
HETATM   13  C   UNL     1     -11.672  10.725  68.088  1.00  0.00    -0.173 C  
HETATM   14  C   UNL     1     -11.085  10.988  69.268  1.00  0.00    -0.312 C  
BRANCH  14  15
HETATM   15  C   UNL     1     -11.843  11.248  70.540  1.00  0.00    -0.324 C  
HETATM   16  H   UNL     1     -13.378  10.458  71.384  1.00  0.00     0.000 HD 
HETATM   17  O   UNL     1     -12.899  10.293  70.580  1.00  0.00    -0.315 OA 
BRANCH  15  18
HETATM   18  C   UNL     1     -12.389  12.683  70.590  1.00  0.00    -0.375 C  
BRANCH  18  19
HETATM   19  C   UNL     1     -12.823  13.127  72.000  1.00  0.00    -0.199 C  
HETATM   20  O   UNL     1     -13.588  12.088  72.633  1.00  0.00    -0.545 OA 
HETATM   21  H   UNL     1     -13.855  12.363  73.502  1.00  0.00     0.000 HD 
BRANCH  19  22
HETATM   22  C   UNL     1     -13.660  14.405  71.987  1.00  0.00    -0.514 C  
HETATM   23  C   UNL     1     -13.122  15.531  72.842  1.00  0.00    -0.507 C  
HETATM   24  O   UNL     1     -11.776  15.642  72.856  1.00  0.00    -0.449 OA 
HETATM   25  O   UNL     1     -13.848  16.335  73.408  1.00  0.00    -0.562 OA 
ENDBRANCH  19  22
ENDBRANCH  18  19
ENDBRANCH  15  18
ENDBRANCH  14  15
ENDBRANCH   5  13
BRANCH   7  26
HETATM   26  C   UNL     1      -9.904   8.216  67.170  1.00  0.00    -0.281 A  
HETATM   27  C   UNL     1      -8.563   6.929  68.767  1.00  0.00    -0.124 A  
HETATM   28  C   UNL     1     -10.597   5.982  67.897  1.00  0.00    -0.337 A  
HETATM   29  C   UNL     1      -9.488   5.898  68.724  1.00  0.00    -0.126 A  
HETATM   30  C   UNL     1      -8.782   8.086  68.009  1.00  0.00    -0.125 A  
HETATM   31  C   UNL     1     -10.784   7.120  67.104  1.00  0.00    -0.422 A  
HETATM   32  F   UNL     1      -9.312   4.815  69.492  1.00  0.00    -0.135 F  
ENDBRANCH   7  26
ENDBRANCH   2   4
TORSDOF 7
ENDMDL
MODEL       37
REMARK 921   NORMALIZED FREE ENERGY PREDICTED BY IDOCK:   -6.47 KCAL/MOL
REMARK 922        TOTAL FREE ENERGY PREDICTED BY IDOCK:  -10.83 KCAL/MOL
REMARK 923 INTER-LIGAND FREE ENERGY PREDICTED BY IDOCK:   -9.84 KCAL/MOL
REMARK 924 INTRA-LIGAND FREE ENERGY PREDICTED BY IDOCK:   -0.99 KCAL/MOL
REMARK 927      BINDING AFFINITY PREDICTED BY RF-SCORE:    0.00 PKD
ROOT
HETATM    1  C   UNL     1     -11.750  13.575  68.092  1.00  0.00    -0.396 C  
HETATM    2  C   UNL     1     -10.565  12.611  68.212  1.00  0.00    -0.237 C  
HETATM    3  C   UNL     1      -9.257  13.255  68.674  1.00  0.00     0.017 C  
ENDROOT
BRANCH   2   4
HETATM    4  N   UNL     1     -10.867  11.359  68.918  1.00  0.00    -0.205 NA 
HETATM    5  C   UNL     1     -10.413  10.077  68.626  1.00  0.00    -0.204 A  
HETATM    6  C   UNL     1     -13.206  10.765  72.298  1.00  0.00    -0.173 A  
HETATM    7  C   UNL     1     -10.848   9.223  69.653  1.00  0.00    -0.228 A  
HETATM    8  C   UNL     1     -13.246  12.035  71.747  1.00  0.00    -0.421 A  
HETATM    9  C   UNL     1     -11.715  11.321  70.018  1.00  0.00    -0.346 A  
HETATM   10  C   UNL     1     -11.679  10.019  70.529  1.00  0.00    -0.400 A  
HETATM   11  C   UNL     1     -12.420   9.765  71.712  1.00  0.00    -0.485 A  
HETATM   12  C   UNL     1     -12.494  12.334  70.612  1.00  0.00    -0.323 A  
BRANCH   5  13
HETATM   13  C   UNL     1      -9.598   9.864  67.477  1.00  0.00    -0.183 C  
HETATM   14  C   UNL     1     -10.103   9.861  66.233  1.00  0.00    -0.311 C  
BRANCH  14  15
HETATM   15  C   UNL     1      -9.271   9.695  64.991  1.00  0.00    -0.250 C  
HETATM   16  H   UNL     1      -7.392   9.505  64.641  1.00  0.00     0.000 HD 
HETATM   17  O   UNL     1      -7.917   9.609  65.426  1.00  0.00    -0.113 OA 
BRANCH  15  18
HETATM   18  C   UNL     1      -9.469  10.866  64.017  1.00  0.00    -0.298 C  
BRANCH  18  19
HETATM   19  C   UNL     1     -10.882  11.475  64.068  1.00  0.00    -0.387 C  
HETATM   20  O   UNL     1     -11.597  11.170  62.859  1.00  0.00    -0.784 OA 
HETATM   21  H   UNL     1     -12.469  11.546  62.890  1.00  0.00     0.000 HD 
BRANCH  19  22
HETATM   22  C   UNL     1     -10.868  12.992  64.251  1.00  0.00    -0.430 C  
HETATM   23  C   UNL     1     -12.229  13.651  64.239  1.00  0.00    -0.396 C  
HETATM   24  O   UNL     1     -13.212  12.940  64.832  1.00  0.00    -0.782 OA 
HETATM   25  O   UNL     1     -12.413  14.779  63.805  1.00  0.00    -0.782 OA 
ENDBRANCH  19  22
ENDBRANCH  18  19
ENDBRANCH  15  18
ENDBRANCH  14  15
ENDBRANCH   5  13
BRANCH   7  26
HETATM   26  C   UNL     1     -10.543   7.777  69.718  1.00  0.00    -0.241 A  
HETATM   27  C   UNL     1     -10.309   5.717  71.023  1.00  0.00    -0.291 A  
HETATM   28  C   UNL     1     -10.077   5.633  68.630  1.00  0.00    -0.240 A  
HETATM   29  C   UNL     1     -10.103   4.994  69.859  1.00  0.00    -0.274 A  
HETATM   30  C   UNL     1     -10.547   7.095  70.948  1.00  0.00    -0.238 A  
HETATM   31  C   UNL     1     -10.265   7.019  68.566  1.00  0.00    -0.183 A  
HETATM   32  F   UNL     1      -9.935   3.668  69.922  1.00  0.00    -0.254 F  
ENDBRANCH   7  26
ENDBRANCH   2   4
TORSDOF 7
ENDMDL
MODEL       38
REMARK 921   NORMALIZED FREE ENERGY PREDICTED BY IDOCK:   -6.44 KCAL/MOL
REMARK 922        TOTAL FREE ENERGY PREDICTED BY IDOCK:  -10.78 KCAL/MOL
REMARK 923 INTER-LIGAND FREE ENERGY PREDICTED BY IDOCK:   -9.46 KCAL/MOL
REMARK 924 INTRA-LIGAND FREE ENERGY PREDICTED BY IDOCK:   -1.33 KCAL/MOL
REMARK 927      BINDING AFFINITY PREDICTED BY RF-SCORE:    0.00 PKD
ROOT
HETATM    1  C   UNL     1     -10.615  13.997  66.055  1.00  0.00    -0.297 C  
HETATM    2  C   UNL     1     -11.709  12.953  66.304  1.00  0.00    -0.399 C  
HETATM    3  C   UNL     1     -12.519  12.564  65.068  1.00  0.00    -0.494 C  
ENDROOT
BRANCH   2   4
HETATM    4  N   UNL     1     -11.274  11.793  67.093  1.00  0.00    -0.298 NA 
HETATM    5  C   UNL     1     -11.470  11.555  68.450  1.00  0.00    -0.298 A  
HETATM    6  C   UNL     1      -9.241   8.396  65.840  1.00  0.00    -0.217 A  
HETATM    7  C   UNL     1     -11.007  10.258  68.729  1.00  0.00    -0.285 A  
HETATM    8  C   UNL     1      -9.360   9.411  64.906  1.00  0.00    -0.218 A  
HETATM    9  C   UNL     1     -10.554  10.747  66.529  1.00  0.00    -0.218 A  
HETATM   10  C   UNL     1     -10.422   9.754  67.506  1.00  0.00    -0.309 A  
HETATM   11  C   UNL     1      -9.778   8.549  67.125  1.00  0.00    -0.251 A  
HETATM   12  C   UNL     1     -10.027  10.592  65.231  1.00  0.00    -0.364 A  
BRANCH   5  13
HETATM   13  C   UNL     1     -12.109  12.542  69.253  1.00  0.00    -0.214 C  
HETATM   14  C   UNL     1     -11.863  12.665  70.568  1.00  0.00    -0.140 C  
BRANCH  14  15
HETATM   15  C   UNL     1     -12.474  13.728  71.438  1.00  0.00    -0.318 C  
HETATM   16  H   UNL     1     -14.066  13.848  72.506  1.00  0.00     0.000 HD 
HETATM   17  O   UNL     1     -13.680  13.176  71.956  1.00  0.00    -0.464 OA 
BRANCH  15  18
HETATM   18  C   UNL     1     -12.746  15.018  70.650  1.00  0.00    -0.428 C  
BRANCH  18  19
HETATM   19  C   UNL     1     -11.468  15.793  70.280  1.00  0.00    -0.359 C  
HETATM   20  O   UNL     1     -11.341  16.963  71.105  1.00  0.00    -0.409 OA 
HETATM   21  H   UNL     1     -10.553  17.441  70.876  1.00  0.00     0.000 HD 
BRANCH  19  22
HETATM   22  C   UNL     1     -11.442  16.229  68.816  1.00  0.00    -0.289 C  
HETATM   23  C   UNL     1     -10.229  17.034  68.409  1.00  0.00    -0.331 C  
HETATM   24  O   UNL     1      -9.071  16.651  68.987  1.00  0.00    -0.256 OA 
HETATM   25  O   UNL     1     -10.272  17.909  67.556  1.00  0.00    -0.330 OA 
ENDBRANCH  19  22
ENDBRANCH  18  19
ENDBRANCH  15  18
ENDBRANCH  14  15
ENDBRANCH   5  13
BRANCH   7  26
HETATM   26  C   UNL     1     -11.066   9.623  70.064  1.00  0.00    -0.293 A  
HETATM   27  C   UNL     1     -12.377   8.702  71.917  1.00  0.00    -0.414 A  
HETATM   28  C   UNL     1      -9.976   8.557  71.981  1.00  0.00    -0.383 A  
HETATM   29  C   UNL     1     -11.213   8.289  72.545  1.00  0.00    -0.376 A  
HETATM   30  C   UNL     1     -12.302   9.347  70.676  1.00  0.00    -0.094 A  
HETATM   31  C   UNL     1      -9.905   9.246  70.765  1.00  0.00    -0.350 A  
HETATM   32  F   UNL     1     -11.285   7.620  73.702  1.00  0.00    -0.359 F  
ENDBRANCH   7  26
ENDBRANCH   2   4
TORSDOF 7
ENDMDL
MODEL       39
REMARK 921   NORMALIZED FREE ENERGY PREDICTED BY IDOCK:   -6.43 KCAL/MOL
REMARK 922        TOTAL FREE ENERGY PREDICTED BY IDOCK:  -10.76 KCAL/MOL
REMARK 923 INTER-LIGAND FREE ENERGY PREDICTED BY IDOCK:   -9.75 KCAL/MOL
REMARK 924 INTRA-LIGAND FREE ENERGY PREDICTED BY IDOCK:   -1.01 KCAL/MOL
REMARK 927      BINDING AFFINITY PREDICTED BY RF-SCORE:    0.00 PKD
ROOT
HETATM    1  C   UNL     1     -13.919  15.284  71.223  1.00  0.00    -0.548 C  
HETATM    2  C   UNL     1     -12.438  15.667  71.132  1.00  0.00    -0.448 C  
HETATM    3  C   UNL     1     -11.661  15.550  72.444  1.00  0.00    -0.570 C  
ENDROOT
BRANCH   2   4
HETATM    4  N   UNL     1     -11.726  15.078  69.990  1.00  0.00    -0.285 NA 
HETATM    5  C   UNL     1     -11.615  13.734  69.647  1.00  0.00    -0.281 A  
HETATM    6  C   UNL     1      -9.621  16.982  66.960  1.00  0.00    -0.257 A  
HETATM    7  C   UNL     1     -10.964  13.660  68.405  1.00  0.00    -0.284 A  
HETATM    8  C   UNL     1     -10.039  17.787  68.007  1.00  0.00    -0.355 A  
HETATM    9  C   UNL     1     -11.022  15.857  69.080  1.00  0.00    -0.284 A  
HETATM   10  C   UNL     1     -10.585  15.012  68.055  1.00  0.00    -0.250 A  
HETATM   11  C   UNL     1      -9.901  15.610  66.966  1.00  0.00    -0.237 A  
HETATM   12  C   UNL     1     -10.754  17.241  69.071  1.00  0.00    -0.158 A  
BRANCH   5  13
HETATM   13  C   UNL     1     -12.186  12.742  70.496  1.00  0.00    -0.389 C  
HETATM   14  C   UNL     1     -12.296  11.457  70.121  1.00  0.00    -0.344 C  
BRANCH  14  15
HETATM   15  C   UNL     1     -12.840  10.370  71.006  1.00  0.00    -0.401 C  
HETATM   16  H   UNL     1     -13.744  10.335  72.701  1.00  0.00     0.000 HD 
HETATM   17  O   UNL     1     -13.400  11.023  72.142  1.00  0.00    -0.451 OA 
BRANCH  15  18
HETATM   18  C   UNL     1     -11.745   9.376  71.420  1.00  0.00    -0.448 C  
BRANCH  18  19
HETATM   19  C   UNL     1     -12.286   8.139  72.161  1.00  0.00    -0.338 C  
HETATM   20  O   UNL     1     -11.407   7.784  73.241  1.00  0.00    -0.562 OA 
HETATM   21  H   UNL     1     -11.741   7.021  73.697  1.00  0.00     0.000 HD 
BRANCH  19  22
HETATM   22  C   UNL     1     -12.446   6.925  71.248  1.00  0.00    -0.409 C  
HETATM   23  C   UNL     1     -11.188   6.495  70.527  1.00  0.00    -0.344 C  
HETATM   24  O   UNL     1     -10.051   6.616  71.246  1.00  0.00    -0.188 OA 
HETATM   25  O   UNL     1     -11.203   5.995  69.412  1.00  0.00    -0.395 OA 
ENDBRANCH  19  22
ENDBRANCH  18  19
ENDBRANCH  15  18
ENDBRANCH  14  15
ENDBRANCH   5  13
BRANCH   7  26
HETATM   26  C   UNL     1     -10.679  12.398  67.689  1.00  0.00    -0.248 A  
HETATM   27  C   UNL     1     -11.153  10.854  65.846  1.00  0.00     0.037 A  
HETATM   28  C   UNL     1      -9.313  10.397  67.328  1.00  0.00    -0.164 A  
HETATM   29  C   UNL     1     -10.075  10.068  66.218  1.00  0.00    -0.243 A  
HETATM   30  C   UNL     1     -11.439  12.021  66.566  1.00  0.00    -0.413 A  
HETATM   31  C   UNL     1      -9.634  11.538  68.074  1.00  0.00    -0.180 A  
HETATM   32  F   UNL     1      -9.763   8.984  65.497  1.00  0.00    -0.318 F  
ENDBRANCH   7  26
ENDBRANCH   2   4
TORSDOF 7
ENDMDL
MODEL       40
REMARK 921   NORMALIZED FREE ENERGY PREDICTED BY IDOCK:   -6.42 KCAL/MOL
REMARK 922        TOTAL FREE ENERGY PREDICTED BY IDOCK:  -10.76 KCAL/MOL
REMARK 923 INTER-LIGAND FREE ENERGY PREDICTED BY IDOCK:   -8.62 KCAL/MOL
REMARK 924 INTRA-LIGAND FREE ENERGY PREDICTED BY IDOCK:   -2.14 KCAL/MOL
REMARK 927      BINDING AFFINITY PREDICTED BY RF-SCORE:    0.00 PKD
ROOT
HETATM    1  C   UNL     1      -6.972  15.905  69.799  1.00  0.00    -0.072 C  
HETATM    2  C   UNL     1      -6.788  16.502  68.400  1.00  0.00    -0.145 C  
HETATM    3  C   UNL     1      -5.504  16.081  67.685  1.00  0.00    -0.158 C  
ENDROOT
BRANCH   2   4
HETATM    4  N   UNL     1      -7.976  16.417  67.540  1.00  0.00    -0.148 NA 
HETATM    5  C   UNL     1      -8.612  15.275  67.064  1.00  0.00    -0.227 A  
HETATM    6  C   UNL     1     -10.308  19.487  65.996  1.00  0.00    -0.604 A  
HETATM    7  C   UNL     1      -9.783  15.680  66.401  1.00  0.00    -0.302 A  
HETATM    8  C   UNL     1      -9.139  19.873  66.630  1.00  0.00    -0.466 A  
HETATM    9  C   UNL     1      -8.623  17.551  67.064  1.00  0.00    -0.235 A  
HETATM   10  C   UNL     1      -9.779  17.127  66.400  1.00  0.00    -0.307 A  
HETATM   11  C   UNL     1     -10.642  18.130  65.892  1.00  0.00    -0.247 A  
HETATM   12  C   UNL     1      -8.289  18.915  67.182  1.00  0.00    -0.288 A  
BRANCH   5  13
HETATM   13  C   UNL     1      -8.064  13.993  67.353  1.00  0.00    -0.199 C  
HETATM   14  C   UNL     1      -8.672  13.124  68.178  1.00  0.00    -0.193 C  
BRANCH  14  15
HETATM   15  C   UNL     1      -8.156  11.742  68.467  1.00  0.00    -0.140 C  
HETATM   16  H   UNL     1      -6.893  10.568  67.621  1.00  0.00     0.000 HD 
HETATM   17  O   UNL     1      -7.218  11.442  67.438  1.00  0.00    -0.100 OA 
BRANCH  15  18
HETATM   18  C   UNL     1      -9.294  10.709  68.500  1.00  0.00    -0.170 C  
BRANCH  18  19
HETATM   19  C   UNL     1     -10.423  11.007  67.496  1.00  0.00    -0.209 C  
HETATM   20  O   UNL     1     -11.658  10.435  67.956  1.00  0.00    -0.663 OA 
HETATM   21  H   UNL     1     -12.355  10.618  67.337  1.00  0.00     0.000 HD 
BRANCH  19  22
HETATM   22  C   UNL     1     -10.131  10.465  66.098  1.00  0.00    -0.299 C  
HETATM   23  C   UNL     1      -9.823   8.985  66.036  1.00  0.00    -0.242 C  
HETATM   24  O   UNL     1     -10.537   8.219  66.888  1.00  0.00    -0.321 OA 
HETATM   25  O   UNL     1      -9.051   8.504  65.219  1.00  0.00    -0.122 OA 
ENDBRANCH  19  22
ENDBRANCH  18  19
ENDBRANCH  15  18
ENDBRANCH  14  15
ENDBRANCH   5  13
BRANCH   7  26
HETATM   26  C   UNL     1     -10.748  14.751  65.776  1.00  0.00    -0.333 A  
HETATM   27  C   UNL     1     -11.303  13.140  64.015  1.00  0.00    -0.437 A  
HETATM   28  C   UNL     1     -12.878  13.541  65.789  1.00  0.00    -0.326 A  
HETATM   29  C   UNL     1     -12.513  12.869  64.634  1.00  0.00    -0.434 A  
HETATM   30  C   UNL     1     -10.421  14.060  64.595  1.00  0.00    -0.398 A  
HETATM   31  C   UNL     1     -12.014  14.497  66.336  1.00  0.00    -0.350 A  
HETATM   32  F   UNL     1     -13.333  11.947  64.115  1.00  0.00    -0.480 F  
ENDBRANCH   7  26
ENDBRANCH   2   4
TORSDOF 7
ENDMDL
MODEL       41
REMARK 921   NORMALIZED FREE ENERGY PREDICTED BY IDOCK:   -6.42 KCAL/MOL
REMARK 922        TOTAL FREE ENERGY PREDICTED BY IDOCK:  -10.75 KCAL/MOL
REMARK 923 INTER-LIGAND FREE ENERGY PREDICTED BY IDOCK:   -8.73 KCAL/MOL
REMARK 924 INTRA-LIGAND FREE ENERGY PREDICTED BY IDOCK:   -2.02 KCAL/MOL
REMARK 927      BINDING AFFINITY PREDICTED BY RF-SCORE:    0.00 PKD
ROOT
HETATM    1  C   UNL     1      -9.644  19.927  67.003  1.00  0.00    -0.515 C  
HETATM    2  C   UNL     1      -8.465  19.185  66.365  1.00  0.00    -0.318 C  
HETATM    3  C   UNL     1      -7.366  20.088  65.803  1.00  0.00    -0.321 C  
ENDROOT
BRANCH   2   4
HETATM    4  N   UNL     1      -7.937  18.074  67.169  1.00  0.00    -0.208 NA 
HETATM    5  C   UNL     1      -8.078  16.708  66.943  1.00  0.00    -0.214 A  
HETATM    6  C   UNL     1      -5.613  18.210  70.607  1.00  0.00    -0.145 A  
HETATM    7  C   UNL     1      -7.288  16.034  67.889  1.00  0.00    -0.145 A  
HETATM    8  C   UNL     1      -6.115  19.423  70.165  1.00  0.00    -0.265 A  
HETATM    9  C   UNL     1      -7.208  18.288  68.332  1.00  0.00    -0.268 A  
HETATM   10  C   UNL     1      -6.745  17.043  68.771  1.00  0.00    -0.193 A  
HETATM   11  C   UNL     1      -5.905  17.028  69.914  1.00  0.00    -0.228 A  
HETATM   12  C   UNL     1      -6.906  19.481  69.019  1.00  0.00    -0.384 A  
BRANCH   5  13
HETATM   13  C   UNL     1      -8.870  16.254  65.850  1.00  0.00    -0.187 C  
HETATM   14  C   UNL     1     -10.191  16.043  65.963  1.00  0.00    -0.360 C  
BRANCH  14  15
HETATM   15  C   UNL     1     -11.072  15.617  64.821  1.00  0.00    -0.412 C  
HETATM   16  H   UNL     1     -12.087  16.545  63.481  1.00  0.00     0.000 HD 
HETATM   17  O   UNL     1     -11.531  16.815  64.202  1.00  0.00    -1.171 OA 
BRANCH  15  18
HETATM   18  C   UNL     1     -12.249  14.756  65.305  1.00  0.00    -0.158 C  
BRANCH  18  19
HETATM   19  C   UNL     1     -11.888  13.270  65.486  1.00  0.00    -0.370 C  
HETATM   20  O   UNL     1     -12.838  12.441  64.795  1.00  0.00    -0.728 OA 
HETATM   21  H   UNL     1     -12.616  11.525  64.906  1.00  0.00     0.000 HD 
BRANCH  19  22
HETATM   22  C   UNL     1     -11.852  12.843  66.952  1.00  0.00    -0.444 C  
HETATM   23  C   UNL     1     -11.441  11.407  67.191  1.00  0.00    -0.190 C  
HETATM   24  O   UNL     1     -10.482  10.943  66.361  1.00  0.00    -0.248 OA 
HETATM   25  O   UNL     1     -11.878  10.740  68.118  1.00  0.00    -0.533 OA 
ENDBRANCH  19  22
ENDBRANCH  18  19
ENDBRANCH  15  18
ENDBRANCH  14  15
ENDBRANCH   5  13
BRANCH   7  26
HETATM   26  C   UNL     1      -7.151  14.563  67.961  1.00  0.00    -0.147 A  
HETATM   27  C   UNL     1      -5.785  12.546  67.698  1.00  0.00    -0.131 A  
HETATM   28  C   UNL     1      -8.016  12.356  68.577  1.00  0.00    -0.110 A  
HETATM   29  C   UNL     1      -6.812  11.774  68.217  1.00  0.00    -0.068 A  
HETATM   30  C   UNL     1      -5.949  13.933  67.591  1.00  0.00    -0.059 A  
HETATM   31  C   UNL     1      -8.193  13.736  68.420  1.00  0.00    -0.151 A  
HETATM   32  F   UNL     1      -6.636  10.456  68.376  1.00  0.00    -0.057 F  
ENDBRANCH   7  26
ENDBRANCH   2   4
TORSDOF 7
ENDMDL
MODEL       42
REMARK 921   NORMALIZED FREE ENERGY PREDICTED BY IDOCK:   -6.39 KCAL/MOL
REMARK 922        TOTAL FREE ENERGY PREDICTED BY IDOCK:  -10.71 KCAL/MOL
REMARK 923 INTER-LIGAND FREE ENERGY PREDICTED BY IDOCK:   -8.90 KCAL/MOL
REMARK 924 INTRA-LIGAND FREE ENERGY PREDICTED BY IDOCK:   -1.80 KCAL/MOL
REMARK 927      BINDING AFFINITY PREDICTED BY RF-SCORE:    0.00 PKD
ROOT
HETATM    1  C   UNL     1     -10.457  15.096  65.503  1.00  0.00    -0.400 C  
HETATM    2  C   UNL     1     -11.395  14.018  66.055  1.00  0.00    -0.328 C  
HETATM    3  C   UNL     1     -12.752  13.926  65.355  1.00  0.00    -0.525 C  
ENDROOT
BRANCH   2   4
HETATM    4  N   UNL     1     -10.765  12.706  66.256  1.00  0.00    -0.253 NA 
HETATM    5  C   UNL     1     -10.508  12.051  67.456  1.00  0.00    -0.212 A  
HETATM    6  C   UNL     1      -9.382  10.011  63.415  1.00  0.00    -0.300 A  
HETATM    7  C   UNL     1     -10.025  10.768  67.150  1.00  0.00    -0.230 A  
HETATM    8  C   UNL     1      -9.769  11.253  62.937  1.00  0.00    -0.351 A  
HETATM    9  C   UNL     1     -10.310  11.938  65.191  1.00  0.00    -0.277 A  
HETATM   10  C   UNL     1      -9.896  10.707  65.710  1.00  0.00    -0.296 A  
HETATM   11  C   UNL     1      -9.458   9.726  64.785  1.00  0.00    -0.318 A  
HETATM   12  C   UNL     1     -10.248  12.225  63.813  1.00  0.00    -0.427 A  
BRANCH   5  13
HETATM   13  C   UNL     1     -10.810  12.697  68.689  1.00  0.00    -0.281 C  
HETATM   14  C   UNL     1     -11.895  12.382  69.415  1.00  0.00    -0.365 C  
BRANCH  14  15
HETATM   15  C   UNL     1     -12.221  13.000  70.746  1.00  0.00    -0.272 C  
HETATM   16  H   UNL     1     -13.380  12.531  72.205  1.00  0.00     0.000 HD 
HETATM   17  O   UNL     1     -13.174  12.140  71.364  1.00  0.00    -0.276 OA 
BRANCH  15  18
HETATM   18  C   UNL     1     -12.776  14.423  70.589  1.00  0.00    -0.421 C  
BRANCH  18  19
HETATM   19  C   UNL     1     -11.686  15.486  70.356  1.00  0.00    -0.339 C  
HETATM   20  O   UNL     1     -11.806  16.539  71.326  1.00  0.00    -0.626 OA 
HETATM   21  H   UNL     1     -11.133  17.195  71.182  1.00  0.00     0.000 HD 
BRANCH  19  22
HETATM   22  C   UNL     1     -11.749  16.104  68.961  1.00  0.00    -0.254 C  
HETATM   23  C   UNL     1     -10.631  17.070  68.637  1.00  0.00    -0.362 C  
HETATM   24  O   UNL     1      -9.424  16.732  69.138  1.00  0.00    -0.243 OA 
HETATM   25  O   UNL     1     -10.785  18.038  67.906  1.00  0.00    -0.395 OA 
ENDBRANCH  19  22
ENDBRANCH  18  19
ENDBRANCH  15  18
ENDBRANCH  14  15
ENDBRANCH   5  13
BRANCH   7  26
HETATM   26  C   UNL     1      -9.659   9.753  68.162  1.00  0.00    -0.158 A  
HETATM   27  C   UNL     1      -8.223   9.022  70.006  1.00  0.00    -0.128 A  
HETATM   28  C   UNL     1     -10.107   7.668  69.367  1.00  0.00    -0.196 A  
HETATM   29  C   UNL     1      -9.020   7.903  70.192  1.00  0.00    -0.151 A  
HETATM   30  C   UNL     1      -8.554   9.948  69.010  1.00  0.00    -0.149 A  
HETATM   31  C   UNL     1     -10.404   8.573  68.340  1.00  0.00    -0.241 A  
HETATM   32  F   UNL     1      -8.740   7.046  71.182  1.00  0.00    -0.132 F  
ENDBRANCH   7  26
ENDBRANCH   2   4
TORSDOF 7
ENDMDL
MODEL       43
REMARK 921   NORMALIZED FREE ENERGY PREDICTED BY IDOCK:   -6.37 KCAL/MOL
REMARK 922        TOTAL FREE ENERGY PREDICTED BY IDOCK:  -10.69 KCAL/MOL
REMARK 923 INTER-LIGAND FREE ENERGY PREDICTED BY IDOCK:   -9.33 KCAL/MOL
REMARK 924 INTRA-LIGAND FREE ENERGY PREDICTED BY IDOCK:   -1.36 KCAL/MOL
REMARK 927      BINDING AFFINITY PREDICTED BY RF-SCORE:    0.00 PKD
ROOT
HETATM    1  C   UNL     1     -13.300  11.586  71.902  1.00  0.00    -0.408 C  
HETATM    2  C   UNL     1     -12.931  10.099  71.947  1.00  0.00    -0.447 C  
HETATM    3  C   UNL     1     -14.050   9.147  71.521  1.00  0.00    -0.253 C  
ENDROOT
BRANCH   2   4
HETATM    4  N   UNL     1     -11.637   9.773  71.334  1.00  0.00    -0.382 NA 
HETATM    5  C   UNL     1     -11.046  10.352  70.216  1.00  0.00    -0.307 A  
HETATM    6  C   UNL     1      -8.812   6.974  72.530  1.00  0.00    -0.139 A  
HETATM    7  C   UNL     1      -9.753   9.818  70.089  1.00  0.00    -0.299 A  
HETATM    8  C   UNL     1     -10.024   6.937  73.199  1.00  0.00    -0.227 A  
HETATM    9  C   UNL     1     -10.819   8.767  71.833  1.00  0.00    -0.360 A  
HETATM   10  C   UNL     1      -9.619   8.807  71.115  1.00  0.00    -0.309 A  
HETATM   11  C   UNL     1      -8.596   7.908  71.508  1.00  0.00    -0.144 A  
HETATM   12  C   UNL     1     -11.037   7.838  72.870  1.00  0.00    -0.457 A  
BRANCH   5  13
HETATM   13  C   UNL     1     -11.751  11.350  69.485  1.00  0.00    -0.417 C  
HETATM   14  C   UNL     1     -11.267  12.592  69.319  1.00  0.00    -0.255 C  
BRANCH  14  15
HETATM   15  C   UNL     1     -11.953  13.658  68.509  1.00  0.00    -0.361 C  
HETATM   16  H   UNL     1     -11.652  14.444  66.783  1.00  0.00     0.000 HD 
HETATM   17  O   UNL     1     -11.218  13.771  67.294  1.00  0.00    -0.293 OA 
BRANCH  15  18
HETATM   18  C   UNL     1     -11.997  14.998  69.259  1.00  0.00    -0.322 C  
BRANCH  18  19
HETATM   19  C   UNL     1     -12.662  14.905  70.644  1.00  0.00    -0.367 C  
HETATM   20  O   UNL     1     -13.854  15.707  70.677  1.00  0.00    -0.840 OA 
HETATM   21  H   UNL     1     -14.265  15.649  71.531  1.00  0.00     0.000 HD 
BRANCH  19  22
HETATM   22  C   UNL     1     -11.743  15.361  71.775  1.00  0.00    -0.489 C  
HETATM   23  C   UNL     1     -12.424  15.574  73.109  1.00  0.00    -0.460 C  
HETATM   24  O   UNL     1     -13.407  14.693  73.393  1.00  0.00    -0.563 OA 
HETATM   25  O   UNL     1     -12.059  16.423  73.909  1.00  0.00    -0.446 OA 
ENDBRANCH  19  22
ENDBRANCH  18  19
ENDBRANCH  15  18
ENDBRANCH  14  15
ENDBRANCH   5  13
BRANCH   7  26
HETATM   26  C   UNL     1      -8.794  10.204  69.031  1.00  0.00    -0.166 A  
HETATM   27  C   UNL     1      -6.689  11.264  68.363  1.00  0.00    -0.061 A  
HETATM   28  C   UNL     1      -8.016  10.128  66.709  1.00  0.00    -0.115 A  
HETATM   29  C   UNL     1      -6.877  10.834  67.060  1.00  0.00    -0.094 A  
HETATM   30  C   UNL     1      -7.632  10.932  69.344  1.00  0.00    -0.097 A  
HETATM   31  C   UNL     1      -8.981   9.843  67.683  1.00  0.00    -0.133 A  
HETATM   32  F   UNL     1      -5.948  11.098  66.132  1.00  0.00    -0.116 F  
ENDBRANCH   7  26
ENDBRANCH   2   4
TORSDOF 7
ENDMDL
MODEL       44
REMARK 921   NORMALIZED FREE ENERGY PREDICTED BY IDOCK:   -6.36 KCAL/MOL
REMARK 922        TOTAL FREE ENERGY PREDICTED BY IDOCK:  -10.67 KCAL/MOL
REMARK 923 INTER-LIGAND FREE ENERGY PREDICTED BY IDOCK:   -8.31 KCAL/MOL
REMARK 924 INTRA-LIGAND FREE ENERGY PREDICTED BY IDOCK:   -2.36 KCAL/MOL
REMARK 927      BINDING AFFINITY PREDICTED BY RF-SCORE:    0.00 PKD
ROOT
HETATM    1  C   UNL     1      -5.228  17.589  67.243  1.00  0.00    -0.153 C  
HETATM    2  C   UNL     1      -6.375  17.201  68.181  1.00  0.00    -0.146 C  
HETATM    3  C   UNL     1      -6.432  17.994  69.488  1.00  0.00    -0.185 C  
ENDROOT
BRANCH   2   4
HETATM    4  N   UNL     1      -7.685  17.084  67.526  1.00  0.00    -0.167 NA 
HETATM    5  C   UNL     1      -8.351  15.925  67.139  1.00  0.00    -0.202 A  
HETATM    6  C   UNL     1     -10.341  20.085  66.440  1.00  0.00    -0.573 A  
HETATM    7  C   UNL     1      -9.627  16.296  66.684  1.00  0.00    -0.264 A  
HETATM    8  C   UNL     1      -9.097  20.506  66.882  1.00  0.00    -0.364 A  
HETATM    9  C   UNL     1      -8.439  18.199  67.183  1.00  0.00    -0.243 A  
HETATM   10  C   UNL     1      -9.673  17.741  66.709  1.00  0.00    -0.309 A  
HETATM   11  C   UNL     1     -10.641  18.719  66.367  1.00  0.00    -0.429 A  
HETATM   12  C   UNL     1      -8.137  19.573  67.270  1.00  0.00    -0.307 A  
BRANCH   5  13
HETATM   13  C   UNL     1      -7.720  14.660  67.311  1.00  0.00    -0.198 C  
HETATM   14  C   UNL     1      -7.911  13.909  68.408  1.00  0.00    -0.138 C  
BRANCH  14  15
HETATM   15  C   UNL     1      -7.308  12.545  68.605  1.00  0.00    -0.099 C  
HETATM   16  H   UNL     1      -5.792  11.866  69.568  1.00  0.00     0.000 HD 
HETATM   17  O   UNL     1      -6.172  12.728  69.444  1.00  0.00    -0.098 OA 
BRANCH  15  18
HETATM   18  C   UNL     1      -6.913  11.903  67.267  1.00  0.00    -0.145 C  
BRANCH  18  19
HETATM   19  C   UNL     1      -7.911  10.835  66.780  1.00  0.00    -0.135 C  
HETATM   20  O   UNL     1      -7.254   9.906  65.903  1.00  0.00    -0.098 OA 
HETATM   21  H   UNL     1      -7.869   9.248  65.603  1.00  0.00     0.000 HD 
BRANCH  19  22
HETATM   22  C   UNL     1      -9.106  11.434  66.041  1.00  0.00    -0.218 C  
HETATM   23  C   UNL     1      -9.952  10.439  65.279  1.00  0.00    -0.309 C  
HETATM   24  O   UNL     1     -10.103   9.240  65.882  1.00  0.00    -0.293 OA 
HETATM   25  O   UNL     1     -10.531  10.722  64.240  1.00  0.00    -0.367 OA 
ENDBRANCH  19  22
ENDBRANCH  18  19
ENDBRANCH  15  18
ENDBRANCH  14  15
ENDBRANCH   5  13
BRANCH   7  26
HETATM   26  C   UNL     1     -10.650  15.340  66.208  1.00  0.00    -0.312 A  
HETATM   27  C   UNL     1     -11.893  14.309  64.365  1.00  0.00    -0.444 A  
HETATM   28  C   UNL     1     -12.226  13.507  66.609  1.00  0.00    -0.411 A  
HETATM   29  C   UNL     1     -12.495  13.432  65.252  1.00  0.00    -0.483 A  
HETATM   30  C   UNL     1     -10.963  15.242  64.840  1.00  0.00    -0.445 A  
HETATM   31  C   UNL     1     -11.333  14.476  67.084  1.00  0.00    -0.361 A  
HETATM   32  F   UNL     1     -13.340  12.500  64.794  1.00  0.00    -0.410 F  
ENDBRANCH   7  26
ENDBRANCH   2   4
TORSDOF 7
ENDMDL
MODEL       45
REMARK 921   NORMALIZED FREE ENERGY PREDICTED BY IDOCK:   -6.36 KCAL/MOL
REMARK 922        TOTAL FREE ENERGY PREDICTED BY IDOCK:  -10.67 KCAL/MOL
REMARK 923 INTER-LIGAND FREE ENERGY PREDICTED BY IDOCK:   -9.11 KCAL/MOL
REMARK 924 INTRA-LIGAND FREE ENERGY PREDICTED BY IDOCK:   -1.55 KCAL/MOL
REMARK 927      BINDING AFFINITY PREDICTED BY RF-SCORE:    0.00 PKD
ROOT
HETATM    1  C   UNL     1     -12.742  13.571  65.287  1.00  0.00    -0.481 C  
HETATM    2  C   UNL     1     -11.256  13.261  65.073  1.00  0.00    -0.305 C  
HETATM    3  C   UNL     1     -10.335  14.481  65.100  1.00  0.00    -0.438 C  
ENDROOT
BRANCH   2   4
HETATM    4  N   UNL     1     -10.746  12.140  65.875  1.00  0.00    -0.257 NA 
HETATM    5  C   UNL     1     -10.853  11.948  67.249  1.00  0.00    -0.247 A  
HETATM    6  C   UNL     1      -8.707   8.747  64.621  1.00  0.00    -0.103 A  
HETATM    7  C   UNL     1     -10.342  10.673  67.544  1.00  0.00    -0.254 A  
HETATM    8  C   UNL     1      -8.908   9.725  63.660  1.00  0.00    -0.258 A  
HETATM    9  C   UNL     1     -10.035  11.092  65.305  1.00  0.00    -0.266 A  
HETATM   10  C   UNL     1      -9.819  10.139  66.306  1.00  0.00    -0.288 A  
HETATM   11  C   UNL     1      -9.170   8.936  65.929  1.00  0.00    -0.290 A  
HETATM   12  C   UNL     1      -9.583  10.901  63.984  1.00  0.00    -0.321 A  
BRANCH   5  13
HETATM   13  C   UNL     1     -11.468  12.949  68.053  1.00  0.00    -0.361 C  
HETATM   14  C   UNL     1     -10.763  13.720  68.899  1.00  0.00    -0.249 C  
BRANCH  14  15
HETATM   15  C   UNL     1     -11.364  14.824  69.724  1.00  0.00    -0.283 C  
HETATM   16  H   UNL     1     -12.940  14.994  70.809  1.00  0.00     0.000 HD 
HETATM   17  O   UNL     1     -12.561  14.296  70.287  1.00  0.00    -0.348 OA 
BRANCH  15  18
HETATM   18  C   UNL     1     -11.652  16.072  68.876  1.00  0.00    -0.354 C  
BRANCH  18  19
HETATM   19  C   UNL     1     -10.422  16.976  68.677  1.00  0.00    -0.363 C  
HETATM   20  O   UNL     1     -10.486  18.103  69.566  1.00  0.00    -0.346 OA 
HETATM   21  H   UNL     1      -9.727  18.661  69.443  1.00  0.00     0.000 HD 
BRANCH  19  22
HETATM   22  C   UNL     1     -10.295  17.497  67.246  1.00  0.00    -0.337 C  
HETATM   23  C   UNL     1      -9.223  18.544  67.038  1.00  0.00    -0.284 C  
HETATM   24  O   UNL     1      -8.097  18.356  67.758  1.00  0.00    -0.247 OA 
HETATM   25  O   UNL     1      -9.329  19.444  66.218  1.00  0.00    -0.348 OA 
ENDBRANCH  19  22
ENDBRANCH  18  19
ENDBRANCH  15  18
ENDBRANCH  14  15
ENDBRANCH   5  13
BRANCH   7  26
HETATM   26  C   UNL     1     -10.304  10.087  68.902  1.00  0.00    -0.217 A  
HETATM   27  C   UNL     1      -9.055   8.993  70.703  1.00  0.00    -0.280 A  
HETATM   28  C   UNL     1     -11.345   9.632  71.072  1.00  0.00    -0.444 A  
HETATM   29  C   UNL     1     -10.159   9.085  71.534  1.00  0.00    -0.339 A  
HETATM   30  C   UNL     1      -9.124   9.509  69.403  1.00  0.00    -0.172 A  
HETATM   31  C   UNL     1     -11.423  10.101  69.755  1.00  0.00    -0.288 A  
HETATM   32  F   UNL     1     -10.078   8.646  72.797  1.00  0.00    -0.343 F  
ENDBRANCH   7  26
ENDBRANCH   2   4
TORSDOF 7
ENDMDL
MODEL       46
REMARK 921   NORMALIZED FREE ENERGY PREDICTED BY IDOCK:   -6.35 KCAL/MOL
REMARK 922        TOTAL FREE ENERGY PREDICTED BY IDOCK:  -10.65 KCAL/MOL
REMARK 923 INTER-LIGAND FREE ENERGY PREDICTED BY IDOCK:   -9.28 KCAL/MOL
REMARK 924 INTRA-LIGAND FREE ENERGY PREDICTED BY IDOCK:   -1.37 KCAL/MOL
REMARK 927      BINDING AFFINITY PREDICTED BY RF-SCORE:    0.00 PKD
ROOT
HETATM    1  C   UNL     1      -9.435  11.518  68.506  1.00  0.00    -0.175 C  
HETATM    2  C   UNL     1     -10.747  10.885  68.979  1.00  0.00    -0.224 C  
HETATM    3  C   UNL     1     -12.004  11.420  68.292  1.00  0.00    -0.234 C  
ENDROOT
BRANCH   2   4
HETATM    4  N   UNL     1     -10.720   9.418  69.063  1.00  0.00    -0.214 NA 
HETATM    5  C   UNL     1     -10.467   8.504  68.044  1.00  0.00    -0.191 A  
HETATM    6  C   UNL     1     -11.299   6.979  72.373  1.00  0.00    -0.307 A  
HETATM    7  C   UNL     1     -10.408   7.225  68.621  1.00  0.00    -0.208 A  
HETATM    8  C   UNL     1     -11.562   8.327  72.558  1.00  0.00    -0.454 A  
HETATM    9  C   UNL     1     -10.983   8.744  70.248  1.00  0.00    -0.235 A  
HETATM   10  C   UNL     1     -10.743   7.385  70.019  1.00  0.00    -0.258 A  
HETATM   11  C   UNL     1     -10.878   6.506  71.124  1.00  0.00    -0.296 A  
HETATM   12  C   UNL     1     -11.396   9.226  71.507  1.00  0.00    -0.455 A  
BRANCH   5  13
HETATM   13  C   UNL     1     -10.260   8.972  66.715  1.00  0.00    -0.341 C  
HETATM   14  C   UNL     1      -9.073   8.863  66.095  1.00  0.00    -0.251 C  
BRANCH  14  15
HETATM   15  C   UNL     1      -8.827   9.292  64.676  1.00  0.00    -0.178 C  
HETATM   16  H   UNL     1      -7.318   9.231  63.488  1.00  0.00     0.000 HD 
HETATM   17  O   UNL     1      -7.473   8.959  64.386  1.00  0.00    -0.100 OA 
BRANCH  15  18
HETATM   18  C   UNL     1      -9.082  10.795  64.487  1.00  0.00    -0.220 C  
BRANCH  18  19
HETATM   19  C   UNL     1     -10.511  11.122  64.016  1.00  0.00    -0.383 C  
HETATM   20  O   UNL     1     -10.617  10.945  62.594  1.00  0.00    -0.761 OA 
HETATM   21  H   UNL     1     -11.499  11.146  62.304  1.00  0.00     0.000 HD 
BRANCH  19  22
HETATM   22  C   UNL     1     -10.937  12.549  64.358  1.00  0.00    -0.378 C  
HETATM   23  C   UNL     1     -12.225  13.006  63.711  1.00  0.00    -0.460 C  
HETATM   24  O   UNL     1     -13.179  12.056  63.610  1.00  0.00    -0.737 OA 
HETATM   25  O   UNL     1     -12.424  14.166  63.383  1.00  0.00    -0.797 OA 
ENDBRANCH  19  22
ENDBRANCH  18  19
ENDBRANCH  15  18
ENDBRANCH  14  15
ENDBRANCH   5  13
BRANCH   7  26
HETATM   26  C   UNL     1     -10.131   5.984  67.866  1.00  0.00    -0.183 A  
HETATM   27  C   UNL     1     -10.455   4.602  65.869  1.00  0.00    -0.305 A  
HETATM   28  C   UNL     1      -8.909   3.883  67.566  1.00  0.00    -0.135 A  
HETATM   29  C   UNL     1      -9.519   3.694  66.337  1.00  0.00    -0.168 A  
HETATM   30  C   UNL     1     -10.742   5.748  66.621  1.00  0.00    -0.333 A  
HETATM   31  C   UNL     1      -9.237   5.004  68.337  1.00  0.00    -0.150 A  
HETATM   32  F   UNL     1      -9.199   2.627  65.594  1.00  0.00    -0.145 F  
ENDBRANCH   7  26
ENDBRANCH   2   4
TORSDOF 7
ENDMDL
MODEL       47
REMARK 921   NORMALIZED FREE ENERGY PREDICTED BY IDOCK:   -6.34 KCAL/MOL
REMARK 922        TOTAL FREE ENERGY PREDICTED BY IDOCK:  -10.64 KCAL/MOL
REMARK 923 INTER-LIGAND FREE ENERGY PREDICTED BY IDOCK:   -9.47 KCAL/MOL
REMARK 924 INTRA-LIGAND FREE ENERGY PREDICTED BY IDOCK:   -1.17 KCAL/MOL
REMARK 927      BINDING AFFINITY PREDICTED BY RF-SCORE:    0.00 PKD
ROOT
HETATM    1  C   UNL     1     -11.836   8.614  72.216  1.00  0.00    -0.436 C  
HETATM    2  C   UNL     1     -10.590   9.156  71.508  1.00  0.00    -0.358 C  
HETATM    3  C   UNL     1      -9.263   8.605  72.031  1.00  0.00    -0.338 C  
ENDROOT
BRANCH   2   4
HETATM    4  N   UNL     1     -10.673   9.152  70.041  1.00  0.00    -0.226 NA 
HETATM    5  C   UNL     1     -10.818  10.240  69.186  1.00  0.00    -0.233 A  
HETATM    6  C   UNL     1     -10.461   5.937  67.421  1.00  0.00    -0.311 A  
HETATM    7  C   UNL     1     -10.707   9.767  67.868  1.00  0.00    -0.312 A  
HETATM    8  C   UNL     1     -10.532   5.620  68.768  1.00  0.00    -0.289 A  
HETATM    9  C   UNL     1     -10.632   7.975  69.305  1.00  0.00    -0.184 A  
HETATM   10  C   UNL     1     -10.595   8.328  67.952  1.00  0.00    -0.212 A  
HETATM   11  C   UNL     1     -10.474   7.275  67.009  1.00  0.00    -0.398 A  
HETATM   12  C   UNL     1     -10.606   6.630  69.726  1.00  0.00    -0.270 A  
BRANCH   5  13
HETATM   13  C   UNL     1     -10.974  11.547  69.730  1.00  0.00    -0.055 C  
HETATM   14  C   UNL     1     -12.140  11.975  70.241  1.00  0.00    -0.395 C  
BRANCH  14  15
HETATM   15  C   UNL     1     -12.332  13.325  70.874  1.00  0.00    -0.329 C  
HETATM   16  H   UNL     1     -13.641  14.089  72.054  1.00  0.00     0.000 HD 
HETATM   17  O   UNL     1     -13.520  13.236  71.654  1.00  0.00    -0.352 OA 
BRANCH  15  18
HETATM   18  C   UNL     1     -12.443  14.435  69.818  1.00  0.00    -0.262 C  
BRANCH  18  19
HETATM   19  C   UNL     1     -11.080  14.992  69.367  1.00  0.00    -0.278 C  
HETATM   20  O   UNL     1     -10.265  15.296  70.511  1.00  0.00    -0.478 OA 
HETATM   21  H   UNL     1      -9.424  15.639  70.233  1.00  0.00     0.000 HD 
BRANCH  19  22
HETATM   22  C   UNL     1     -11.207  16.254  68.516  1.00  0.00    -0.359 C  
HETATM   23  C   UNL     1     -10.110  17.275  68.716  1.00  0.00    -0.337 C  
HETATM   24  O   UNL     1      -8.880  16.757  68.919  1.00  0.00    -0.258 OA 
HETATM   25  O   UNL     1     -10.301  18.479  68.616  1.00  0.00    -0.357 OA 
ENDBRANCH  19  22
ENDBRANCH  18  19
ENDBRANCH  15  18
ENDBRANCH  14  15
ENDBRANCH   5  13
BRANCH   7  26
HETATM   26  C   UNL     1     -10.781  10.627  66.667  1.00  0.00    -0.246 A  
HETATM   27  C   UNL     1     -10.086  11.126  64.371  1.00  0.00    -0.377 A  
HETATM   28  C   UNL     1     -11.783  12.477  65.412  1.00  0.00    -0.444 A  
HETATM   29  C   UNL     1     -11.001  12.165  64.312  1.00  0.00    -0.339 A  
HETATM   30  C   UNL     1      -9.993  10.352  65.535  1.00  0.00    -0.348 A  
HETATM   31  C   UNL     1     -11.650  11.732  66.590  1.00  0.00    -0.273 A  
HETATM   32  F   UNL     1     -11.134  12.869  63.181  1.00  0.00    -0.418 F  
ENDBRANCH   7  26
ENDBRANCH   2   4
TORSDOF 7
ENDMDL
MODEL       48
REMARK 921   NORMALIZED FREE ENERGY PREDICTED BY IDOCK:   -6.34 KCAL/MOL
REMARK 922        TOTAL FREE ENERGY PREDICTED BY IDOCK:  -10.64 KCAL/MOL
REMARK 923 INTER-LIGAND FREE ENERGY PREDICTED BY IDOCK:   -8.92 KCAL/MOL
REMARK 924 INTRA-LIGAND FREE ENERGY PREDICTED BY IDOCK:   -1.71 KCAL/MOL
REMARK 927      BINDING AFFINITY PREDICTED BY RF-SCORE:    0.00 PKD
ROOT
HETATM    1  C   UNL     1     -12.004  14.393  66.870  1.00  0.00    -0.425 C  
HETATM    2  C   UNL     1     -11.032  14.041  68.001  1.00  0.00    -0.251 C  
HETATM    3  C   UNL     1     -10.230  15.221  68.549  1.00  0.00    -0.224 C  
ENDROOT
BRANCH   2   4
HETATM    4  N   UNL     1     -11.607  13.198  69.058  1.00  0.00    -0.292 NA 
HETATM    5  C   UNL     1     -11.597  11.810  69.150  1.00  0.00    -0.310 A  
HETATM    6  C   UNL     1     -13.581  14.344  72.527  1.00  0.00    -0.598 A  
HETATM    7  C   UNL     1     -12.139  11.459  70.399  1.00  0.00    -0.473 A  
HETATM    8  C   UNL     1     -13.306  15.356  71.622  1.00  0.00    -0.578 A  
HETATM    9  C   UNL     1     -12.285  13.739  70.143  1.00  0.00    -0.356 A  
HETATM   10  C   UNL     1     -12.578  12.689  71.020  1.00  0.00    -0.354 A  
HETATM   11  C   UNL     1     -13.210  13.023  72.245  1.00  0.00    -0.539 A  
HETATM   12  C   UNL     1     -12.645  15.072  70.428  1.00  0.00    -0.399 A  
BRANCH   5  13
HETATM   13  C   UNL     1     -11.032  11.038  68.095  1.00  0.00    -0.301 C  
HETATM   14  C   UNL     1      -9.724  10.738  68.050  1.00  0.00    -0.174 C  
BRANCH  14  15
HETATM   15  C   UNL     1      -9.098   9.881  66.985  1.00  0.00    -0.138 C  
HETATM   16  H   UNL     1      -9.492   9.516  65.141  1.00  0.00     0.000 HD 
HETATM   17  O   UNL     1      -9.889  10.057  65.813  1.00  0.00    -0.240 OA 
BRANCH  15  18
HETATM   18  C   UNL     1      -9.047   8.404  67.404  1.00  0.00    -0.152 C  
BRANCH  18  19
HETATM   19  C   UNL     1      -8.276   7.511  66.414  1.00  0.00    -0.122 C  
HETATM   20  O   UNL     1      -9.045   7.320  65.216  1.00  0.00    -0.364 OA 
HETATM   21  H   UNL     1      -8.569   6.769  64.606  1.00  0.00     0.000 HD 
BRANCH  19  22
HETATM   22  C   UNL     1      -7.937   6.139  66.994  1.00  0.00    -0.102 C  
HETATM   23  C   UNL     1      -7.412   5.133  65.995  1.00  0.00    -0.082 C  
HETATM   24  O   UNL     1      -6.605   5.646  65.041  1.00  0.00    -0.040 OA 
HETATM   25  O   UNL     1      -7.626   3.933  66.090  1.00  0.00    -0.086 OA 
ENDBRANCH  19  22
ENDBRANCH  18  19
ENDBRANCH  15  18
ENDBRANCH  14  15
ENDBRANCH   5  13
BRANCH   7  26
HETATM   26  C   UNL     1     -12.277  10.069  70.885  1.00  0.00    -0.441 A  
HETATM   27  C   UNL     1     -11.253   7.997  71.698  1.00  0.00    -0.301 A  
HETATM   28  C   UNL     1     -13.651   8.188  71.640  1.00  0.00    -0.382 A  
HETATM   29  C   UNL     1     -12.509   7.465  71.943  1.00  0.00    -0.302 A  
HETATM   30  C   UNL     1     -11.141   9.298  71.190  1.00  0.00    -0.411 A  
HETATM   31  C   UNL     1     -13.533   9.468  71.086  1.00  0.00    -0.280 A  
HETATM   32  F   UNL     1     -12.619   6.245  72.484  1.00  0.00    -0.207 F  
ENDBRANCH   7  26
ENDBRANCH   2   4
TORSDOF 7
ENDMDL
MODEL       49
REMARK 921   NORMALIZED FREE ENERGY PREDICTED BY IDOCK:   -6.30 KCAL/MOL
REMARK 922        TOTAL FREE ENERGY PREDICTED BY IDOCK:  -10.59 KCAL/MOL
REMARK 923 INTER-LIGAND FREE ENERGY PREDICTED BY IDOCK:   -8.22 KCAL/MOL
REMARK 924 INTRA-LIGAND FREE ENERGY PREDICTED BY IDOCK:   -2.36 KCAL/MOL
REMARK 927      BINDING AFFINITY PREDICTED BY RF-SCORE:    0.00 PKD
ROOT
HETATM    1  C   UNL     1      -9.363  14.124  68.406  1.00  0.00    -0.208 C  
HETATM    2  C   UNL     1     -10.435  13.038  68.544  1.00  0.00    -0.249 C  
HETATM    3  C   UNL     1     -11.874  13.554  68.575  1.00  0.00    -0.398 C  
ENDROOT
BRANCH   2   4
HETATM    4  N   UNL     1     -10.258  11.890  67.644  1.00  0.00    -0.198 NA 
HETATM    5  C   UNL     1      -9.975  10.570  67.981  1.00  0.00    -0.155 A  
HETATM    6  C   UNL     1     -10.545  11.749  63.504  1.00  0.00    -0.499 A  
HETATM    7  C   UNL     1     -10.037   9.805  66.804  1.00  0.00    -0.295 A  
HETATM    8  C   UNL     1     -10.585  13.011  64.073  1.00  0.00    -0.371 A  
HETATM    9  C   UNL     1     -10.341  12.018  66.263  1.00  0.00    -0.221 A  
HETATM   10  C   UNL     1     -10.263  10.732  65.718  1.00  0.00    -0.319 A  
HETATM   11  C   UNL     1     -10.403  10.614  64.312  1.00  0.00    -0.325 A  
HETATM   12  C   UNL     1     -10.496  13.163  65.456  1.00  0.00    -0.297 A  
BRANCH   5  13
HETATM   13  C   UNL     1      -9.755  10.223  69.345  1.00  0.00    -0.242 C  
HETATM   14  C   UNL     1     -10.716   9.674  70.107  1.00  0.00    -0.321 C  
BRANCH  14  15
HETATM   15  C   UNL     1     -10.509   9.243  71.532  1.00  0.00    -0.315 C  
HETATM   16  H   UNL     1      -8.982   8.738  72.582  1.00  0.00     0.000 HD 
HETATM   17  O   UNL     1      -9.112   9.010  71.681  1.00  0.00    -0.300 OA 
BRANCH  15  18
HETATM   18  C   UNL     1     -11.322   7.983  71.866  1.00  0.00    -0.336 C  
BRANCH  18  19
HETATM   19  C   UNL     1     -11.415   6.985  70.697  1.00  0.00    -0.324 C  
HETATM   20  O   UNL     1     -12.785   6.814  70.298  1.00  0.00    -0.474 OA 
HETATM   21  H   UNL     1     -12.842   6.199  69.577  1.00  0.00     0.000 HD 
BRANCH  19  22
HETATM   22  C   UNL     1     -10.837   5.613  71.041  1.00  0.00    -0.289 C  
HETATM   23  C   UNL     1      -9.641   5.196  70.215  1.00  0.00    -0.184 C  
HETATM   24  O   UNL     1      -8.787   6.195  69.905  1.00  0.00    -0.137 OA 
HETATM   25  O   UNL     1      -9.414   4.031  69.923  1.00  0.00    -0.160 OA 
ENDBRANCH  19  22
ENDBRANCH  18  19
ENDBRANCH  15  18
ENDBRANCH  14  15
ENDBRANCH   5  13
BRANCH   7  26
HETATM   26  C   UNL     1      -9.820   8.343  66.751  1.00  0.00    -0.329 A  
HETATM   27  C   UNL     1     -10.695   6.062  66.935  1.00  0.00    -0.407 A  
HETATM   28  C   UNL     1      -8.412   6.400  66.257  1.00  0.00    -0.131 A  
HETATM   29  C   UNL     1      -9.474   5.553  66.523  1.00  0.00    -0.151 A  
HETATM   30  C   UNL     1     -10.869   7.449  67.028  1.00  0.00    -0.307 A  
HETATM   31  C   UNL     1      -8.577   7.783  66.400  1.00  0.00    -0.153 A  
HETATM   32  F   UNL     1      -9.322   4.230  66.375  1.00  0.00    -0.128 F  
ENDBRANCH   7  26
ENDBRANCH   2   4
TORSDOF 7
ENDMDL
MODEL       50
REMARK 921   NORMALIZED FREE ENERGY PREDICTED BY IDOCK:   -6.29 KCAL/MOL
REMARK 922        TOTAL FREE ENERGY PREDICTED BY IDOCK:  -10.57 KCAL/MOL
REMARK 923 INTER-LIGAND FREE ENERGY PREDICTED BY IDOCK:   -9.17 KCAL/MOL
REMARK 924 INTRA-LIGAND FREE ENERGY PREDICTED BY IDOCK:   -1.40 KCAL/MOL
REMARK 927      BINDING AFFINITY PREDICTED BY RF-SCORE:    0.00 PKD
ROOT
HETATM    1  C   UNL     1     -10.394   8.113  66.760  1.00  0.00    -0.361 C  
HETATM    2  C   UNL     1      -9.604   9.298  67.324  1.00  0.00    -0.155 C  
HETATM    3  C   UNL     1      -8.371   9.694  66.511  1.00  0.00    -0.120 C  
ENDROOT
BRANCH   2   4
HETATM    4  N   UNL     1     -10.429  10.451  67.712  1.00  0.00    -0.209 NA 
HETATM    5  C   UNL     1     -10.874  10.800  68.983  1.00  0.00    -0.235 A  
HETATM    6  C   UNL     1     -11.945  13.496  65.330  1.00  0.00    -0.406 A  
HETATM    7  C   UNL     1     -11.507  12.050  68.887  1.00  0.00    -0.356 A  
HETATM    8  C   UNL     1     -11.348  12.441  64.660  1.00  0.00    -0.364 A  
HETATM    9  C   UNL     1     -10.901  11.365  66.778  1.00  0.00    -0.286 A  
HETATM   10  C   UNL     1     -11.526  12.399  67.483  1.00  0.00    -0.410 A  
HETATM   11  C   UNL     1     -12.022  13.492  66.729  1.00  0.00    -0.453 A  
HETATM   12  C   UNL     1     -10.809  11.371  65.372  1.00  0.00    -0.292 A  
BRANCH   5  13
HETATM   13  C   UNL     1     -10.584   9.950  70.088  1.00  0.00    -0.350 C  
HETATM   14  C   UNL     1     -11.279   8.826  70.327  1.00  0.00    -0.212 C  
BRANCH  14  15
HETATM   15  C   UNL     1     -10.971   7.873  71.449  1.00  0.00    -0.232 C  
HETATM   16  H   UNL     1     -12.030   6.798  72.637  1.00  0.00     0.000 HD 
HETATM   17  O   UNL     1     -12.226   7.400  71.928  1.00  0.00    -0.297 OA 
BRANCH  15  18
HETATM   18  C   UNL     1     -10.171   8.557  72.568  1.00  0.00    -0.323 C  
BRANCH  18  19
HETATM   19  C   UNL     1      -8.997   7.707  73.091  1.00  0.00    -0.191 C  
HETATM   20  O   UNL     1      -8.139   8.506  73.922  1.00  0.00    -0.375 OA 
HETATM   21  H   UNL     1      -7.415   7.982  74.244  1.00  0.00     0.000 HD 
BRANCH  19  22
HETATM   22  C   UNL     1      -8.156   7.104  71.967  1.00  0.00    -0.100 C  
HETATM   23  C   UNL     1      -7.594   8.102  70.981  1.00  0.00    -0.083 C  
HETATM   24  O   UNL     1      -7.201   9.276  71.520  1.00  0.00    -0.308 OA 
HETATM   25  O   UNL     1      -7.425   7.840  69.799  1.00  0.00    -0.085 OA 
ENDBRANCH  19  22
ENDBRANCH  18  19
ENDBRANCH  15  18
ENDBRANCH  14  15
ENDBRANCH   5  13
BRANCH   7  26
HETATM   26  C   UNL     1     -12.094  12.776  70.034  1.00  0.00    -0.355 A  
HETATM   27  C   UNL     1     -12.634  14.886  71.155  1.00  0.00    -0.404 A  
HETATM   28  C   UNL     1     -13.385  12.812  72.116  1.00  0.00    -0.593 A  
HETATM   29  C   UNL     1     -13.324  14.196  72.139  1.00  0.00    -0.436 A  
HETATM   30  C   UNL     1     -12.041  14.180  70.101  1.00  0.00    -0.411 A  
HETATM   31  C   UNL     1     -12.747  12.108  71.087  1.00  0.00    -0.351 A  
HETATM   32  F   UNL     1     -13.942  14.871  73.115  1.00  0.00    -0.418 F  
ENDBRANCH   7  26
ENDBRANCH   2   4
TORSDOF 7
ENDMDL
MODEL       51
REMARK 921   NORMALIZED FREE ENERGY PREDICTED BY IDOCK:   -6.27 KCAL/MOL
REMARK 922        TOTAL FREE ENERGY PREDICTED BY IDOCK:  -10.55 KCAL/MOL
REMARK 923 INTER-LIGAND FREE ENERGY PREDICTED BY IDOCK:   -9.98 KCAL/MOL
REMARK 924 INTRA-LIGAND FREE ENERGY PREDICTED BY IDOCK:   -0.57 KCAL/MOL
REMARK 927      BINDING AFFINITY PREDICTED BY RF-SCORE:    0.00 PKD
ROOT
HETATM    1  C   UNL     1     -13.636  12.621  72.122  1.00  0.00    -0.510 C  
HETATM    2  C   UNL     1     -12.875  12.951  70.834  1.00  0.00    -0.122 C  
HETATM    3  C   UNL     1     -12.049  14.237  70.887  1.00  0.00    -0.417 C  
ENDROOT
BRANCH   2   4
HETATM    4  N   UNL     1     -12.137  11.820  70.255  1.00  0.00    -0.351 NA 
HETATM    5  C   UNL     1     -11.411  11.785  69.069  1.00  0.00    -0.278 A  
HETATM    6  C   UNL     1     -11.630   7.985  71.765  1.00  0.00    -0.331 A  
HETATM    7  C   UNL     1     -10.764  10.540  68.999  1.00  0.00    -0.259 A  
HETATM    8  C   UNL     1     -12.529   8.791  72.444  1.00  0.00    -0.421 A  
HETATM    9  C   UNL     1     -12.101  10.574  70.868  1.00  0.00    -0.383 A  
HETATM   10  C   UNL     1     -11.213   9.775  70.141  1.00  0.00    -0.324 A  
HETATM   11  C   UNL     1     -10.960   8.469  70.634  1.00  0.00    -0.268 A  
HETATM   12  C   UNL     1     -12.768  10.096  72.014  1.00  0.00    -0.421 A  
BRANCH   5  13
HETATM   13  C   UNL     1     -11.385  12.932  68.226  1.00  0.00    -0.326 C  
HETATM   14  C   UNL     1     -11.963  12.943  67.013  1.00  0.00    -0.390 C  
BRANCH  14  15
HETATM   15  C   UNL     1     -12.006  14.149  66.116  1.00  0.00    -0.422 C  
HETATM   16  H   UNL     1     -13.141  14.719  64.675  1.00  0.00     0.000 HD 
HETATM   17  O   UNL     1     -13.114  13.957  65.242  1.00  0.00    -0.777 OA 
BRANCH  15  18
HETATM   18  C   UNL     1     -10.698  14.315  65.328  1.00  0.00    -0.377 C  
BRANCH  18  19
HETATM   19  C   UNL     1      -9.804  15.452  65.854  1.00  0.00    -0.356 C  
HETATM   20  O   UNL     1      -8.583  14.915  66.391  1.00  0.00    -0.446 OA 
HETATM   21  H   UNL     1      -8.032  15.617  66.716  1.00  0.00     0.000 HD 
BRANCH  19  22
HETATM   22  C   UNL     1     -10.483  16.286  66.939  1.00  0.00    -0.302 C  
HETATM   23  C   UNL     1     -10.500  17.776  66.685  1.00  0.00    -0.300 C  
HETATM   24  O   UNL     1     -10.678  18.131  65.394  1.00  0.00    -0.620 OA 
HETATM   25  O   UNL     1     -10.446  18.602  67.585  1.00  0.00    -0.389 OA 
ENDBRANCH  19  22
ENDBRANCH  18  19
ENDBRANCH  15  18
ENDBRANCH  14  15
ENDBRANCH   5  13
BRANCH   7  26
HETATM   26  C   UNL     1      -9.872  10.127  67.893  1.00  0.00    -0.176 A  
HETATM   27  C   UNL     1      -7.615   9.867  66.976  1.00  0.00    -0.092 A  
HETATM   28  C   UNL     1      -9.501   9.054  65.723  1.00  0.00    -0.305 A  
HETATM   29  C   UNL     1      -8.134   9.225  65.863  1.00  0.00    -0.111 A  
HETATM   30  C   UNL     1      -8.479  10.297  67.992  1.00  0.00    -0.118 A  
HETATM   31  C   UNL     1     -10.363   9.531  66.718  1.00  0.00    -0.298 A  
HETATM   32  F   UNL     1      -7.306   8.761  64.919  1.00  0.00    -0.086 F  
ENDBRANCH   7  26
ENDBRANCH   2   4
TORSDOF 7
ENDMDL
MODEL       52
REMARK 921   NORMALIZED FREE ENERGY PREDICTED BY IDOCK:   -6.24 KCAL/MOL
REMARK 922        TOTAL FREE ENERGY PREDICTED BY IDOCK:  -10.49 KCAL/MOL
REMARK 923 INTER-LIGAND FREE ENERGY PREDICTED BY IDOCK:   -8.99 KCAL/MOL
REMARK 924 INTRA-LIGAND FREE ENERGY PREDICTED BY IDOCK:   -1.51 KCAL/MOL
REMARK 927      BINDING AFFINITY PREDICTED BY RF-SCORE:    0.00 PKD
ROOT
HETATM    1  C   UNL     1     -10.997   9.393  71.467  1.00  0.00    -0.429 C  
HETATM    2  C   UNL     1     -12.220   9.833  70.656  1.00  0.00    -0.202 C  
HETATM    3  C   UNL     1     -13.567   9.578  71.334  1.00  0.00    -0.353 C  
ENDROOT
BRANCH   2   4
HETATM    4  N   UNL     1     -12.116  11.180  70.078  1.00  0.00    -0.338 NA 
HETATM    5  C   UNL     1     -11.630  11.542  68.826  1.00  0.00    -0.316 A  
HETATM    6  C   UNL     1     -13.252  14.821  71.720  1.00  0.00    -0.435 A  
HETATM    7  C   UNL     1     -11.857  12.919  68.660  1.00  0.00    -0.347 A  
HETATM    8  C   UNL     1     -13.305  13.729  72.570  1.00  0.00    -0.656 A  
HETATM    9  C   UNL     1     -12.501  12.314  70.782  1.00  0.00    -0.265 A  
HETATM   10  C   UNL     1     -12.404  13.402  69.908  1.00  0.00    -0.259 A  
HETATM   11  C   UNL     1     -12.823  14.666  70.395  1.00  0.00    -0.321 A  
HETATM   12  C   UNL     1     -12.944  12.463  72.112  1.00  0.00    -0.308 A  
BRANCH   5  13
HETATM   13  C   UNL     1     -11.093  10.544  67.964  1.00  0.00    -0.361 C  
HETATM   14  C   UNL     1      -9.778  10.274  67.914  1.00  0.00    -0.165 C  
BRANCH  14  15
HETATM   15  C   UNL     1      -9.177   9.192  67.061  1.00  0.00    -0.135 C  
HETATM   16  H   UNL     1      -9.276   8.729  65.199  1.00  0.00     0.000 HD 
HETATM   17  O   UNL     1      -9.656   9.413  65.738  1.00  0.00    -0.240 OA 
BRANCH  15  18
HETATM   18  C   UNL     1      -9.563   7.793  67.565  1.00  0.00    -0.184 C  
BRANCH  18  19
HETATM   19  C   UNL     1     -10.164   6.890  66.472  1.00  0.00    -0.057 C  
HETATM   20  O   UNL     1     -11.534   6.584  66.780  1.00  0.00    -0.774 OA 
HETATM   21  H   UNL     1     -11.905   6.027  66.106  1.00  0.00     0.000 HD 
BRANCH  19  22
HETATM   22  C   UNL     1      -9.402   5.577  66.302  1.00  0.00    -0.166 C  
HETATM   23  C   UNL     1      -8.552   5.487  65.055  1.00  0.00    -0.128 C  
HETATM   24  O   UNL     1      -7.941   6.638  64.698  1.00  0.00    -0.115 OA 
HETATM   25  O   UNL     1      -8.358   4.436  64.461  1.00  0.00    -0.103 OA 
ENDBRANCH  19  22
ENDBRANCH  18  19
ENDBRANCH  15  18
ENDBRANCH  14  15
ENDBRANCH   5  13
BRANCH   7  26
HETATM   26  C   UNL     1     -11.501  13.679  67.442  1.00  0.00    -0.365 A  
HETATM   27  C   UNL     1     -12.037  14.400  65.162  1.00  0.00    -0.395 A  
HETATM   28  C   UNL     1     -10.074  15.272  66.247  1.00  0.00    -0.297 A  
HETATM   29  C   UNL     1     -10.924  15.226  65.155  1.00  0.00    -0.416 A  
HETATM   30  C   UNL     1     -12.331  13.648  66.306  1.00  0.00    -0.464 A  
HETATM   31  C   UNL     1     -10.346  14.479  67.369  1.00  0.00    -0.252 A  
HETATM   32  F   UNL     1     -10.672  15.991  64.085  1.00  0.00    -0.144 F  
ENDBRANCH   7  26
ENDBRANCH   2   4
TORSDOF 7
ENDMDL
MODEL       53
REMARK 921   NORMALIZED FREE ENERGY PREDICTED BY IDOCK:   -6.21 KCAL/MOL
REMARK 922        TOTAL FREE ENERGY PREDICTED BY IDOCK:  -10.46 KCAL/MOL
REMARK 923 INTER-LIGAND FREE ENERGY PREDICTED BY IDOCK:   -8.66 KCAL/MOL
REMARK 924 INTRA-LIGAND FREE ENERGY PREDICTED BY IDOCK:   -1.80 KCAL/MOL
REMARK 927      BINDING AFFINITY PREDICTED BY RF-SCORE:    0.00 PKD
ROOT
HETATM    1  C   UNL     1      -7.480  11.214  66.687  1.00  0.00    -0.146 C  
HETATM    2  C   UNL     1      -8.689  11.982  67.231  1.00  0.00    -0.175 C  
HETATM    3  C   UNL     1      -9.510  11.230  68.279  1.00  0.00    -0.190 C  
ENDROOT
BRANCH   2   4
HETATM    4  N   UNL     1      -8.406  13.372  67.614  1.00  0.00    -0.165 NA 
HETATM    5  C   UNL     1      -8.965  14.536  67.097  1.00  0.00    -0.230 A  
HETATM    6  C   UNL     1      -5.819  14.802  70.530  1.00  0.00    -0.157 A  
HETATM    7  C   UNL     1      -8.496  15.615  67.865  1.00  0.00    -0.153 A  
HETATM    8  C   UNL     1      -5.747  13.443  70.268  1.00  0.00    -0.154 A  
HETATM    9  C   UNL     1      -7.468  13.690  68.588  1.00  0.00    -0.113 A  
HETATM   10  C   UNL     1      -7.541  15.070  68.805  1.00  0.00    -0.137 A  
HETATM   11  C   UNL     1      -6.716  15.612  69.823  1.00  0.00    -0.147 A  
HETATM   12  C   UNL     1      -6.576  12.868  69.306  1.00  0.00    -0.085 A  
BRANCH   5  13
HETATM   13  C   UNL     1      -9.890  14.453  66.017  1.00  0.00    -0.342 C  
HETATM   14  C   UNL     1     -11.185  14.148  66.206  1.00  0.00    -0.329 C  
BRANCH  14  15
HETATM   15  C   UNL     1     -12.204  14.105  65.102  1.00  0.00    -0.433 C  
HETATM   16  H   UNL     1     -13.984  14.793  64.880  1.00  0.00     0.000 HD 
HETATM   17  O   UNL     1     -13.340  14.821  65.578  1.00  0.00    -0.081 OA 
BRANCH  15  18
HETATM   18  C   UNL     1     -12.574  12.661  64.730  1.00  0.00    -0.530 C  
BRANCH  18  19
HETATM   19  C   UNL     1     -11.652  12.046  63.661  1.00  0.00    -0.486 C  
HETATM   20  O   UNL     1     -12.430  11.331  62.687  1.00  0.00    -0.783 OA 
HETATM   21  H   UNL     1     -11.861  10.952  62.028  1.00  0.00     0.000 HD 
BRANCH  19  22
HETATM   22  C   UNL     1     -10.617  11.090  64.250  1.00  0.00    -0.402 C  
HETATM   23  C   UNL     1      -9.561  10.612  63.279  1.00  0.00    -0.344 C  
HETATM   24  O   UNL     1      -9.148  11.537  62.386  1.00  0.00    -0.289 OA 
HETATM   25  O   UNL     1      -9.053   9.502  63.348  1.00  0.00    -0.233 OA 
ENDBRANCH  19  22
ENDBRANCH  18  19
ENDBRANCH  15  18
ENDBRANCH  14  15
ENDBRANCH   5  13
BRANCH   7  26
HETATM   26  C   UNL     1      -8.885  17.025  67.644  1.00  0.00    -0.220 A  
HETATM   27  C   UNL     1      -9.948  19.081  68.447  1.00  0.00    -0.473 A  
HETATM   28  C   UNL     1      -8.816  19.087  66.324  1.00  0.00    -0.285 A  
HETATM   29  C   UNL     1      -9.521  19.753  67.313  1.00  0.00    -0.357 A  
HETATM   30  C   UNL     1      -9.613  17.731  68.618  1.00  0.00    -0.322 A  
HETATM   31  C   UNL     1      -8.528  17.725  66.477  1.00  0.00    -0.288 A  
HETATM   32  F   UNL     1      -9.789  21.057  67.174  1.00  0.00    -0.611 F  
ENDBRANCH   7  26
ENDBRANCH   2   4
TORSDOF 7
ENDMDL
MODEL       54
REMARK 921   NORMALIZED FREE ENERGY PREDICTED BY IDOCK:   -6.19 KCAL/MOL
REMARK 922        TOTAL FREE ENERGY PREDICTED BY IDOCK:  -10.42 KCAL/MOL
REMARK 923 INTER-LIGAND FREE ENERGY PREDICTED BY IDOCK:   -8.82 KCAL/MOL
REMARK 924 INTRA-LIGAND FREE ENERGY PREDICTED BY IDOCK:   -1.61 KCAL/MOL
REMARK 927      BINDING AFFINITY PREDICTED BY RF-SCORE:    0.00 PKD
ROOT
HETATM    1  C   UNL     1     -12.145  14.230  67.053  1.00  0.00    -0.424 C  
HETATM    2  C   UNL     1     -11.119  13.568  67.979  1.00  0.00    -0.258 C  
HETATM    3  C   UNL     1      -9.975  14.479  68.427  1.00  0.00    -0.241 C  
ENDROOT
BRANCH   2   4
HETATM    4  N   UNL     1     -11.704  12.798  69.084  1.00  0.00    -0.309 NA 
HETATM    5  C   UNL     1     -11.764  11.415  69.231  1.00  0.00    -0.337 A  
HETATM    6  C   UNL     1     -13.512  14.177  72.559  1.00  0.00    -0.634 A  
HETATM    7  C   UNL     1     -12.284  11.142  70.507  1.00  0.00    -0.475 A  
HETATM    8  C   UNL     1     -13.212  15.138  71.607  1.00  0.00    -0.496 A  
HETATM    9  C   UNL     1     -12.321  13.415  70.166  1.00  0.00    -0.252 A  
HETATM   10  C   UNL     1     -12.641  12.416  71.091  1.00  0.00    -0.349 A  
HETATM   11  C   UNL     1     -13.218  12.829  72.319  1.00  0.00    -0.491 A  
HETATM   12  C   UNL     1     -12.603  14.774  70.408  1.00  0.00    -0.399 A  
BRANCH   5  13
HETATM   13  C   UNL     1     -11.271  10.576  68.192  1.00  0.00    -0.357 C  
HETATM   14  C   UNL     1     -10.310   9.662  68.405  1.00  0.00    -0.233 C  
BRANCH  14  15
HETATM   15  C   UNL     1      -9.801   8.719  67.350  1.00  0.00    -0.194 C  
HETATM   16  H   UNL     1     -10.540   7.211  66.417  1.00  0.00     0.000 HD 
HETATM   17  O   UNL     1     -10.862   7.807  67.084  1.00  0.00    -0.313 OA 
BRANCH  15  18
HETATM   18  C   UNL     1      -8.536   7.981  67.814  1.00  0.00    -0.128 C  
BRANCH  18  19
HETATM   19  C   UNL     1      -7.323   8.908  68.017  1.00  0.00    -0.084 C  
HETATM   20  O   UNL     1      -6.135   8.292  67.493  1.00  0.00    -0.049 OA 
HETATM   21  H   UNL     1      -5.387   8.864  67.619  1.00  0.00     0.000 HD 
BRANCH  19  22
HETATM   22  C   UNL     1      -7.081   9.253  69.485  1.00  0.00    -0.060 C  
HETATM   23  C   UNL     1      -6.872  10.723  69.771  1.00  0.00    -0.151 C  
HETATM   24  O   UNL     1      -7.628  11.561  69.029  1.00  0.00    -0.119 OA 
HETATM   25  O   UNL     1      -6.142  11.125  70.666  1.00  0.00    -0.295 OA 
ENDBRANCH  19  22
ENDBRANCH  18  19
ENDBRANCH  15  18
ENDBRANCH  14  15
ENDBRANCH   5  13
BRANCH   7  26
HETATM   26  C   UNL     1     -12.479   9.780  71.051  1.00  0.00    -0.414 A  
HETATM   27  C   UNL     1     -13.923   7.840  71.441  1.00  0.00    -0.416 A  
HETATM   28  C   UNL     1     -11.602   7.729  72.062  1.00  0.00    -0.347 A  
HETATM   29  C   UNL     1     -12.848   7.134  71.955  1.00  0.00    -0.260 A  
HETATM   30  C   UNL     1     -13.733   9.147  70.975  1.00  0.00    -0.049 A  
HETATM   31  C   UNL     1     -11.429   9.053  71.641  1.00  0.00    -0.431 A  
HETATM   32  F   UNL     1     -13.014   5.864  72.346  1.00  0.00    -0.249 F  
ENDBRANCH   7  26
ENDBRANCH   2   4
TORSDOF 7
ENDMDL
MODEL       55
REMARK 921   NORMALIZED FREE ENERGY PREDICTED BY IDOCK:   -6.18 KCAL/MOL
REMARK 922        TOTAL FREE ENERGY PREDICTED BY IDOCK:  -10.41 KCAL/MOL
REMARK 923 INTER-LIGAND FREE ENERGY PREDICTED BY IDOCK:   -9.79 KCAL/MOL
REMARK 924 INTRA-LIGAND FREE ENERGY PREDICTED BY IDOCK:   -0.62 KCAL/MOL
REMARK 927      BINDING AFFINITY PREDICTED BY RF-SCORE:    0.00 PKD
ROOT
HETATM    1  C   UNL     1     -10.085   9.269  66.458  1.00  0.00    -0.343 C  
HETATM    2  C   UNL     1      -9.460   9.263  67.857  1.00  0.00    -0.137 C  
HETATM    3  C   UNL     1      -8.060   9.873  67.937  1.00  0.00    -0.109 C  
ENDROOT
BRANCH   2   4
HETATM    4  N   UNL     1     -10.351   9.733  68.925  1.00  0.00    -0.201 NA 
HETATM    5  C   UNL     1     -10.703  11.043  69.237  1.00  0.00    -0.222 A  
HETATM    6  C   UNL     1     -12.497   7.513  71.702  1.00  0.00    -0.371 A  
HETATM    7  C   UNL     1     -11.686  10.996  70.240  1.00  0.00    -0.445 A  
HETATM    8  C   UNL     1     -11.595   6.805  70.925  1.00  0.00    -0.403 A  
HETATM    9  C   UNL     1     -10.964   8.856  69.811  1.00  0.00    -0.156 A  
HETATM   10  C   UNL     1     -11.841   9.605  70.603  1.00  0.00    -0.331 A  
HETATM   11  C   UNL     1     -12.638   8.896  71.538  1.00  0.00    -0.385 A  
HETATM   12  C   UNL     1     -10.828   7.461  69.964  1.00  0.00    -0.266 A  
BRANCH   5  13
HETATM   13  C   UNL     1     -10.117  12.120  68.513  1.00  0.00    -0.192 C  
HETATM   14  C   UNL     1     -10.677  12.622  67.400  1.00  0.00    -0.251 C  
BRANCH  14  15
HETATM   15  C   UNL     1     -10.121  13.793  66.638  1.00  0.00    -0.277 C  
HETATM   16  H   UNL     1      -8.483  14.794  66.708  1.00  0.00     0.000 HD 
HETATM   17  O   UNL     1      -8.834  14.055  67.190  1.00  0.00    -0.209 OA 
BRANCH  15  18
HETATM   18  C   UNL     1     -11.033  15.024  66.747  1.00  0.00    -0.323 C  
BRANCH  18  19
HETATM   19  C   UNL     1     -10.420  16.172  67.569  1.00  0.00    -0.302 C  
HETATM   20  O   UNL     1     -11.330  16.582  68.603  1.00  0.00    -0.344 OA 
HETATM   21  H   UNL     1     -10.952  17.291  69.110  1.00  0.00     0.000 HD 
BRANCH  19  22
HETATM   22  C   UNL     1     -10.074  17.392  66.718  1.00  0.00    -0.313 C  
HETATM   23  C   UNL     1      -9.339  18.495  67.447  1.00  0.00    -0.279 C  
HETATM   24  O   UNL     1      -8.440  18.072  68.362  1.00  0.00    -0.285 OA 
HETATM   25  O   UNL     1      -9.481  19.677  67.172  1.00  0.00    -0.312 OA 
ENDBRANCH  19  22
ENDBRANCH  18  19
ENDBRANCH  15  18
ENDBRANCH  14  15
ENDBRANCH   5  13
BRANCH   7  26
HETATM   26  C   UNL     1     -12.335  12.190  70.824  1.00  0.00    -0.391 A  
HETATM   27  C   UNL     1     -12.800  14.594  70.759  1.00  0.00    -0.418 A  
HETATM   28  C   UNL     1     -13.861  13.229  72.433  1.00  0.00    -0.630 A  
HETATM   29  C   UNL     1     -13.670  14.462  71.830  1.00  0.00    -0.431 A  
HETATM   30  C   UNL     1     -12.154  13.461  70.250  1.00  0.00    -0.419 A  
HETATM   31  C   UNL     1     -13.174  12.109  71.951  1.00  0.00    -0.474 A  
HETATM   32  F   UNL     1     -14.334  15.533  72.283  1.00  0.00    -0.570 F  
ENDBRANCH   7  26
ENDBRANCH   2   4
TORSDOF 7
ENDMDL
MODEL       56
REMARK 921   NORMALIZED FREE ENERGY PREDICTED BY IDOCK:   -6.17 KCAL/MOL
REMARK 922        TOTAL FREE ENERGY PREDICTED BY IDOCK:  -10.40 KCAL/MOL
REMARK 923 INTER-LIGAND FREE ENERGY PREDICTED BY IDOCK:   -9.40 KCAL/MOL
REMARK 924 INTRA-LIGAND FREE ENERGY PREDICTED BY IDOCK:   -1.00 KCAL/MOL
REMARK 927      BINDING AFFINITY PREDICTED BY RF-SCORE:    0.00 PKD
ROOT
HETATM    1  C   UNL     1      -9.274   6.643  66.267  1.00  0.00    -0.158 C  
HETATM    2  C   UNL     1      -8.523   6.847  67.587  1.00  0.00    -0.122 C  
HETATM    3  C   UNL     1      -7.215   7.631  67.467  1.00  0.00    -0.087 C  
ENDROOT
BRANCH   2   4
HETATM    4  N   UNL     1      -9.363   7.302  68.702  1.00  0.00    -0.139 NA 
HETATM    5  C   UNL     1      -9.947   8.552  68.884  1.00  0.00    -0.190 A  
HETATM    6  C   UNL     1     -10.647   5.187  72.037  1.00  0.00    -0.266 A  
HETATM    7  C   UNL     1     -10.773   8.479  70.018  1.00  0.00    -0.234 A  
HETATM    8  C   UNL     1      -9.712   4.550  71.237  1.00  0.00    -0.252 A  
HETATM    9  C   UNL     1      -9.667   6.477  69.778  1.00  0.00    -0.158 A  
HETATM   10  C   UNL     1     -10.585   7.161  70.583  1.00  0.00    -0.243 A  
HETATM   11  C   UNL     1     -11.098   6.472  71.712  1.00  0.00    -0.299 A  
HETATM   12  C   UNL     1      -9.221   5.179  70.094  1.00  0.00    -0.188 A  
BRANCH   5  13
HETATM   13  C   UNL     1      -9.692   9.591  67.944  1.00  0.00    -0.171 C  
HETATM   14  C   UNL     1     -10.556   9.893  66.961  1.00  0.00    -0.272 C  
BRANCH  14  15
HETATM   15  C   UNL     1     -10.352  11.016  65.982  1.00  0.00    -0.254 C  
HETATM   16  H   UNL     1      -8.816  11.929  65.276  1.00  0.00     0.000 HD 
HETATM   17  O   UNL     1      -8.944  11.219  65.895  1.00  0.00    -0.204 OA 
BRANCH  15  18
HETATM   18  C   UNL     1     -11.071  12.297  66.432  1.00  0.00    -0.345 C  
BRANCH  18  19
HETATM   19  C   UNL     1     -11.510  13.198  65.264  1.00  0.00    -0.301 C  
HETATM   20  O   UNL     1     -10.740  12.895  64.088  1.00  0.00    -0.376 OA 
HETATM   21  H   UNL     1     -11.011  13.452  63.367  1.00  0.00     0.000 HD 
BRANCH  19  22
HETATM   22  C   UNL     1     -11.354  14.686  65.572  1.00  0.00    -0.341 C  
HETATM   23  C   UNL     1     -11.761  15.618  64.453  1.00  0.00    -0.218 C  
HETATM   24  O   UNL     1     -12.836  15.217  63.740  1.00  0.00    -0.636 OA 
HETATM   25  O   UNL     1     -11.218  16.696  64.260  1.00  0.00    -1.098 OA 
ENDBRANCH  19  22
ENDBRANCH  18  19
ENDBRANCH  15  18
ENDBRANCH  14  15
ENDBRANCH   5  13
BRANCH   7  26
HETATM   26  C   UNL     1     -11.589   9.603  70.526  1.00  0.00    -0.341 A  
HETATM   27  C   UNL     1     -13.359  10.440  71.998  1.00  0.00    -0.440 A  
HETATM   28  C   UNL     1     -12.084  11.997  70.679  1.00  0.00    -0.369 A  
HETATM   29  C   UNL     1     -13.070  11.741  71.617  1.00  0.00    -0.338 A  
HETATM   30  C   UNL     1     -12.609   9.382  71.469  1.00  0.00    -0.447 A  
HETATM   31  C   UNL     1     -11.372  10.931  70.116  1.00  0.00    -0.367 A  
HETATM   32  F   UNL     1     -13.746  12.759  72.165  1.00  0.00    -0.543 F  
ENDBRANCH   7  26
ENDBRANCH   2   4
TORSDOF 7
ENDMDL
MODEL       57
REMARK 921   NORMALIZED FREE ENERGY PREDICTED BY IDOCK:   -6.16 KCAL/MOL
REMARK 922        TOTAL FREE ENERGY PREDICTED BY IDOCK:  -10.39 KCAL/MOL
REMARK 923 INTER-LIGAND FREE ENERGY PREDICTED BY IDOCK:   -8.62 KCAL/MOL
REMARK 924 INTRA-LIGAND FREE ENERGY PREDICTED BY IDOCK:   -1.77 KCAL/MOL
REMARK 927      BINDING AFFINITY PREDICTED BY RF-SCORE:    0.00 PKD
ROOT
HETATM    1  C   UNL     1      -9.160   8.448  65.205  1.00  0.00     0.015 C  
HETATM    2  C   UNL     1      -8.684   9.566  66.137  1.00  0.00    -0.145 C  
HETATM    3  C   UNL     1      -7.486  10.366  65.623  1.00  0.00    -0.149 C  
ENDROOT
BRANCH   2   4
HETATM    4  N   UNL     1      -9.758  10.420  66.663  1.00  0.00    -0.183 NA 
HETATM    5  C   UNL     1     -10.196  10.537  67.979  1.00  0.00    -0.166 A  
HETATM    6  C   UNL     1     -12.179  13.117  64.638  1.00  0.00    -0.471 A  
HETATM    7  C   UNL     1     -11.144  11.572  68.025  1.00  0.00    -0.313 A  
HETATM    8  C   UNL     1     -11.369  12.317  63.849  1.00  0.00    -0.501 A  
HETATM    9  C   UNL     1     -10.515  11.242  65.838  1.00  0.00    -0.259 A  
HETATM   10  C   UNL     1     -11.345  12.010  66.661  1.00  0.00    -0.399 A  
HETATM   11  C   UNL     1     -12.162  12.984  66.032  1.00  0.00    -0.463 A  
HETATM   12  C   UNL     1     -10.519  11.381  64.436  1.00  0.00    -0.388 A  
BRANCH   5  13
HETATM   13  C   UNL     1      -9.619   9.713  68.988  1.00  0.00    -0.168 C  
HETATM   14  C   UNL     1      -8.656  10.159  69.811  1.00  0.00    -0.148 C  
BRANCH  14  15
HETATM   15  C   UNL     1      -8.061   9.341  70.924  1.00  0.00    -0.124 C  
HETATM   16  H   UNL     1      -6.381   9.349  71.856  1.00  0.00     0.000 HD 
HETATM   17  O   UNL     1      -6.757   9.866  71.153  1.00  0.00    -0.322 OA 
BRANCH  15  18
HETATM   18  C   UNL     1      -8.004   7.850  70.562  1.00  0.00    -0.097 C  
BRANCH  18  19
HETATM   19  C   UNL     1      -8.889   6.965  71.459  1.00  0.00    -0.132 C  
HETATM   20  O   UNL     1      -8.226   5.721  71.738  1.00  0.00    -0.117 OA 
HETATM   21  H   UNL     1      -8.772   5.176  72.291  1.00  0.00     0.000 HD 
BRANCH  19  22
HETATM   22  C   UNL     1     -10.248   6.658  70.832  1.00  0.00    -0.219 C  
HETATM   23  C   UNL     1     -11.441   7.184  71.599  1.00  0.00    -0.266 C  
HETATM   24  O   UNL     1     -11.257   8.389  72.181  1.00  0.00    -0.310 OA 
HETATM   25  O   UNL     1     -12.519   6.608  71.621  1.00  0.00    -0.352 OA 
ENDBRANCH  19  22
ENDBRANCH  18  19
ENDBRANCH  15  18
ENDBRANCH  14  15
ENDBRANCH   5  13
BRANCH   7  26
HETATM   26  C   UNL     1     -11.826  12.021  69.258  1.00  0.00    -0.377 A  
HETATM   27  C   UNL     1     -13.005  11.493  71.339  1.00  0.00    -0.450 A  
HETATM   28  C   UNL     1     -12.473  13.784  70.831  1.00  0.00    -0.451 A  
HETATM   29  C   UNL     1     -13.012  12.835  71.684  1.00  0.00    -0.303 A  
HETATM   30  C   UNL     1     -12.398  11.090  70.143  1.00  0.00    -0.389 A  
HETATM   31  C   UNL     1     -11.912  13.380  69.613  1.00  0.00    -0.386 A  
HETATM   32  F   UNL     1     -13.539  13.217  72.854  1.00  0.00    -0.580 F  
ENDBRANCH   7  26
ENDBRANCH   2   4
TORSDOF 7
ENDMDL
MODEL       58
REMARK 921   NORMALIZED FREE ENERGY PREDICTED BY IDOCK:   -6.05 KCAL/MOL
REMARK 922        TOTAL FREE ENERGY PREDICTED BY IDOCK:  -10.23 KCAL/MOL
REMARK 923 INTER-LIGAND FREE ENERGY PREDICTED BY IDOCK:   -8.63 KCAL/MOL
REMARK 924 INTRA-LIGAND FREE ENERGY PREDICTED BY IDOCK:   -1.60 KCAL/MOL
REMARK 927      BINDING AFFINITY PREDICTED BY RF-SCORE:    0.00 PKD
ROOT
HETATM    1  C   UNL     1      -7.405  15.201  69.797  1.00  0.00    -0.141 C  
HETATM    2  C   UNL     1      -7.147  15.961  68.492  1.00  0.00    -0.124 C  
HETATM    3  C   UNL     1      -5.788  15.688  67.847  1.00  0.00    -0.155 C  
ENDROOT
BRANCH   2   4
HETATM    4  N   UNL     1      -8.257  15.914  67.530  1.00  0.00    -0.152 NA 
HETATM    5  C   UNL     1      -8.844  14.794  66.950  1.00  0.00    -0.248 A  
HETATM    6  C   UNL     1     -10.462  19.048  65.931  1.00  0.00    -0.468 A  
HETATM    7  C   UNL     1      -9.955  15.227  66.208  1.00  0.00    -0.304 A  
HETATM    8  C   UNL     1      -9.354  19.406  66.680  1.00  0.00    -0.408 A  
HETATM    9  C   UNL     1      -8.866  17.067  67.052  1.00  0.00    -0.224 A  
HETATM   10  C   UNL     1      -9.959  16.672  66.273  1.00  0.00    -0.336 A  
HETATM   11  C   UNL     1     -10.780  17.697  65.738  1.00  0.00    -0.110 A  
HETATM   12  C   UNL     1      -8.550  18.425  67.260  1.00  0.00    -0.261 A  
BRANCH   5  13
HETATM   13  C   UNL     1      -8.317  13.500  67.227  1.00  0.00    -0.188 C  
HETATM   14  C   UNL     1      -9.020  12.569  67.893  1.00  0.00    -0.188 C  
BRANCH  14  15
HETATM   15  C   UNL     1      -8.522  11.175  68.158  1.00  0.00    -0.138 C  
HETATM   16  H   UNL     1      -7.099  10.093  67.455  1.00  0.00     0.000 HD 
HETATM   17  O   UNL     1      -7.413  10.973  67.287  1.00  0.00    -0.097 OA 
BRANCH  15  18
HETATM   18  C   UNL     1      -9.619  10.127  67.913  1.00  0.00    -0.166 C  
BRANCH  18  19
HETATM   19  C   UNL     1     -10.219   9.551  69.209  1.00  0.00    -0.203 C  
HETATM   20  O   UNL     1     -10.937   8.339  68.927  1.00  0.00    -0.429 OA 
HETATM   21  H   UNL     1     -11.308   7.984  69.726  1.00  0.00     0.000 HD 
BRANCH  19  22
HETATM   22  C   UNL     1     -11.169  10.525  69.904  1.00  0.00    -0.374 C  
HETATM   23  C   UNL     1     -11.858   9.978  71.135  1.00  0.00    -0.393 C  
HETATM   24  O   UNL     1     -11.099   9.162  71.897  1.00  0.00    -0.364 OA 
HETATM   25  O   UNL     1     -12.986  10.314  71.465  1.00  0.00    -0.381 OA 
ENDBRANCH  19  22
ENDBRANCH  18  19
ENDBRANCH  15  18
ENDBRANCH  14  15
ENDBRANCH   5  13
BRANCH   7  26
HETATM   26  C   UNL     1     -10.859  14.326  65.461  1.00  0.00    -0.325 A  
HETATM   27  C   UNL     1     -11.211  12.668  63.692  1.00  0.00    -0.525 A  
HETATM   28  C   UNL     1     -13.035  13.244  65.153  1.00  0.00    -0.231 A  
HETATM   29  C   UNL     1     -12.523  12.497  64.104  1.00  0.00    -0.430 A  
HETATM   30  C   UNL     1     -10.382  13.563  64.380  1.00  0.00    -0.306 A  
HETATM   31  C   UNL     1     -12.215  14.173  65.804  1.00  0.00    -0.458 A  
HETATM   32  F   UNL     1     -13.302  11.600  63.486  1.00  0.00    -0.503 F  
ENDBRANCH   7  26
ENDBRANCH   2   4
TORSDOF 7
ENDMDL
MODEL       59
REMARK 921   NORMALIZED FREE ENERGY PREDICTED BY IDOCK:   -6.03 KCAL/MOL
REMARK 922        TOTAL FREE ENERGY PREDICTED BY IDOCK:  -10.20 KCAL/MOL
REMARK 923 INTER-LIGAND FREE ENERGY PREDICTED BY IDOCK:   -8.46 KCAL/MOL
REMARK 924 INTRA-LIGAND FREE ENERGY PREDICTED BY IDOCK:   -1.74 KCAL/MOL
REMARK 927      BINDING AFFINITY PREDICTED BY RF-SCORE:    0.00 PKD
ROOT
HETATM    1  C   UNL     1      -9.615  14.381  68.520  1.00  0.00    -0.217 C  
HETATM    2  C   UNL     1     -10.477  13.127  68.693  1.00  0.00    -0.227 C  
HETATM    3  C   UNL     1     -11.951  13.397  68.999  1.00  0.00    -0.357 C  
ENDROOT
BRANCH   2   4
HETATM    4  N   UNL     1     -10.286  12.107  67.653  1.00  0.00    -0.195 NA 
HETATM    5  C   UNL     1      -9.795  10.813  67.798  1.00  0.00    -0.166 A  
HETATM    6  C   UNL     1     -11.131  12.327  63.593  1.00  0.00    -0.537 A  
HETATM    7  C   UNL     1      -9.925  10.164  66.559  1.00  0.00    -0.283 A  
HETATM    8  C   UNL     1     -11.249  13.511  64.303  1.00  0.00    -0.383 A  
HETATM    9  C   UNL     1     -10.577  12.355  66.317  1.00  0.00    -0.249 A  
HETATM   10  C   UNL     1     -10.416  11.151  65.623  1.00  0.00    -0.308 A  
HETATM   11  C   UNL     1     -10.736  11.150  64.241  1.00  0.00    -0.403 A  
HETATM   12  C   UNL     1     -10.987  13.539  65.672  1.00  0.00    -0.296 A  
BRANCH   5  13
HETATM   13  C   UNL     1      -9.345  10.371  69.075  1.00  0.00    -0.201 C  
HETATM   14  C   UNL     1     -10.083   9.562  69.853  1.00  0.00    -0.262 C  
BRANCH  14  15
HETATM   15  C   UNL     1      -9.623   9.028  71.181  1.00  0.00    -0.286 C  
HETATM   16  H   UNL     1      -7.952   9.026  72.129  1.00  0.00     0.000 HD 
HETATM   17  O   UNL     1      -8.243   9.364  71.290  1.00  0.00    -0.315 OA 
BRANCH  15  18
HETATM   18  C   UNL     1      -9.835   7.510  71.285  1.00  0.00    -0.188 C  
BRANCH  18  19
HETATM   19  C   UNL     1     -11.302   7.111  71.533  1.00  0.00    -0.255 C  
HETATM   20  O   UNL     1     -11.986   6.933  70.282  1.00  0.00    -0.566 OA 
HETATM   21  H   UNL     1     -12.890   6.687  70.435  1.00  0.00     0.000 HD 
BRANCH  19  22
HETATM   22  C   UNL     1     -12.066   8.145  72.358  1.00  0.00    -0.406 C  
HETATM   23  C   UNL     1     -13.550   8.218  72.079  1.00  0.00    -0.324 C  
HETATM   24  O   UNL     1     -14.141   7.030  71.827  1.00  0.00    -0.353 OA 
HETATM   25  O   UNL     1     -14.187   9.258  72.159  1.00  0.00    -0.335 OA 
ENDBRANCH  19  22
ENDBRANCH  18  19
ENDBRANCH  15  18
ENDBRANCH  14  15
ENDBRANCH   5  13
BRANCH   7  26
HETATM   26  C   UNL     1      -9.536   8.758  66.312  1.00  0.00    -0.300 A  
HETATM   27  C   UNL     1     -10.019   6.363  66.490  1.00  0.00    -0.162 A  
HETATM   28  C   UNL     1      -8.062   7.089  65.293  1.00  0.00    -0.134 A  
HETATM   29  C   UNL     1      -8.893   6.073  65.736  1.00  0.00    -0.135 A  
HETATM   30  C   UNL     1     -10.346   7.698  66.758  1.00  0.00    -0.343 A  
HETATM   31  C   UNL     1      -8.367   8.419  65.606  1.00  0.00    -0.160 A  
HETATM   32  F   UNL     1      -8.609   4.801  65.428  1.00  0.00    -0.117 F  
ENDBRANCH   7  26
ENDBRANCH   2   4
TORSDOF 7
ENDMDL
MODEL       60
REMARK 921   NORMALIZED FREE ENERGY PREDICTED BY IDOCK:   -6.02 KCAL/MOL
REMARK 922        TOTAL FREE ENERGY PREDICTED BY IDOCK:  -10.19 KCAL/MOL
REMARK 923 INTER-LIGAND FREE ENERGY PREDICTED BY IDOCK:   -8.77 KCAL/MOL
REMARK 924 INTRA-LIGAND FREE ENERGY PREDICTED BY IDOCK:   -1.42 KCAL/MOL
REMARK 927      BINDING AFFINITY PREDICTED BY RF-SCORE:    0.00 PKD
ROOT
HETATM    1  C   UNL     1      -7.981   9.243  69.327  1.00  0.00    -0.098 C  
HETATM    2  C   UNL     1      -8.614   8.385  68.227  1.00  0.00    -0.139 C  
HETATM    3  C   UNL     1      -9.680   7.401  68.714  1.00  0.00    -0.149 C  
ENDROOT
BRANCH   2   4
HETATM    4  N   UNL     1      -9.028   9.133  67.033  1.00  0.00    -0.122 NA 
HETATM    5  C   UNL     1      -9.814  10.279  66.966  1.00  0.00    -0.193 A  
HETATM    6  C   UNL     1      -8.100   8.414  63.049  1.00  0.00    -0.163 A  
HETATM    7  C   UNL     1      -9.825  10.714  65.630  1.00  0.00    -0.307 A  
HETATM    8  C   UNL     1      -7.714   7.434  63.949  1.00  0.00    -0.124 A  
HETATM    9  C   UNL     1      -8.668   8.731  65.752  1.00  0.00    -0.179 A  
HETATM   10  C   UNL     1      -9.101   9.723  64.865  1.00  0.00    -0.278 A  
HETATM   11  C   UNL     1      -8.772   9.559  63.496  1.00  0.00    -0.235 A  
HETATM   12  C   UNL     1      -7.980   7.584  65.309  1.00  0.00    -0.126 A  
BRANCH   5  13
HETATM   13  C   UNL     1     -10.373  10.818  68.159  1.00  0.00    -0.197 C  
HETATM   14  C   UNL     1     -11.643  10.579  68.526  1.00  0.00    -0.222 C  
BRANCH  14  15
HETATM   15  C   UNL     1     -12.255  11.082  69.804  1.00  0.00    -0.318 C  
HETATM   16  H   UNL     1     -12.382  12.800  70.655  1.00  0.00     0.000 HD 
HETATM   17  O   UNL     1     -11.994  12.482  69.848  1.00  0.00    -0.326 OA 
BRANCH  15  18
HETATM   18  C   UNL     1     -11.669  10.369  71.032  1.00  0.00    -0.430 C  
BRANCH  18  19
HETATM   19  C   UNL     1     -12.563   9.237  71.570  1.00  0.00    -0.352 C  
HETATM   20  O   UNL     1     -13.542   9.768  72.478  1.00  0.00    -0.656 OA 
HETATM   21  H   UNL     1     -14.094   9.069  72.810  1.00  0.00     0.000 HD 
BRANCH  19  22
HETATM   22  C   UNL     1     -11.772   8.150  72.294  1.00  0.00    -0.439 C  
HETATM   23  C   UNL     1     -12.022   6.741  71.804  1.00  0.00    -0.339 C  
HETATM   24  O   UNL     1     -12.203   6.626  70.471  1.00  0.00    -0.364 OA 
HETATM   25  O   UNL     1     -11.977   5.767  72.541  1.00  0.00    -0.275 OA 
ENDBRANCH  19  22
ENDBRANCH  18  19
ENDBRANCH  15  18
ENDBRANCH  14  15
ENDBRANCH   5  13
BRANCH   7  26
HETATM   26  C   UNL     1     -10.533  11.923  65.155  1.00  0.00    -0.330 A  
HETATM   27  C   UNL     1     -12.346  12.946  63.863  1.00  0.00    -0.476 A  
HETATM   28  C   UNL     1     -10.904  14.344  65.188  1.00  0.00    -0.397 A  
HETATM   29  C   UNL     1     -11.990  14.197  64.342  1.00  0.00    -0.457 A  
HETATM   30  C   UNL     1     -11.633  11.817  64.284  1.00  0.00    -0.361 A  
HETATM   31  C   UNL     1     -10.164  13.217  65.566  1.00  0.00    -0.298 A  
HETATM   32  F   UNL     1     -12.706  15.272  63.988  1.00  0.00    -0.420 F  
ENDBRANCH   7  26
ENDBRANCH   2   4
TORSDOF 7
ENDMDL
MODEL       61
REMARK 921   NORMALIZED FREE ENERGY PREDICTED BY IDOCK:   -6.01 KCAL/MOL
REMARK 922        TOTAL FREE ENERGY PREDICTED BY IDOCK:  -10.17 KCAL/MOL
REMARK 923 INTER-LIGAND FREE ENERGY PREDICTED BY IDOCK:   -8.80 KCAL/MOL
REMARK 924 INTRA-LIGAND FREE ENERGY PREDICTED BY IDOCK:   -1.37 KCAL/MOL
REMARK 927      BINDING AFFINITY PREDICTED BY RF-SCORE:    0.00 PKD
ROOT
HETATM    1  C   UNL     1     -13.139  11.615  71.817  1.00  0.00    -0.487 C  
HETATM    2  C   UNL     1     -12.794  10.122  71.823  1.00  0.00    -0.452 C  
HETATM    3  C   UNL     1     -13.927   9.198  71.373  1.00  0.00    -0.245 C  
ENDROOT
BRANCH   2   4
HETATM    4  N   UNL     1     -11.505   9.791  71.202  1.00  0.00    -0.373 NA 
HETATM    5  C   UNL     1     -10.961  10.302  70.027  1.00  0.00    -0.311 A  
HETATM    6  C   UNL     1      -8.559   7.183  72.528  1.00  0.00    -0.131 A  
HETATM    7  C   UNL     1      -9.654   9.801  69.906  1.00  0.00    -0.269 A  
HETATM    8  C   UNL     1      -9.753   7.158  73.230  1.00  0.00    -0.251 A  
HETATM    9  C   UNL     1     -10.642   8.852  71.753  1.00  0.00    -0.362 A  
HETATM   10  C   UNL     1      -9.462   8.876  71.002  1.00  0.00    -0.318 A  
HETATM   11  C   UNL     1      -8.399   8.042  71.434  1.00  0.00    -0.131 A  
HETATM   12  C   UNL     1     -10.802   7.998  72.862  1.00  0.00    -0.399 A  
BRANCH   5  13
HETATM   13  C   UNL     1     -11.718  11.219  69.243  1.00  0.00    -0.403 C  
HETATM   14  C   UNL     1     -11.228  12.411  68.865  1.00  0.00    -0.330 C  
BRANCH  14  15
HETATM   15  C   UNL     1     -11.971  13.384  67.992  1.00  0.00    -0.322 C  
HETATM   16  H   UNL     1     -12.717  13.313  66.223  1.00  0.00     0.000 HD 
HETATM   17  O   UNL     1     -12.247  12.698  66.774  1.00  0.00    -0.506 OA 
BRANCH  15  18
HETATM   18  C   UNL     1     -11.151  14.658  67.738  1.00  0.00    -0.306 C  
BRANCH  18  19
HETATM   19  C   UNL     1     -11.569  15.844  68.627  1.00  0.00    -0.380 C  
HETATM   20  O   UNL     1     -11.081  17.076  68.071  1.00  0.00    -0.324 OA 
HETATM   21  H   UNL     1     -11.338  17.807  68.620  1.00  0.00     0.000 HD 
BRANCH  19  22
HETATM   22  C   UNL     1     -11.052  15.722  70.059  1.00  0.00    -0.348 C  
HETATM   23  C   UNL     1     -12.119  15.745  71.130  1.00  0.00    -0.427 C  
HETATM   24  O   UNL     1     -13.267  15.112  70.803  1.00  0.00    -0.412 OA 
HETATM   25  O   UNL     1     -11.932  16.222  72.240  1.00  0.00    -0.511 OA 
ENDBRANCH  19  22
ENDBRANCH  18  19
ENDBRANCH  15  18
ENDBRANCH  14  15
ENDBRANCH   5  13
BRANCH   7  26
HETATM   26  C   UNL     1      -8.735  10.136  68.797  1.00  0.00    -0.138 A  
HETATM   27  C   UNL     1      -6.800  11.376  67.950  1.00  0.00    -0.072 A  
HETATM   28  C   UNL     1      -7.886   9.766  66.530  1.00  0.00    -0.109 A  
HETATM   29  C   UNL     1      -6.880  10.694  66.746  1.00  0.00    -0.108 A  
HETATM   30  C   UNL     1      -7.710  11.083  68.973  1.00  0.00    -0.132 A  
HETATM   31  C   UNL     1      -8.823   9.513  67.538  1.00  0.00    -0.130 A  
HETATM   32  F   UNL     1      -5.976  10.929  65.788  1.00  0.00    -0.115 F  
ENDBRANCH   7  26
ENDBRANCH   2   4
TORSDOF 7
ENDMDL
MODEL       62
REMARK 921   NORMALIZED FREE ENERGY PREDICTED BY IDOCK:   -6.00 KCAL/MOL
REMARK 922        TOTAL FREE ENERGY PREDICTED BY IDOCK:  -10.16 KCAL/MOL
REMARK 923 INTER-LIGAND FREE ENERGY PREDICTED BY IDOCK:   -8.64 KCAL/MOL
REMARK 924 INTRA-LIGAND FREE ENERGY PREDICTED BY IDOCK:   -1.53 KCAL/MOL
REMARK 927      BINDING AFFINITY PREDICTED BY RF-SCORE:    0.00 PKD
ROOT
HETATM    1  C   UNL     1     -11.775   9.082  70.810  1.00  0.00    -0.286 C  
HETATM    2  C   UNL     1     -10.693   9.091  69.724  1.00  0.00    -0.225 C  
HETATM    3  C   UNL     1      -9.411   9.834  70.101  1.00  0.00    -0.277 C  
ENDROOT
BRANCH   2   4
HETATM    4  N   UNL     1     -10.437   7.783  69.108  1.00  0.00    -0.219 NA 
HETATM    5  C   UNL     1     -10.330   7.476  67.755  1.00  0.00    -0.216 A  
HETATM    6  C   UNL     1      -9.779   4.116  70.943  1.00  0.00    -0.259 A  
HETATM    7  C   UNL     1      -9.941   6.131  67.650  1.00  0.00    -0.150 A  
HETATM    8  C   UNL     1     -10.173   5.150  71.776  1.00  0.00    -0.271 A  
HETATM    9  C   UNL     1     -10.283   6.629  69.867  1.00  0.00    -0.187 A  
HETATM   10  C   UNL     1      -9.919   5.598  68.994  1.00  0.00    -0.233 A  
HETATM   11  C   UNL     1      -9.634   4.333  69.567  1.00  0.00    -0.274 A  
HETATM   12  C   UNL     1     -10.417   6.419  71.255  1.00  0.00    -0.258 A  
BRANCH   5  13
HETATM   13  C   UNL     1     -10.545   8.495  66.784  1.00  0.00    -0.227 C  
HETATM   14  C   UNL     1      -9.538   9.037  66.079  1.00  0.00    -0.342 C  
BRANCH  14  15
HETATM   15  C   UNL     1      -9.728  10.074  65.008  1.00  0.00    -0.317 C  
HETATM   16  H   UNL     1      -8.548  11.204  63.998  1.00  0.00     0.000 HD 
HETATM   17  O   UNL     1      -8.427  10.548  64.675  1.00  0.00    -0.174 OA 
BRANCH  15  18
HETATM   18  C   UNL     1     -10.633  11.220  65.484  1.00  0.00    -0.306 C  
BRANCH  18  19
HETATM   19  C   UNL     1     -11.432  11.884  64.347  1.00  0.00    -0.320 C  
HETATM   20  O   UNL     1     -11.103  11.275  63.088  1.00  0.00    -0.811 OA 
HETATM   21  H   UNL     1     -11.596  11.685  62.387  1.00  0.00     0.000 HD 
BRANCH  19  22
HETATM   22  C   UNL     1     -11.174  13.386  64.240  1.00  0.00    -0.406 C  
HETATM   23  C   UNL     1     -12.402  14.258  64.370  1.00  0.00    -0.391 C  
HETATM   24  O   UNL     1     -13.316  13.824  65.264  1.00  0.00    -0.710 OA 
HETATM   25  O   UNL     1     -12.523  15.321  63.779  1.00  0.00    -0.698 OA 
ENDBRANCH  19  22
ENDBRANCH  18  19
ENDBRANCH  15  18
ENDBRANCH  14  15
ENDBRANCH   5  13
BRANCH   7  26
HETATM   26  C   UNL     1      -9.696   5.434  66.368  1.00  0.00    -0.183 A  
HETATM   27  C   UNL     1      -8.169   4.787  64.565  1.00  0.00    -0.115 A  
HETATM   28  C   UNL     1     -10.422   3.943  64.565  1.00  0.00    -0.221 A  
HETATM   29  C   UNL     1      -9.160   4.003  63.997  1.00  0.00    -0.139 A  
HETATM   30  C   UNL     1      -8.433   5.481  65.753  1.00  0.00    -0.134 A  
HETATM   31  C   UNL     1     -10.695   4.679  65.724  1.00  0.00    -0.195 A  
HETATM   32  F   UNL     1      -8.894   3.291  62.895  1.00  0.00    -0.090 F  
ENDBRANCH   7  26
ENDBRANCH   2   4
TORSDOF 7
ENDMDL
MODEL       63
REMARK 921   NORMALIZED FREE ENERGY PREDICTED BY IDOCK:   -5.99 KCAL/MOL
REMARK 922        TOTAL FREE ENERGY PREDICTED BY IDOCK:  -10.15 KCAL/MOL
REMARK 923 INTER-LIGAND FREE ENERGY PREDICTED BY IDOCK:   -8.13 KCAL/MOL
REMARK 924 INTRA-LIGAND FREE ENERGY PREDICTED BY IDOCK:   -2.02 KCAL/MOL
REMARK 927      BINDING AFFINITY PREDICTED BY RF-SCORE:    0.00 PKD
ROOT
HETATM    1  C   UNL     1      -5.301  10.003  68.095  1.00  0.00    -0.035 C  
HETATM    2  C   UNL     1      -6.576   9.954  68.943  1.00  0.00    -0.045 C  
HETATM    3  C   UNL     1      -6.612  10.945  70.108  1.00  0.00    -0.122 C  
ENDROOT
BRANCH   2   4
HETATM    4  N   UNL     1      -7.823   9.938  68.167  1.00  0.00    -0.086 NA 
HETATM    5  C   UNL     1      -8.348  10.944  67.362  1.00  0.00    -0.117 A  
HETATM    6  C   UNL     1     -10.609   6.884  67.765  1.00  0.00    -0.305 A  
HETATM    7  C   UNL     1      -9.481  10.427  66.713  1.00  0.00    -0.198 A  
HETATM    8  C   UNL     1      -9.615   6.680  68.709  1.00  0.00    -0.131 A  
HETATM    9  C   UNL     1      -8.680   8.843  68.174  1.00  0.00    -0.134 A  
HETATM   10  C   UNL     1      -9.688   9.095  67.238  1.00  0.00    -0.225 A  
HETATM   11  C   UNL     1     -10.643   8.070  67.020  1.00  0.00    -0.364 A  
HETATM   12  C   UNL     1      -8.633   7.647  68.917  1.00  0.00    -0.129 A  
BRANCH   5  13
HETATM   13  C   UNL     1      -7.679  12.198  67.279  1.00  0.00    -0.168 C  
HETATM   14  C   UNL     1      -8.205  13.325  67.786  1.00  0.00    -0.168 C  
BRANCH  14  15
HETATM   15  C   UNL     1      -7.508  14.657  67.768  1.00  0.00    -0.166 C  
HETATM   16  H   UNL     1      -7.167  16.020  69.078  1.00  0.00     0.000 HD 
HETATM   17  O   UNL     1      -7.608  15.179  69.090  1.00  0.00    -0.157 OA 
BRANCH  15  18
HETATM   18  C   UNL     1      -8.140  15.613  66.745  1.00  0.00    -0.280 C  
BRANCH  18  19
HETATM   19  C   UNL     1      -9.634  15.339  66.489  1.00  0.00    -0.271 C  
HETATM   20  O   UNL     1      -9.936  15.502  65.093  1.00  0.00    -0.316 OA 
HETATM   21  H   UNL     1     -10.857  15.333  64.936  1.00  0.00     0.000 HD 
BRANCH  19  22
HETATM   22  C   UNL     1     -10.551  16.259  67.292  1.00  0.00    -0.298 C  
HETATM   23  C   UNL     1     -10.322  17.738  67.079  1.00  0.00    -0.344 C  
HETATM   24  O   UNL     1     -10.006  18.088  65.814  1.00  0.00    -0.550 OA 
HETATM   25  O   UNL     1     -10.493  18.567  67.961  1.00  0.00    -0.384 OA 
ENDBRANCH  19  22
ENDBRANCH  18  19
ENDBRANCH  15  18
ENDBRANCH  14  15
ENDBRANCH   5  13
BRANCH   7  26
HETATM   26  C   UNL     1     -10.305  11.186  65.747  1.00  0.00    -0.316 A  
HETATM   27  C   UNL     1     -12.114  12.775  65.295  1.00  0.00    -0.505 A  
HETATM   28  C   UNL     1     -10.790  11.939  63.467  1.00  0.00    -0.502 A  
HETATM   29  C   UNL     1     -11.805  12.752  63.944  1.00  0.00    -0.468 A  
HETATM   30  C   UNL     1     -11.354  12.011  66.190  1.00  0.00    -0.407 A  
HETATM   31  C   UNL     1     -10.067  11.140  64.361  1.00  0.00    -0.377 A  
HETATM   32  F   UNL     1     -12.491  13.526  63.093  1.00  0.00    -0.563 F  
ENDBRANCH   7  26
ENDBRANCH   2   4
TORSDOF 7
ENDMDL
MODEL       64
REMARK 921   NORMALIZED FREE ENERGY PREDICTED BY IDOCK:   -5.98 KCAL/MOL
REMARK 922        TOTAL FREE ENERGY PREDICTED BY IDOCK:  -10.14 KCAL/MOL
REMARK 923 INTER-LIGAND FREE ENERGY PREDICTED BY IDOCK:   -7.90 KCAL/MOL
REMARK 924 INTRA-LIGAND FREE ENERGY PREDICTED BY IDOCK:   -2.24 KCAL/MOL
REMARK 927      BINDING AFFINITY PREDICTED BY RF-SCORE:    0.00 PKD
ROOT
HETATM    1  C   UNL     1     -11.759  11.718  65.027  1.00  0.00    -0.174 C  
HETATM    2  C   UNL     1     -10.636  11.128  65.886  1.00  0.00    -0.234 C  
HETATM    3  C   UNL     1      -9.240  11.673  65.582  1.00  0.00    -0.150 C  
ENDROOT
BRANCH   2   4
HETATM    4  N   UNL     1     -10.931  11.078  67.324  1.00  0.00    -0.284 NA 
HETATM    5  C   UNL     1     -10.842   9.986  68.182  1.00  0.00    -0.255 A  
HETATM    6  C   UNL     1     -12.154  14.141  69.847  1.00  0.00    -0.405 A  
HETATM    7  C   UNL     1     -11.084  10.446  69.487  1.00  0.00    -0.314 A  
HETATM    8  C   UNL     1     -12.125  14.443  68.495  1.00  0.00    -0.278 A  
HETATM    9  C   UNL     1     -11.380  12.192  68.022  1.00  0.00    -0.295 A  
HETATM   10  C   UNL     1     -11.431  11.846  69.377  1.00  0.00    -0.366 A  
HETATM   11  C   UNL     1     -11.796  12.863  70.294  1.00  0.00    -0.291 A  
HETATM   12  C   UNL     1     -11.727  13.481  67.568  1.00  0.00    -0.403 A  
BRANCH   5  13
HETATM   13  C   UNL     1     -10.486   8.709  67.661  1.00  0.00    -0.311 C  
HETATM   14  C   UNL     1      -9.292   8.145  67.904  1.00  0.00    -0.145 C  
BRANCH  14  15
HETATM   15  C   UNL     1      -8.898   6.777  67.420  1.00  0.00    -0.117 C  
HETATM   16  H   UNL     1      -8.959   5.875  65.725  1.00  0.00     0.000 HD 
HETATM   17  O   UNL     1      -9.208   6.740  66.031  1.00  0.00    -0.132 OA 
BRANCH  15  18
HETATM   18  C   UNL     1      -9.641   5.671  68.185  1.00  0.00    -0.135 C  
BRANCH  18  19
HETATM   19  C   UNL     1      -9.143   5.483  69.630  1.00  0.00    -0.128 C  
HETATM   20  O   UNL     1      -8.093   4.503  69.670  1.00  0.00    -0.061 OA 
HETATM   21  H   UNL     1      -7.786   4.387  70.561  1.00  0.00     0.000 HD 
BRANCH  19  22
HETATM   22  C   UNL     1     -10.251   5.043  70.586  1.00  0.00    -0.306 C  
HETATM   23  C   UNL     1      -9.772   4.420  71.878  1.00  0.00    -0.170 C  
HETATM   24  O   UNL     1      -8.655   4.974  72.398  1.00  0.00    -0.122 OA 
HETATM   25  O   UNL     1     -10.392   3.541  72.458  1.00  0.00    -0.168 OA 
ENDBRANCH  19  22
ENDBRANCH  18  19
ENDBRANCH  15  18
ENDBRANCH  14  15
ENDBRANCH   5  13
BRANCH   7  26
HETATM   26  C   UNL     1     -11.054   9.586  70.691  1.00  0.00    -0.364 A  
HETATM   27  C   UNL     1     -12.239   8.317  72.419  1.00  0.00    -0.412 A  
HETATM   28  C   UNL     1      -9.836   8.236  72.332  1.00  0.00    -0.375 A  
HETATM   29  C   UNL     1     -11.033   7.836  72.903  1.00  0.00    -0.407 A  
HETATM   30  C   UNL     1     -12.247   9.170  71.308  1.00  0.00    -0.395 A  
HETATM   31  C   UNL     1      -9.848   9.129  71.254  1.00  0.00    -0.363 A  
HETATM   32  F   UNL     1     -11.025   6.974  73.927  1.00  0.00    -0.340 F  
ENDBRANCH   7  26
ENDBRANCH   2   4
TORSDOF 7
ENDMDL
MODEL       65
REMARK 921   NORMALIZED FREE ENERGY PREDICTED BY IDOCK:   -5.97 KCAL/MOL
REMARK 922        TOTAL FREE ENERGY PREDICTED BY IDOCK:  -10.12 KCAL/MOL
REMARK 923 INTER-LIGAND FREE ENERGY PREDICTED BY IDOCK:   -8.32 KCAL/MOL
REMARK 924 INTRA-LIGAND FREE ENERGY PREDICTED BY IDOCK:   -1.81 KCAL/MOL
REMARK 927      BINDING AFFINITY PREDICTED BY RF-SCORE:    0.00 PKD
ROOT
HETATM    1  C   UNL     1     -10.595  20.079  68.284  1.00  0.00    -0.268 C  
HETATM    2  C   UNL     1     -10.386  18.960  67.258  1.00  0.00    -0.418 C  
HETATM    3  C   UNL     1     -10.701  19.347  65.812  1.00  0.00    -0.458 C  
ENDROOT
BRANCH   2   4
HETATM    4  N   UNL     1      -9.113  18.240  67.393  1.00  0.00    -0.252 NA 
HETATM    5  C   UNL     1      -8.890  16.989  67.961  1.00  0.00    -0.223 A  
HETATM    6  C   UNL     1      -5.323  19.371  66.127  1.00  0.00    -0.163 A  
HETATM    7  C   UNL     1      -7.545  16.651  67.738  1.00  0.00    -0.172 A  
HETATM    8  C   UNL     1      -6.312  20.336  66.023  1.00  0.00    -0.232 A  
HETATM    9  C   UNL     1      -7.911  18.781  66.955  1.00  0.00    -0.242 A  
HETATM   10  C   UNL     1      -6.929  17.796  67.105  1.00  0.00    -0.196 A  
HETATM   11  C   UNL     1      -5.623  18.105  66.646  1.00  0.00    -0.177 A  
HETATM   12  C   UNL     1      -7.617  20.052  66.422  1.00  0.00    -0.320 A  
BRANCH   5  13
HETATM   13  C   UNL     1      -9.973  16.286  68.561  1.00  0.00    -0.234 C  
HETATM   14  C   UNL     1     -10.685  15.363  67.894  1.00  0.00    -0.286 C  
BRANCH  14  15
HETATM   15  C   UNL     1     -11.798  14.559  68.506  1.00  0.00    -0.320 C  
HETATM   16  H   UNL     1     -12.004  13.558  70.133  1.00  0.00     0.000 HD 
HETATM   17  O   UNL     1     -11.300  14.066  69.746  1.00  0.00    -0.243 OA 
BRANCH  15  18
HETATM   18  C   UNL     1     -12.238  13.410  67.587  1.00  0.00    -0.202 C  
BRANCH  18  19
HETATM   19  C   UNL     1     -12.283  13.797  66.097  1.00  0.00    -0.459 C  
HETATM   20  O   UNL     1     -13.600  14.252  65.743  1.00  0.00    -0.550 OA 
HETATM   21  H   UNL     1     -13.627  14.490  64.824  1.00  0.00     0.000 HD 
BRANCH  19  22
HETATM   22  C   UNL     1     -11.906  12.642  65.173  1.00  0.00    -0.437 C  
HETATM   23  C   UNL     1     -12.452  12.742  63.766  1.00  0.00    -0.383 C  
HETATM   24  O   UNL     1     -12.483  13.992  63.255  1.00  0.00    -0.795 OA 
HETATM   25  O   UNL     1     -12.761  11.761  63.105  1.00  0.00    -0.513 OA 
ENDBRANCH  19  22
ENDBRANCH  18  19
ENDBRANCH  15  18
ENDBRANCH  14  15
ENDBRANCH   5  13
BRANCH   7  26
HETATM   26  C   UNL     1      -6.924  15.379  68.171  1.00  0.00    -0.131 A  
HETATM   27  C   UNL     1      -5.462  14.149  69.704  1.00  0.00    -0.094 A  
HETATM   28  C   UNL     1      -6.705  12.944  68.033  1.00  0.00    -0.109 A  
HETATM   29  C   UNL     1      -5.831  12.954  69.107  1.00  0.00    -0.081 A  
HETATM   30  C   UNL     1      -6.022  15.350  69.249  1.00  0.00    -0.110 A  
HETATM   31  C   UNL     1      -7.222  14.152  67.550  1.00  0.00    -0.188 A  
HETATM   32  F   UNL     1      -5.344  11.799  69.578  1.00  0.00    -0.057 F  
ENDBRANCH   7  26
ENDBRANCH   2   4
TORSDOF 7
ENDMDL
MODEL       66
REMARK 921   NORMALIZED FREE ENERGY PREDICTED BY IDOCK:   -5.97 KCAL/MOL
REMARK 922        TOTAL FREE ENERGY PREDICTED BY IDOCK:  -10.11 KCAL/MOL
REMARK 923 INTER-LIGAND FREE ENERGY PREDICTED BY IDOCK:   -8.26 KCAL/MOL
REMARK 924 INTRA-LIGAND FREE ENERGY PREDICTED BY IDOCK:   -1.85 KCAL/MOL
REMARK 927      BINDING AFFINITY PREDICTED BY RF-SCORE:    0.00 PKD
ROOT
HETATM    1  C   UNL     1      -6.591   9.925  63.486  1.00  0.00    -0.124 C  
HETATM    2  C   UNL     1      -8.042   9.796  63.961  1.00  0.00    -0.150 C  
HETATM    3  C   UNL     1      -9.093   9.925  62.857  1.00  0.00    -0.291 C  
ENDROOT
BRANCH   2   4
HETATM    4  N   UNL     1      -8.291   8.659  64.858  1.00  0.00    -0.161 NA 
HETATM    5  C   UNL     1      -8.788   8.683  66.157  1.00  0.00    -0.171 A  
HETATM    6  C   UNL     1      -7.768   4.602  64.142  1.00  0.00    -0.078 A  
HETATM    7  C   UNL     1      -8.989   7.354  66.564  1.00  0.00    -0.184 A  
HETATM    8  C   UNL     1      -7.279   5.459  63.169  1.00  0.00    -0.044 A  
HETATM    9  C   UNL     1      -8.018   7.350  64.481  1.00  0.00    -0.122 A  
HETATM   10  C   UNL     1      -8.491   6.514  65.497  1.00  0.00    -0.139 A  
HETATM   11  C   UNL     1      -8.385   5.115  65.290  1.00  0.00    -0.139 A  
HETATM   12  C   UNL     1      -7.408   6.839  63.317  1.00  0.00    -0.076 A  
BRANCH   5  13
HETATM   13  C   UNL     1      -9.054   9.934  66.785  1.00  0.00    -0.164 C  
HETATM   14  C   UNL     1     -10.302  10.402  66.947  1.00  0.00    -0.297 C  
BRANCH  14  15
HETATM   15  C   UNL     1     -10.630  11.688  67.653  1.00  0.00    -0.203 C  
HETATM   16  H   UNL     1     -12.256  12.606  68.102  1.00  0.00     0.000 HD 
HETATM   17  O   UNL     1     -12.050  11.793  67.656  1.00  0.00    -0.598 OA 
BRANCH  15  18
HETATM   18  C   UNL     1      -9.985  12.896  66.956  1.00  0.00    -0.244 C  
BRANCH  18  19
HETATM   19  C   UNL     1     -10.816  13.443  65.782  1.00  0.00    -0.275 C  
HETATM   20  O   UNL     1     -10.155  13.167  64.535  1.00  0.00    -0.561 OA 
HETATM   21  H   UNL     1     -10.668  13.505  63.811  1.00  0.00     0.000 HD 
BRANCH  19  22
HETATM   22  C   UNL     1     -11.057  14.949  65.877  1.00  0.00    -0.338 C  
HETATM   23  C   UNL     1     -11.585  15.594  64.615  1.00  0.00    -0.249 C  
HETATM   24  O   UNL     1     -12.464  14.844  63.917  1.00  0.00    -0.806 OA 
HETATM   25  O   UNL     1     -11.308  16.740  64.293  1.00  0.00    -1.170 OA 
ENDBRANCH  19  22
ENDBRANCH  18  19
ENDBRANCH  15  18
ENDBRANCH  14  15
ENDBRANCH   5  13
BRANCH   7  26
HETATM   26  C   UNL     1      -9.533   6.961  67.882  1.00  0.00    -0.120 A  
HETATM   27  C   UNL     1      -9.227   6.639  70.291  1.00  0.00    -0.156 A  
HETATM   28  C   UNL     1     -11.408   6.324  69.325  1.00  0.00    -0.411 A  
HETATM   29  C   UNL     1     -10.575   6.351  70.431  1.00  0.00    -0.241 A  
HETATM   30  C   UNL     1      -8.717   6.961  69.027  1.00  0.00    -0.131 A  
HETATM   31  C   UNL     1     -10.882   6.598  68.057  1.00  0.00    -0.345 A  
HETATM   32  F   UNL     1     -11.077   6.100  71.647  1.00  0.00    -0.277 F  
ENDBRANCH   7  26
ENDBRANCH   2   4
TORSDOF 7
ENDMDL
MODEL       67
REMARK 921   NORMALIZED FREE ENERGY PREDICTED BY IDOCK:   -5.95 KCAL/MOL
REMARK 922        TOTAL FREE ENERGY PREDICTED BY IDOCK:  -10.09 KCAL/MOL
REMARK 923 INTER-LIGAND FREE ENERGY PREDICTED BY IDOCK:   -8.97 KCAL/MOL
REMARK 924 INTRA-LIGAND FREE ENERGY PREDICTED BY IDOCK:   -1.13 KCAL/MOL
REMARK 927      BINDING AFFINITY PREDICTED BY RF-SCORE:    0.00 PKD
ROOT
HETATM    1  C   UNL     1     -13.101  11.733  71.805  1.00  0.00    -0.480 C  
HETATM    2  C   UNL     1     -12.909  10.213  71.833  1.00  0.00    -0.427 C  
HETATM    3  C   UNL     1     -14.090   9.407  71.291  1.00  0.00    -0.031 C  
ENDROOT
BRANCH   2   4
HETATM    4  N   UNL     1     -11.615   9.753  71.312  1.00  0.00    -0.373 NA 
HETATM    5  C   UNL     1     -10.912  10.232  70.211  1.00  0.00    -0.309 A  
HETATM    6  C   UNL     1      -9.117   6.778  72.781  1.00  0.00    -0.148 A  
HETATM    7  C   UNL     1      -9.666   9.585  70.183  1.00  0.00    -0.289 A  
HETATM    8  C   UNL     1     -10.365   6.873  73.377  1.00  0.00    -0.337 A  
HETATM    9  C   UNL     1     -10.918   8.703  71.897  1.00  0.00    -0.342 A  
HETATM   10  C   UNL     1      -9.680   8.611  71.253  1.00  0.00    -0.305 A  
HETATM   11  C   UNL     1      -8.763   7.646  71.741  1.00  0.00    -0.137 A  
HETATM   12  C   UNL     1     -11.274   7.841  72.953  1.00  0.00    -0.434 A  
BRANCH   5  13
HETATM   13  C   UNL     1     -11.485  11.254  69.401  1.00  0.00    -0.370 C  
HETATM   14  C   UNL     1     -10.783  12.327  69.000  1.00  0.00    -0.149 C  
BRANCH  14  15
HETATM   15  C   UNL     1     -11.333  13.399  68.101  1.00  0.00    -0.287 C  
HETATM   16  H   UNL     1     -12.725  14.712  68.261  1.00  0.00     0.000 HD 
HETATM   17  O   UNL     1     -12.378  14.035  68.830  1.00  0.00    -0.287 OA 
BRANCH  15  18
HETATM   18  C   UNL     1     -11.852  12.817  66.778  1.00  0.00    -0.452 C  
BRANCH  18  19
HETATM   19  C   UNL     1     -12.009  13.868  65.664  1.00  0.00    -0.392 C  
HETATM   20  O   UNL     1     -13.392  13.997  65.295  1.00  0.00    -0.741 OA 
HETATM   21  H   UNL     1     -13.488  14.645  64.607  1.00  0.00     0.000 HD 
BRANCH  19  22
HETATM   22  C   UNL     1     -11.204  13.528  64.411  1.00  0.00    -0.399 C  
HETATM   23  C   UNL     1     -11.633  12.265  63.697  1.00  0.00    -0.496 C  
HETATM   24  O   UNL     1     -12.965  12.041  63.688  1.00  0.00    -0.747 OA 
HETATM   25  O   UNL     1     -10.848  11.546  63.097  1.00  0.00    -0.306 OA 
ENDBRANCH  19  22
ENDBRANCH  18  19
ENDBRANCH  15  18
ENDBRANCH  14  15
ENDBRANCH   5  13
BRANCH   7  26
HETATM   26  C   UNL     1      -8.617   9.842  69.172  1.00  0.00    -0.157 A  
HETATM   27  C   UNL     1      -7.815   9.682  66.862  1.00  0.00    -0.102 A  
HETATM   28  C   UNL     1      -6.503  10.873  68.489  1.00  0.00    -0.054 A  
HETATM   29  C   UNL     1      -6.701  10.438  67.189  1.00  0.00    -0.078 A  
HETATM   30  C   UNL     1      -8.775   9.404  67.844  1.00  0.00    -0.120 A  
HETATM   31  C   UNL     1      -7.440  10.550  69.477  1.00  0.00    -0.146 A  
HETATM   32  F   UNL     1      -5.812  10.755  66.239  1.00  0.00    -0.070 F  
ENDBRANCH   7  26
ENDBRANCH   2   4
TORSDOF 7
ENDMDL
MODEL       68
REMARK 921   NORMALIZED FREE ENERGY PREDICTED BY IDOCK:   -5.95 KCAL/MOL
REMARK 922        TOTAL FREE ENERGY PREDICTED BY IDOCK:  -10.09 KCAL/MOL
REMARK 923 INTER-LIGAND FREE ENERGY PREDICTED BY IDOCK:   -9.05 KCAL/MOL
REMARK 924 INTRA-LIGAND FREE ENERGY PREDICTED BY IDOCK:   -1.04 KCAL/MOL
REMARK 927      BINDING AFFINITY PREDICTED BY RF-SCORE:    0.00 PKD
ROOT
HETATM    1  C   UNL     1      -5.883  15.624  67.492  1.00  0.00    -0.103 C  
HETATM    2  C   UNL     1      -6.956  15.099  68.451  1.00  0.00    -0.108 C  
HETATM    3  C   UNL     1      -7.779  16.182  69.150  1.00  0.00    -0.230 C  
ENDROOT
BRANCH   2   4
HETATM    4  N   UNL     1      -7.783  14.015  67.904  1.00  0.00    -0.141 NA 
HETATM    5  C   UNL     1      -8.789  14.101  66.946  1.00  0.00    -0.203 A  
HETATM    6  C   UNL     1      -7.663   9.953  68.759  1.00  0.00    -0.086 A  
HETATM    7  C   UNL     1      -9.199  12.793  66.637  1.00  0.00    -0.212 A  
HETATM    8  C   UNL     1      -6.881  10.766  69.563  1.00  0.00    -0.116 A  
HETATM    9  C   UNL     1      -7.650  12.700  68.333  1.00  0.00    -0.132 A  
HETATM   10  C   UNL     1      -8.476  11.910  67.526  1.00  0.00    -0.161 A  
HETATM   11  C   UNL     1      -8.443  10.508  67.737  1.00  0.00    -0.114 A  
HETATM   12  C   UNL     1      -6.853  12.144  69.354  1.00  0.00    -0.010 A  
BRANCH   5  13
HETATM   13  C   UNL     1      -9.161  15.374  66.430  1.00  0.00    -0.339 C  
HETATM   14  C   UNL     1     -10.445  15.723  66.242  1.00  0.00    -0.315 C  
BRANCH  14  15
HETATM   15  C   UNL     1     -10.883  17.075  65.751  1.00  0.00    -0.046 C  
HETATM   16  H   UNL     1     -11.320  17.811  64.032  1.00  0.00     0.000 HD 
HETATM   17  O   UNL     1     -11.044  16.957  64.341  1.00  0.00    -1.128 OA 
BRANCH  15  18
HETATM   18  C   UNL     1      -9.858  18.164  66.104  1.00  0.00    -0.255 C  
BRANCH  18  19
HETATM   19  C   UNL     1     -10.496  19.455  66.648  1.00  0.00    -0.469 C  
HETATM   20  O   UNL     1     -10.253  20.547  65.745  1.00  0.00    -0.492 OA 
HETATM   21  H   UNL     1     -10.646  21.343  66.080  1.00  0.00     0.000 HD 
BRANCH  19  22
HETATM   22  C   UNL     1      -9.967  19.843  68.027  1.00  0.00    -0.556 C  
HETATM   23  C   UNL     1      -8.460  19.870  68.151  1.00  0.00    -0.242 C  
HETATM   24  O   UNL     1      -7.807  20.324  67.059  1.00  0.00    -0.307 OA 
HETATM   25  O   UNL     1      -7.876  19.586  69.187  1.00  0.00    -0.348 OA 
ENDBRANCH  19  22
ENDBRANCH  18  19
ENDBRANCH  15  18
ENDBRANCH  14  15
ENDBRANCH   5  13
BRANCH   7  26
HETATM   26  C   UNL     1     -10.239  12.462  65.638  1.00  0.00    -0.285 A  
HETATM   27  C   UNL     1     -12.574  12.545  64.904  1.00  0.00    -0.469 A  
HETATM   28  C   UNL     1     -10.910  11.601  63.445  1.00  0.00    -0.453 A  
HETATM   29  C   UNL     1     -12.222  11.969  63.694  1.00  0.00    -0.538 A  
HETATM   30  C   UNL     1     -11.585  12.806  65.859  1.00  0.00    -0.428 A  
HETATM   31  C   UNL     1      -9.933  11.819  64.425  1.00  0.00    -0.281 A  
HETATM   32  F   UNL     1     -13.156  11.772  62.755  1.00  0.00    -0.481 F  
ENDBRANCH   7  26
ENDBRANCH   2   4
TORSDOF 7
ENDMDL
MODEL       69
REMARK 921   NORMALIZED FREE ENERGY PREDICTED BY IDOCK:   -5.88 KCAL/MOL
REMARK 922        TOTAL FREE ENERGY PREDICTED BY IDOCK:   -9.99 KCAL/MOL
REMARK 923 INTER-LIGAND FREE ENERGY PREDICTED BY IDOCK:   -8.41 KCAL/MOL
REMARK 924 INTRA-LIGAND FREE ENERGY PREDICTED BY IDOCK:   -1.58 KCAL/MOL
REMARK 927      BINDING AFFINITY PREDICTED BY RF-SCORE:    0.00 PKD
ROOT
HETATM    1  C   UNL     1     -13.548   7.488  71.497  1.00  0.00    -0.439 C  
HETATM    2  C   UNL     1     -12.092   7.820  71.152  1.00  0.00    -0.286 C  
HETATM    3  C   UNL     1     -11.370   8.688  72.183  1.00  0.00    -0.434 C  
ENDROOT
BRANCH   2   4
HETATM    4  N   UNL     1     -11.292   6.669  70.712  1.00  0.00    -0.314 NA 
HETATM    5  C   UNL     1     -10.751   6.431  69.452  1.00  0.00    -0.289 A  
HETATM    6  C   UNL     1     -10.024   3.377  72.902  1.00  0.00    -0.214 A  
HETATM    7  C   UNL     1      -9.950   5.280  69.540  1.00  0.00    -0.297 A  
HETATM    8  C   UNL     1     -10.921   4.221  73.537  1.00  0.00    -0.373 A  
HETATM    9  C   UNL     1     -10.989   5.614  71.563  1.00  0.00    -0.200 A  
HETATM   10  C   UNL     1     -10.111   4.765  70.882  1.00  0.00    -0.275 A  
HETATM   11  C   UNL     1      -9.605   3.647  71.593  1.00  0.00    -0.226 A  
HETATM   12  C   UNL     1     -11.404   5.354  72.885  1.00  0.00    -0.365 A  
BRANCH   5  13
HETATM   13  C   UNL     1     -11.015   7.342  68.390  1.00  0.00    -0.028 C  
HETATM   14  C   UNL     1     -10.171   8.339  68.077  1.00  0.00    -0.265 C  
BRANCH  14  15
HETATM   15  C   UNL     1     -10.384   9.288  66.929  1.00  0.00    -0.246 C  
HETATM   16  H   UNL     1      -9.786   9.356  65.105  1.00  0.00     0.000 HD 
HETATM   17  O   UNL     1      -9.651   8.756  65.830  1.00  0.00    -0.219 OA 
BRANCH  15  18
HETATM   18  C   UNL     1      -9.915  10.709  67.275  1.00  0.00    -0.224 C  
BRANCH  18  19
HETATM   19  C   UNL     1     -10.893  11.807  66.818  1.00  0.00    -0.270 C  
HETATM   20  O   UNL     1     -12.152  11.663  67.496  1.00  0.00    -0.611 OA 
HETATM   21  H   UNL     1     -12.755  12.340  67.214  1.00  0.00     0.000 HD 
BRANCH  19  22
HETATM   22  C   UNL     1     -11.150  11.783  65.313  1.00  0.00    -0.333 C  
HETATM   23  C   UNL     1     -12.330  12.607  64.851  1.00  0.00    -0.498 C  
HETATM   24  O   UNL     1     -12.509  13.769  65.516  1.00  0.00    -0.454 OA 
HETATM   25  O   UNL     1     -13.021  12.294  63.892  1.00  0.00    -0.753 OA 
ENDBRANCH  19  22
ENDBRANCH  18  19
ENDBRANCH  15  18
ENDBRANCH  14  15
ENDBRANCH   5  13
BRANCH   7  26
HETATM   26  C   UNL     1      -9.180   4.715  68.411  1.00  0.00    -0.170 A  
HETATM   27  C   UNL     1      -9.111   3.810  66.135  1.00  0.00    -0.151 A  
HETATM   28  C   UNL     1      -7.054   4.143  67.338  1.00  0.00    -0.067 A  
HETATM   29  C   UNL     1      -7.727   3.761  66.189  1.00  0.00    -0.089 A  
HETATM   30  C   UNL     1      -9.828   4.302  67.233  1.00  0.00    -0.193 A  
HETATM   31  C   UNL     1      -7.779   4.587  68.450  1.00  0.00    -0.079 A  
HETATM   32  F   UNL     1      -7.035   3.347  65.121  1.00  0.00    -0.048 F  
ENDBRANCH   7  26
ENDBRANCH   2   4
TORSDOF 7
ENDMDL
MODEL       70
REMARK 921   NORMALIZED FREE ENERGY PREDICTED BY IDOCK:   -5.87 KCAL/MOL
REMARK 922        TOTAL FREE ENERGY PREDICTED BY IDOCK:   -9.98 KCAL/MOL
REMARK 923 INTER-LIGAND FREE ENERGY PREDICTED BY IDOCK:   -8.92 KCAL/MOL
REMARK 924 INTRA-LIGAND FREE ENERGY PREDICTED BY IDOCK:   -1.06 KCAL/MOL
REMARK 927      BINDING AFFINITY PREDICTED BY RF-SCORE:    0.00 PKD
ROOT
HETATM    1  C   UNL     1     -10.429  19.312  67.811  1.00  0.00    -0.539 C  
HETATM    2  C   UNL     1      -9.224  18.767  67.037  1.00  0.00    -0.294 C  
HETATM    3  C   UNL     1      -8.485  19.802  66.188  1.00  0.00    -0.367 C  
ENDROOT
BRANCH   2   4
HETATM    4  N   UNL     1      -8.319  17.926  67.832  1.00  0.00    -0.241 NA 
HETATM    5  C   UNL     1      -8.222  16.538  67.840  1.00  0.00    -0.168 A  
HETATM    6  C   UNL     1      -5.385  19.076  70.536  1.00  0.00    -0.231 A  
HETATM    7  C   UNL     1      -7.126  16.190  68.646  1.00  0.00    -0.147 A  
HETATM    8  C   UNL     1      -6.209  20.086  70.067  1.00  0.00    -0.395 A  
HETATM    9  C   UNL     1      -7.416  18.468  68.737  1.00  0.00    -0.286 A  
HETATM   10  C   UNL     1      -6.623  17.420  69.217  1.00  0.00    -0.240 A  
HETATM   11  C   UNL     1      -5.572  17.756  70.107  1.00  0.00    -0.242 A  
HETATM   12  C   UNL     1      -7.223  19.801  69.155  1.00  0.00    -0.319 A  
BRANCH   5  13
HETATM   13  C   UNL     1      -9.121  15.765  67.051  1.00  0.00    -0.240 C  
HETATM   14  C   UNL     1     -10.179  15.132  67.585  1.00  0.00    -0.241 C  
BRANCH  14  15
HETATM   15  C   UNL     1     -11.182  14.352  66.780  1.00  0.00    -0.337 C  
HETATM   16  H   UNL     1     -12.878  13.537  67.163  1.00  0.00     0.000 HD 
HETATM   17  O   UNL     1     -12.245  14.029  67.672  1.00  0.00    -0.352 OA 
BRANCH  15  18
HETATM   18  C   UNL     1     -10.560  13.085  66.174  1.00  0.00    -0.289 C  
BRANCH  18  19
HETATM   19  C   UNL     1     -10.190  13.234  64.687  1.00  0.00    -0.313 C  
HETATM   20  O   UNL     1     -10.467  14.570  64.238  1.00  0.00    -0.486 OA 
HETATM   21  H   UNL     1     -10.239  14.661  63.321  1.00  0.00     0.000 HD 
BRANCH  19  22
HETATM   22  C   UNL     1     -10.945  12.256  63.788  1.00  0.00    -0.495 C  
HETATM   23  C   UNL     1     -12.381  12.630  63.499  1.00  0.00    -0.496 C  
HETATM   24  O   UNL     1     -12.605  13.952  63.343  1.00  0.00    -0.853 OA 
HETATM   25  O   UNL     1     -13.260  11.797  63.332  1.00  0.00    -0.569 OA 
ENDBRANCH  19  22
ENDBRANCH  18  19
ENDBRANCH  15  18
ENDBRANCH  14  15
ENDBRANCH   5  13
BRANCH   7  26
HETATM   26  C   UNL     1      -6.678  14.801  68.886  1.00  0.00    -0.098 A  
HETATM   27  C   UNL     1      -6.074  12.589  68.021  1.00  0.00    -0.088 A  
HETATM   28  C   UNL     1      -5.827  13.047  70.370  1.00  0.00    -0.152 A  
HETATM   29  C   UNL     1      -5.694  12.188  69.292  1.00  0.00    -0.073 A  
HETATM   30  C   UNL     1      -6.544  13.893  67.820  1.00  0.00    -0.186 A  
HETATM   31  C   UNL     1      -6.344  14.333  70.171  1.00  0.00    -0.144 A  
HETATM   32  F   UNL     1      -5.190  10.962  69.478  1.00  0.00    -0.039 F  
ENDBRANCH   7  26
ENDBRANCH   2   4
TORSDOF 7
ENDMDL
MODEL       71
REMARK 921   NORMALIZED FREE ENERGY PREDICTED BY IDOCK:   -5.85 KCAL/MOL
REMARK 922        TOTAL FREE ENERGY PREDICTED BY IDOCK:   -9.95 KCAL/MOL
REMARK 923 INTER-LIGAND FREE ENERGY PREDICTED BY IDOCK:   -8.19 KCAL/MOL
REMARK 924 INTRA-LIGAND FREE ENERGY PREDICTED BY IDOCK:   -1.77 KCAL/MOL
REMARK 927      BINDING AFFINITY PREDICTED BY RF-SCORE:    0.00 PKD
ROOT
HETATM    1  C   UNL     1      -9.500   8.402  72.727  1.00  0.00    -0.312 C  
HETATM    2  C   UNL     1     -10.559   7.799  71.799  1.00  0.00    -0.217 C  
HETATM    3  C   UNL     1     -11.955   8.407  71.936  1.00  0.00    -0.397 C  
ENDROOT
BRANCH   2   4
HETATM    4  N   UNL     1     -10.133   7.654  70.400  1.00  0.00    -0.189 NA 
HETATM    5  C   UNL     1      -9.941   8.654  69.453  1.00  0.00    -0.197 A  
HETATM    6  C   UNL     1      -9.135   4.202  68.318  1.00  0.00    -0.176 A  
HETATM    7  C   UNL     1      -9.398   8.057  68.303  1.00  0.00    -0.143 A  
HETATM    8  C   UNL     1      -9.675   4.016  69.580  1.00  0.00    -0.227 A  
HETATM    9  C   UNL     1      -9.879   6.411  69.833  1.00  0.00    -0.167 A  
HETATM   10  C   UNL     1      -9.368   6.633  68.550  1.00  0.00    -0.125 A  
HETATM   11  C   UNL     1      -8.963   5.495  67.806  1.00  0.00    -0.108 A  
HETATM   12  C   UNL     1     -10.041   5.113  70.357  1.00  0.00    -0.333 A  
BRANCH   5  13
HETATM   13  C   UNL     1     -10.233  10.007  69.789  1.00  0.00    -0.286 C  
HETATM   14  C   UNL     1     -11.197  10.707  69.169  1.00  0.00    -0.324 C  
BRANCH  14  15
HETATM   15  C   UNL     1     -11.574  12.116  69.530  1.00  0.00    -0.315 C  
HETATM   16  H   UNL     1     -12.764  12.909  70.813  1.00  0.00     0.000 HD 
HETATM   17  O   UNL     1     -12.526  12.018  70.585  1.00  0.00    -0.315 OA 
BRANCH  15  18
HETATM   18  C   UNL     1     -12.154  12.874  68.326  1.00  0.00    -0.173 C  
BRANCH  18  19
HETATM   19  C   UNL     1     -11.089  13.307  67.302  1.00  0.00    -0.279 C  
HETATM   20  O   UNL     1     -11.069  14.739  67.182  1.00  0.00    -0.314 OA 
HETATM   21  H   UNL     1     -10.413  15.005  66.550  1.00  0.00     0.000 HD 
BRANCH  19  22
HETATM   22  C   UNL     1     -11.323  12.709  65.916  1.00  0.00    -0.373 C  
HETATM   23  C   UNL     1     -12.651  13.061  65.283  1.00  0.00    -0.457 C  
HETATM   24  O   UNL     1     -13.082  14.317  65.524  1.00  0.00    -0.639 OA 
HETATM   25  O   UNL     1     -13.250  12.299  64.537  1.00  0.00    -0.799 OA 
ENDBRANCH  19  22
ENDBRANCH  18  19
ENDBRANCH  15  18
ENDBRANCH  14  15
ENDBRANCH   5  13
BRANCH   7  26
HETATM   26  C   UNL     1      -9.028   8.798  67.077  1.00  0.00    -0.151 A  
HETATM   27  C   UNL     1      -7.320   9.854  65.674  1.00  0.00    -0.116 A  
HETATM   28  C   UNL     1      -9.588   9.727  64.881  1.00  0.00    -0.316 A  
HETATM   29  C   UNL     1      -8.265  10.089  64.688  1.00  0.00    -0.163 A  
HETATM   30  C   UNL     1      -7.698   9.195  66.850  1.00  0.00    -0.098 A  
HETATM   31  C   UNL     1      -9.970   9.114  66.080  1.00  0.00    -0.338 A  
HETATM   32  F   UNL     1      -7.895  10.665  63.537  1.00  0.00    -0.142 F  
ENDBRANCH   7  26
ENDBRANCH   2   4
TORSDOF 7
ENDMDL
MODEL       72
REMARK 921   NORMALIZED FREE ENERGY PREDICTED BY IDOCK:   -5.83 KCAL/MOL
REMARK 922        TOTAL FREE ENERGY PREDICTED BY IDOCK:   -9.93 KCAL/MOL
REMARK 923 INTER-LIGAND FREE ENERGY PREDICTED BY IDOCK:   -8.41 KCAL/MOL
REMARK 924 INTRA-LIGAND FREE ENERGY PREDICTED BY IDOCK:   -1.52 KCAL/MOL
REMARK 927      BINDING AFFINITY PREDICTED BY RF-SCORE:    0.00 PKD
ROOT
HETATM    1  C   UNL     1     -10.476  20.142  68.320  1.00  0.00    -0.357 C  
HETATM    2  C   UNL     1     -10.572  19.078  67.222  1.00  0.00    -0.470 C  
HETATM    3  C   UNL     1     -10.880  19.620  65.826  1.00  0.00    -0.405 C  
ENDROOT
BRANCH   2   4
HETATM    4  N   UNL     1      -9.478  18.097  67.227  1.00  0.00    -0.257 NA 
HETATM    5  C   UNL     1      -9.478  16.812  67.761  1.00  0.00    -0.228 A  
HETATM    6  C   UNL     1      -5.671  18.424  65.602  1.00  0.00    -0.241 A  
HETATM    7  C   UNL     1      -8.266  16.199  67.405  1.00  0.00    -0.185 A  
HETATM    8  C   UNL     1      -6.432  19.581  65.602  1.00  0.00    -0.265 A  
HETATM    9  C   UNL     1      -8.235  18.379  66.676  1.00  0.00    -0.266 A  
HETATM   10  C   UNL     1      -7.479  17.203  66.721  1.00  0.00    -0.263 A  
HETATM   11  C   UNL     1      -6.187  17.237  66.138  1.00  0.00    -0.122 A  
HETATM   12  C   UNL     1      -7.724  19.572  66.125  1.00  0.00    -0.324 A  
BRANCH   5  13
HETATM   13  C   UNL     1     -10.626  16.341  68.460  1.00  0.00    -0.294 C  
HETATM   14  C   UNL     1     -10.669  16.273  69.801  1.00  0.00    -0.345 C  
BRANCH  14  15
HETATM   15  C   UNL     1     -11.879  15.835  70.579  1.00  0.00    -0.375 C  
HETATM   16  H   UNL     1     -12.639  16.313  72.277  1.00  0.00     0.000 HD 
HETATM   17  O   UNL     1     -11.874  16.590  71.786  1.00  0.00    -0.423 OA 
BRANCH  15  18
HETATM   18  C   UNL     1     -11.851  14.326  70.867  1.00  0.00    -0.322 C  
BRANCH  18  19
HETATM   19  C   UNL     1     -13.233  13.739  71.206  1.00  0.00    -0.261 C  
HETATM   20  O   UNL     1     -14.094  14.766  71.726  1.00  0.00    -0.414 OA 
HETATM   21  H   UNL     1     -14.947  14.404  71.935  1.00  0.00     0.000 HD 
BRANCH  19  22
HETATM   22  C   UNL     1     -13.162  12.606  72.228  1.00  0.00    -0.465 C  
HETATM   23  C   UNL     1     -12.931  11.230  71.643  1.00  0.00    -0.432 C  
HETATM   24  O   UNL     1     -12.096  11.195  70.583  1.00  0.00    -0.338 OA 
HETATM   25  O   UNL     1     -13.393  10.214  72.142  1.00  0.00    -0.441 OA 
ENDBRANCH  19  22
ENDBRANCH  18  19
ENDBRANCH  15  18
ENDBRANCH  14  15
ENDBRANCH   5  13
BRANCH   7  26
HETATM   26  C   UNL     1      -7.897  14.813  67.765  1.00  0.00    -0.163 A  
HETATM   27  C   UNL     1      -6.495  13.255  69.034  1.00  0.00    -0.102 A  
HETATM   28  C   UNL     1      -8.307  12.399  67.702  1.00  0.00    -0.169 A  
HETATM   29  C   UNL     1      -7.256  12.190  68.580  1.00  0.00    -0.109 A  
HETATM   30  C   UNL     1      -6.827  14.558  68.643  1.00  0.00    -0.093 A  
HETATM   31  C   UNL     1      -8.603  13.699  67.275  1.00  0.00    -0.220 A  
HETATM   32  F   UNL     1      -6.978  10.949  68.999  1.00  0.00    -0.061 F  
ENDBRANCH   7  26
ENDBRANCH   2   4
TORSDOF 7
ENDMDL
MODEL       73
REMARK 921   NORMALIZED FREE ENERGY PREDICTED BY IDOCK:   -5.82 KCAL/MOL
REMARK 922        TOTAL FREE ENERGY PREDICTED BY IDOCK:   -9.91 KCAL/MOL
REMARK 923 INTER-LIGAND FREE ENERGY PREDICTED BY IDOCK:   -8.09 KCAL/MOL
REMARK 924 INTRA-LIGAND FREE ENERGY PREDICTED BY IDOCK:   -1.82 KCAL/MOL
REMARK 927      BINDING AFFINITY PREDICTED BY RF-SCORE:    0.00 PKD
ROOT
HETATM    1  C   UNL     1     -12.629   9.890  71.094  1.00  0.00    -0.464 C  
HETATM    2  C   UNL     1     -11.117   9.726  70.913  1.00  0.00    -0.357 C  
HETATM    3  C   UNL     1     -10.413   8.966  72.038  1.00  0.00    -0.383 C  
ENDROOT
BRANCH   2   4
HETATM    4  N   UNL     1     -10.708   9.277  69.575  1.00  0.00    -0.229 NA 
HETATM    5  C   UNL     1     -10.301  10.054  68.495  1.00  0.00    -0.193 A  
HETATM    6  C   UNL     1     -10.407   5.407  68.099  1.00  0.00    -0.210 A  
HETATM    7  C   UNL     1      -9.874   9.184  67.478  1.00  0.00    -0.227 A  
HETATM    8  C   UNL     1     -10.993   5.537  69.347  1.00  0.00    -0.101 A  
HETATM    9  C   UNL     1     -10.705   7.934  69.219  1.00  0.00    -0.135 A  
HETATM   10  C   UNL     1     -10.141   7.840  67.943  1.00  0.00    -0.232 A  
HETATM   11  C   UNL     1      -9.966   6.540  67.403  1.00  0.00    -0.180 A  
HETATM   12  C   UNL     1     -11.138   6.796  69.928  1.00  0.00    -0.374 A  
BRANCH   5  13
HETATM   13  C   UNL     1     -10.314  11.473  68.605  1.00  0.00    -0.226 C  
HETATM   14  C   UNL     1     -11.426  12.197  68.390  1.00  0.00    -0.356 C  
BRANCH  14  15
HETATM   15  C   UNL     1     -11.496  13.691  68.550  1.00  0.00    -0.312 C  
HETATM   16  H   UNL     1     -12.447  14.880  69.721  1.00  0.00     0.000 HD 
HETATM   17  O   UNL     1     -12.403  13.936  69.621  1.00  0.00    -0.328 OA 
BRANCH  15  18
HETATM   18  C   UNL     1     -11.964  14.376  67.257  1.00  0.00    -0.409 C  
BRANCH  18  19
HETATM   19  C   UNL     1     -10.820  15.025  66.457  1.00  0.00    -0.320 C  
HETATM   20  O   UNL     1     -10.342  14.117  65.450  1.00  0.00    -0.325 OA 
HETATM   21  H   UNL     1      -9.636  14.518  64.957  1.00  0.00     0.000 HD 
BRANCH  19  22
HETATM   22  C   UNL     1      -9.641  15.436  67.336  1.00  0.00    -0.210 C  
HETATM   23  C   UNL     1      -8.530  16.168  66.617  1.00  0.00    -0.280 C  
HETATM   24  O   UNL     1      -8.941  17.019  65.652  1.00  0.00    -0.492 OA 
HETATM   25  O   UNL     1      -7.355  16.068  66.939  1.00  0.00    -0.219 OA 
ENDBRANCH  19  22
ENDBRANCH  18  19
ENDBRANCH  15  18
ENDBRANCH  14  15
ENDBRANCH   5  13
BRANCH   7  26
HETATM   26  C   UNL     1      -9.342   9.629  66.171  1.00  0.00    -0.248 A  
HETATM   27  C   UNL     1      -7.487   9.776  64.578  1.00  0.00    -0.135 A  
HETATM   28  C   UNL     1      -9.658  10.592  63.942  1.00  0.00    -0.356 A  
HETATM   29  C   UNL     1      -8.331  10.341  63.636  1.00  0.00    -0.169 A  
HETATM   30  C   UNL     1      -7.996   9.405  65.829  1.00  0.00    -0.110 A  
HETATM   31  C   UNL     1     -10.150  10.266  65.212  1.00  0.00    -0.359 A  
HETATM   32  F   UNL     1      -7.861  10.642  62.419  1.00  0.00    -0.151 F  
ENDBRANCH   7  26
ENDBRANCH   2   4
TORSDOF 7
ENDMDL
MODEL       74
REMARK 921   NORMALIZED FREE ENERGY PREDICTED BY IDOCK:   -5.80 KCAL/MOL
REMARK 922        TOTAL FREE ENERGY PREDICTED BY IDOCK:   -9.88 KCAL/MOL
REMARK 923 INTER-LIGAND FREE ENERGY PREDICTED BY IDOCK:   -8.91 KCAL/MOL
REMARK 924 INTRA-LIGAND FREE ENERGY PREDICTED BY IDOCK:   -0.97 KCAL/MOL
REMARK 927      BINDING AFFINITY PREDICTED BY RF-SCORE:    0.00 PKD
ROOT
HETATM    1  C   UNL     1     -13.607   9.518  71.004  1.00  0.00    -0.143 C  
HETATM    2  C   UNL     1     -12.353  10.341  71.318  1.00  0.00    -0.403 C  
HETATM    3  C   UNL     1     -11.046   9.548  71.314  1.00  0.00    -0.449 C  
ENDROOT
BRANCH   2   4
HETATM    4  N   UNL     1     -12.257  11.608  70.581  1.00  0.00    -0.384 NA 
HETATM    5  C   UNL     1     -11.699  11.832  69.326  1.00  0.00    -0.335 A  
HETATM    6  C   UNL     1     -13.628  15.374  71.670  1.00  0.00    -0.603 A  
HETATM    7  C   UNL     1     -11.962  13.166  68.972  1.00  0.00    -0.329 A  
HETATM    8  C   UNL     1     -13.701  14.395  72.647  1.00  0.00    -0.546 A  
HETATM    9  C   UNL     1     -12.728  12.804  71.109  1.00  0.00    -0.263 A  
HETATM   10  C   UNL     1     -12.610  13.778  70.111  1.00  0.00    -0.253 A  
HETATM   11  C   UNL     1     -13.105  15.074  70.406  1.00  0.00    -0.222 A  
HETATM   12  C   UNL     1     -13.266  13.098  72.378  1.00  0.00    -0.519 A  
BRANCH   5  13
HETATM   13  C   UNL     1     -11.070  10.758  68.634  1.00  0.00    -0.312 C  
HETATM   14  C   UNL     1     -10.827  10.802  67.314  1.00  0.00    -0.344 C  
BRANCH  14  15
HETATM   15  C   UNL     1     -10.117   9.715  66.556  1.00  0.00    -0.244 C  
HETATM   16  H   UNL     1     -10.219   7.797  66.533  1.00  0.00     0.000 HD 
HETATM   17  O   UNL     1     -10.668   8.484  67.013  1.00  0.00    -0.275 OA 
BRANCH  15  18
HETATM   18  C   UNL     1      -8.599   9.764  66.787  1.00  0.00    -0.133 C  
BRANCH  18  19
HETATM   19  C   UNL     1      -8.033  11.194  66.851  1.00  0.00    -0.151 C  
HETATM   20  O   UNL     1      -6.846  11.295  66.045  1.00  0.00    -0.354 OA 
HETATM   21  H   UNL     1      -6.498  12.177  66.085  1.00  0.00     0.000 HD 
BRANCH  19  22
HETATM   22  C   UNL     1      -7.689  11.633  68.273  1.00  0.00    -0.128 C  
HETATM   23  C   UNL     1      -6.951  10.604  69.100  1.00  0.00    -0.085 C  
HETATM   24  O   UNL     1      -6.049   9.866  68.418  1.00  0.00    -0.046 OA 
HETATM   25  O   UNL     1      -7.093  10.503  70.310  1.00  0.00    -0.228 OA 
ENDBRANCH  19  22
ENDBRANCH  18  19
ENDBRANCH  15  18
ENDBRANCH  14  15
ENDBRANCH   5  13
BRANCH   7  26
HETATM   26  C   UNL     1     -11.551  13.783  67.692  1.00  0.00    -0.381 A  
HETATM   27  C   UNL     1     -12.039  14.346  65.358  1.00  0.00    -0.364 A  
HETATM   28  C   UNL     1      -9.999  15.133  66.362  1.00  0.00    -0.288 A  
HETATM   29  C   UNL     1     -10.859  15.067  65.278  1.00  0.00    -0.386 A  
HETATM   30  C   UNL     1     -12.390  13.726  66.564  1.00  0.00    -0.432 A  
HETATM   31  C   UNL     1     -10.331  14.469  67.549  1.00  0.00    -0.244 A  
HETATM   32  F   UNL     1     -10.549  15.711  64.145  1.00  0.00    -0.068 F  
ENDBRANCH   7  26
ENDBRANCH   2   4
TORSDOF 7
ENDMDL
MODEL       75
REMARK 921   NORMALIZED FREE ENERGY PREDICTED BY IDOCK:   -5.77 KCAL/MOL
REMARK 922        TOTAL FREE ENERGY PREDICTED BY IDOCK:   -9.83 KCAL/MOL
REMARK 923 INTER-LIGAND FREE ENERGY PREDICTED BY IDOCK:   -7.71 KCAL/MOL
REMARK 924 INTRA-LIGAND FREE ENERGY PREDICTED BY IDOCK:   -2.13 KCAL/MOL
REMARK 927      BINDING AFFINITY PREDICTED BY RF-SCORE:    0.00 PKD
ROOT
HETATM    1  C   UNL     1     -10.464  20.143  68.407  1.00  0.00    -0.310 C  
HETATM    2  C   UNL     1     -10.268  18.903  67.529  1.00  0.00    -0.391 C  
HETATM    3  C   UNL     1     -10.392  19.153  66.026  1.00  0.00    -0.538 C  
ENDROOT
BRANCH   2   4
HETATM    4  N   UNL     1      -9.097  18.087  67.879  1.00  0.00    -0.263 NA 
HETATM    5  C   UNL     1      -9.046  16.719  68.128  1.00  0.00    -0.227 A  
HETATM    6  C   UNL     1      -5.133  19.253  68.298  1.00  0.00    -0.177 A  
HETATM    7  C   UNL     1      -7.697  16.361  68.282  1.00  0.00    -0.162 A  
HETATM    8  C   UNL     1      -6.053  20.276  68.136  1.00  0.00    -0.299 A  
HETATM    9  C   UNL     1      -7.832  18.642  68.028  1.00  0.00    -0.271 A  
HETATM   10  C   UNL     1      -6.933  17.588  68.223  1.00  0.00    -0.210 A  
HETATM   11  C   UNL     1      -5.557  17.918  68.325  1.00  0.00    -0.159 A  
HETATM   12  C   UNL     1      -7.409  19.986  67.987  1.00  0.00    -0.326 A  
BRANCH   5  13
HETATM   13  C   UNL     1     -10.250  15.958  68.122  1.00  0.00    -0.232 C  
HETATM   14  C   UNL     1     -10.758  15.413  69.239  1.00  0.00    -0.251 C  
BRANCH  14  15
HETATM   15  C   UNL     1     -12.053  14.650  69.285  1.00  0.00    -0.272 C  
HETATM   16  H   UNL     1     -13.665  14.788  70.321  1.00  0.00     0.000 HD 
HETATM   17  O   UNL     1     -12.847  15.270  70.292  1.00  0.00    -0.341 OA 
BRANCH  15  18
HETATM   18  C   UNL     1     -11.823  13.164  69.596  1.00  0.00    -0.390 C  
BRANCH  18  19
HETATM   19  C   UNL     1     -11.820  12.268  68.343  1.00  0.00    -0.304 C  
HETATM   20  O   UNL     1     -12.297  10.953  68.674  1.00  0.00    -0.805 OA 
HETATM   21  H   UNL     1     -12.295  10.400  67.901  1.00  0.00     0.000 HD 
BRANCH  19  22
HETATM   22  C   UNL     1     -10.435  12.135  67.713  1.00  0.00    -0.222 C  
HETATM   23  C   UNL     1     -10.372  12.449  66.235  1.00  0.00    -0.244 C  
HETATM   24  O   UNL     1     -11.169  13.463  65.833  1.00  0.00    -0.297 OA 
HETATM   25  O   UNL     1      -9.597  11.889  65.473  1.00  0.00    -0.232 OA 
ENDBRANCH  19  22
ENDBRANCH  18  19
ENDBRANCH  15  18
ENDBRANCH  14  15
ENDBRANCH   5  13
BRANCH   7  26
HETATM   26  C   UNL     1      -7.226  14.982  68.535  1.00  0.00    -0.115 A  
HETATM   27  C   UNL     1      -6.706  12.735  67.709  1.00  0.00    -0.134 A  
HETATM   28  C   UNL     1      -6.232  13.290  70.002  1.00  0.00    -0.079 A  
HETATM   29  C   UNL     1      -6.204  12.386  68.953  1.00  0.00    -0.079 A  
HETATM   30  C   UNL     1      -7.195  14.031  67.500  1.00  0.00    -0.183 A  
HETATM   31  C   UNL     1      -6.768  14.568  69.800  1.00  0.00    -0.150 A  
HETATM   32  F   UNL     1      -5.682  11.168  69.140  1.00  0.00    -0.041 F  
ENDBRANCH   7  26
ENDBRANCH   2   4
TORSDOF 7
ENDMDL
MODEL       76
REMARK 921   NORMALIZED FREE ENERGY PREDICTED BY IDOCK:   -5.76 KCAL/MOL
REMARK 922        TOTAL FREE ENERGY PREDICTED BY IDOCK:   -9.82 KCAL/MOL
REMARK 923 INTER-LIGAND FREE ENERGY PREDICTED BY IDOCK:   -8.12 KCAL/MOL
REMARK 924 INTRA-LIGAND FREE ENERGY PREDICTED BY IDOCK:   -1.70 KCAL/MOL
REMARK 927      BINDING AFFINITY PREDICTED BY RF-SCORE:    0.00 PKD
ROOT
HETATM    1  C   UNL     1      -6.446  16.364  69.666  1.00  0.00    -0.201 C  
HETATM    2  C   UNL     1      -6.478  16.935  68.245  1.00  0.00    -0.142 C  
HETATM    3  C   UNL     1      -5.316  16.499  67.351  1.00  0.00    -0.168 C  
ENDROOT
BRANCH   2   4
HETATM    4  N   UNL     1      -7.783  16.836  67.578  1.00  0.00    -0.164 NA 
HETATM    5  C   UNL     1      -8.436  15.690  67.134  1.00  0.00    -0.207 A  
HETATM    6  C   UNL     1     -10.461  19.860  66.616  1.00  0.00    -0.580 A  
HETATM    7  C   UNL     1      -9.713  16.070  66.690  1.00  0.00    -0.261 A  
HETATM    8  C   UNL     1      -9.223  20.271  67.083  1.00  0.00    -0.519 A  
HETATM    9  C   UNL     1      -8.545  17.959  67.282  1.00  0.00    -0.237 A  
HETATM   10  C   UNL     1      -9.772  17.512  66.781  1.00  0.00    -0.296 A  
HETATM   11  C   UNL     1     -10.748  18.496  66.479  1.00  0.00    -0.263 A  
HETATM   12  C   UNL     1      -8.256  19.330  67.434  1.00  0.00    -0.311 A  
BRANCH   5  13
HETATM   13  C   UNL     1      -7.794  14.425  67.252  1.00  0.00    -0.188 C  
HETATM   14  C   UNL     1      -8.234  13.474  68.093  1.00  0.00    -0.162 C  
BRANCH  14  15
HETATM   15  C   UNL     1      -7.620  12.107  68.207  1.00  0.00    -0.132 C  
HETATM   16  H   UNL     1      -6.963  10.812  66.949  1.00  0.00     0.000 HD 
HETATM   17  O   UNL     1      -7.351  11.676  66.876  1.00  0.00    -0.143 OA 
BRANCH  15  18
HETATM   18  C   UNL     1      -8.555  11.126  68.931  1.00  0.00    -0.092 C  
BRANCH  18  19
HETATM   19  C   UNL     1      -9.142  10.043  68.007  1.00  0.00    -0.131 C  
HETATM   20  O   UNL     1     -10.009  10.642  67.029  1.00  0.00    -0.189 OA 
HETATM   21  H   UNL     1     -10.371   9.974  66.460  1.00  0.00     0.000 HD 
BRANCH  19  22
HETATM   22  C   UNL     1      -9.934   8.981  68.767  1.00  0.00    -0.194 C  
HETATM   23  C   UNL     1     -10.966   9.520  69.733  1.00  0.00    -0.223 C  
HETATM   24  O   UNL     1     -11.612  10.629  69.314  1.00  0.00    -0.266 OA 
HETATM   25  O   UNL     1     -11.258   8.951  70.775  1.00  0.00    -0.256 OA 
ENDBRANCH  19  22
ENDBRANCH  18  19
ENDBRANCH  15  18
ENDBRANCH  14  15
ENDBRANCH   5  13
BRANCH   7  26
HETATM   26  C   UNL     1     -10.725  15.128  66.164  1.00  0.00    -0.327 A  
HETATM   27  C   UNL     1     -11.963  14.187  64.271  1.00  0.00    -0.460 A  
HETATM   28  C   UNL     1     -12.271  13.252  66.467  1.00  0.00    -0.389 A  
HETATM   29  C   UNL     1     -12.547  13.251  65.110  1.00  0.00    -0.453 A  
HETATM   30  C   UNL     1     -11.044  15.105  64.794  1.00  0.00    -0.395 A  
HETATM   31  C   UNL     1     -11.390  14.205  66.993  1.00  0.00    -0.346 A  
HETATM   32  F   UNL     1     -13.381  12.334  64.603  1.00  0.00    -0.425 F  
ENDBRANCH   7  26
ENDBRANCH   2   4
TORSDOF 7
ENDMDL
MODEL       77
REMARK 921   NORMALIZED FREE ENERGY PREDICTED BY IDOCK:   -5.71 KCAL/MOL
REMARK 922        TOTAL FREE ENERGY PREDICTED BY IDOCK:   -9.76 KCAL/MOL
REMARK 923 INTER-LIGAND FREE ENERGY PREDICTED BY IDOCK:   -8.13 KCAL/MOL
REMARK 924 INTRA-LIGAND FREE ENERGY PREDICTED BY IDOCK:   -1.63 KCAL/MOL
REMARK 927      BINDING AFFINITY PREDICTED BY RF-SCORE:    0.00 PKD
ROOT
HETATM    1  C   UNL     1     -12.898   8.838  71.350  1.00  0.00    -0.319 C  
HETATM    2  C   UNL     1     -11.406   9.157  71.207  1.00  0.00    -0.336 C  
HETATM    3  C   UNL     1     -10.538   8.711  72.385  1.00  0.00    -0.310 C  
ENDROOT
BRANCH   2   4
HETATM    4  N   UNL     1     -10.829   8.801  69.904  1.00  0.00    -0.226 NA 
HETATM    5  C   UNL     1     -10.468   9.651  68.863  1.00  0.00    -0.215 A  
HETATM    6  C   UNL     1      -9.803   5.054  68.437  1.00  0.00    -0.209 A  
HETATM    7  C   UNL     1      -9.832   8.878  67.879  1.00  0.00    -0.205 A  
HETATM    8  C   UNL     1     -10.497   5.068  69.636  1.00  0.00    -0.166 A  
HETATM    9  C   UNL     1     -10.585   7.482  69.543  1.00  0.00    -0.236 A  
HETATM   10  C   UNL     1      -9.916   7.501  68.314  1.00  0.00    -0.193 A  
HETATM   11  C   UNL     1      -9.496   6.255  67.784  1.00  0.00    -0.118 A  
HETATM   12  C   UNL     1     -10.885   6.277  70.210  1.00  0.00    -0.366 A  
BRANCH   5  13
HETATM   13  C   UNL     1     -10.716  11.049  68.979  1.00  0.00    -0.258 C  
HETATM   14  C   UNL     1     -11.537  11.702  68.139  1.00  0.00    -0.389 C  
BRANCH  14  15
HETATM   15  C   UNL     1     -11.868  13.163  68.260  1.00  0.00    -0.349 C  
HETATM   16  H   UNL     1     -11.101  14.783  67.569  1.00  0.00     0.000 HD 
HETATM   17  O   UNL     1     -10.891  13.860  67.493  1.00  0.00    -0.261 OA 
BRANCH  15  18
HETATM   18  C   UNL     1     -11.859  13.627  69.724  1.00  0.00    -0.392 C  
BRANCH  18  19
HETATM   19  C   UNL     1     -12.072  15.143  69.891  1.00  0.00    -0.336 C  
HETATM   20  O   UNL     1     -10.818  15.794  70.150  1.00  0.00    -0.299 OA 
HETATM   21  H   UNL     1     -10.950  16.729  70.253  1.00  0.00     0.000 HD 
BRANCH  19  22
HETATM   22  C   UNL     1     -13.038  15.485  71.024  1.00  0.00    -0.551 C  
HETATM   23  C   UNL     1     -12.664  14.919  72.376  1.00  0.00    -0.344 C  
HETATM   24  O   UNL     1     -11.340  14.903  72.640  1.00  0.00    -0.188 OA 
HETATM   25  O   UNL     1     -13.498  14.582  73.204  1.00  0.00    -0.609 OA 
ENDBRANCH  19  22
ENDBRANCH  18  19
ENDBRANCH  15  18
ENDBRANCH  14  15
ENDBRANCH   5  13
BRANCH   7  26
HETATM   26  C   UNL     1      -9.278   9.424  66.621  1.00  0.00    -0.193 A  
HETATM   27  C   UNL     1      -7.351  10.150  65.293  1.00  0.00    -0.141 A  
HETATM   28  C   UNL     1      -9.535  10.111  64.284  1.00  0.00    -0.366 A  
HETATM   29  C   UNL     1      -8.171  10.335  64.192  1.00  0.00    -0.152 A  
HETATM   30  C   UNL     1      -7.900   9.679  66.492  1.00  0.00    -0.108 A  
HETATM   31  C   UNL     1     -10.086   9.688  65.499  1.00  0.00    -0.165 A  
HETATM   32  F   UNL     1      -7.640  10.729  63.027  1.00  0.00    -0.127 F  
ENDBRANCH   7  26
ENDBRANCH   2   4
TORSDOF 7
ENDMDL
MODEL       78
REMARK 921   NORMALIZED FREE ENERGY PREDICTED BY IDOCK:   -5.71 KCAL/MOL
REMARK 922        TOTAL FREE ENERGY PREDICTED BY IDOCK:   -9.75 KCAL/MOL
REMARK 923 INTER-LIGAND FREE ENERGY PREDICTED BY IDOCK:   -7.87 KCAL/MOL
REMARK 924 INTRA-LIGAND FREE ENERGY PREDICTED BY IDOCK:   -1.88 KCAL/MOL
REMARK 927      BINDING AFFINITY PREDICTED BY RF-SCORE:    0.00 PKD
ROOT
HETATM    1  C   UNL     1      -8.268   7.276  69.534  1.00  0.00    -0.131 C  
HETATM    2  C   UNL     1      -8.632   8.232  70.675  1.00  0.00    -0.136 C  
HETATM    3  C   UNL     1      -7.437   8.853  71.399  1.00  0.00    -0.108 C  
ENDROOT
BRANCH   2   4
HETATM    4  N   UNL     1      -9.672   9.214  70.340  1.00  0.00    -0.204 NA 
HETATM    5  C   UNL     1      -9.644  10.190  69.348  1.00  0.00    -0.232 A  
HETATM    6  C   UNL     1     -13.426   9.727  72.039  1.00  0.00    -0.498 A  
HETATM    7  C   UNL     1     -10.911  10.795  69.307  1.00  0.00    -0.287 A  
HETATM    8  C   UNL     1     -12.585   8.832  72.682  1.00  0.00    -0.282 A  
HETATM    9  C   UNL     1     -10.868   9.287  71.042  1.00  0.00    -0.314 A  
HETATM   10  C   UNL     1     -11.680  10.222  70.390  1.00  0.00    -0.404 A  
HETATM   11  C   UNL     1     -12.993  10.407  70.894  1.00  0.00    -0.475 A  
HETATM   12  C   UNL     1     -11.305   8.591  72.187  1.00  0.00    -0.442 A  
BRANCH   5  13
HETATM   13  C   UNL     1      -8.470  10.358  68.560  1.00  0.00    -0.129 C  
HETATM   14  C   UNL     1      -7.765  11.502  68.562  1.00  0.00    -0.134 C  
BRANCH  14  15
HETATM   15  C   UNL     1      -6.491  11.702  67.789  1.00  0.00    -0.067 C  
HETATM   16  H   UNL     1      -4.728  10.943  67.871  1.00  0.00     0.000 HD 
HETATM   17  O   UNL     1      -5.533  10.816  68.360  1.00  0.00    -0.044 OA 
BRANCH  15  18
HETATM   18  C   UNL     1      -6.011  13.159  67.856  1.00  0.00    -0.134 C  
BRANCH  18  19
HETATM   19  C   UNL     1      -7.130  14.159  68.202  1.00  0.00    -0.127 C  
HETATM   20  O   UNL     1      -7.876  14.496  67.021  1.00  0.00    -0.329 OA 
HETATM   21  H   UNL     1      -8.566  15.113  67.235  1.00  0.00     0.000 HD 
BRANCH  19  22
HETATM   22  C   UNL     1      -6.600  15.450  68.823  1.00  0.00    -0.106 C  
HETATM   23  C   UNL     1      -7.563  16.616  68.797  1.00  0.00    -0.227 C  
HETATM   24  O   UNL     1      -8.858  16.289  68.997  1.00  0.00    -0.238 OA 
HETATM   25  O   UNL     1      -7.193  17.776  68.691  1.00  0.00    -0.241 OA 
ENDBRANCH  19  22
ENDBRANCH  18  19
ENDBRANCH  15  18
ENDBRANCH  14  15
ENDBRANCH   5  13
BRANCH   7  26
HETATM   26  C   UNL     1     -11.289  11.869  68.363  1.00  0.00    -0.331 A  
HETATM   27  C   UNL     1     -11.708  14.239  67.905  1.00  0.00    -0.394 A  
HETATM   28  C   UNL     1     -11.790  12.654  66.097  1.00  0.00    -0.477 A  
HETATM   29  C   UNL     1     -11.873  13.957  66.559  1.00  0.00    -0.414 A  
HETATM   30  C   UNL     1     -11.399  13.203  68.795  1.00  0.00    -0.333 A  
HETATM   31  C   UNL     1     -11.530  11.616  66.999  1.00  0.00    -0.336 A  
HETATM   32  F   UNL     1     -12.111  14.954  65.696  1.00  0.00    -0.293 F  
ENDBRANCH   7  26
ENDBRANCH   2   4
TORSDOF 7
ENDMDL
MODEL       79
REMARK 921   NORMALIZED FREE ENERGY PREDICTED BY IDOCK:   -5.68 KCAL/MOL
REMARK 922        TOTAL FREE ENERGY PREDICTED BY IDOCK:   -9.71 KCAL/MOL
REMARK 923 INTER-LIGAND FREE ENERGY PREDICTED BY IDOCK:   -7.33 KCAL/MOL
REMARK 924 INTRA-LIGAND FREE ENERGY PREDICTED BY IDOCK:   -2.38 KCAL/MOL
REMARK 927      BINDING AFFINITY PREDICTED BY RF-SCORE:    0.00 PKD
ROOT
HETATM    1  C   UNL     1     -11.403   4.453  73.403  1.00  0.00    -0.353 C  
HETATM    2  C   UNL     1     -10.865   5.876  73.220  1.00  0.00    -0.261 C  
HETATM    3  C   UNL     1     -10.059   6.415  74.402  1.00  0.00    -0.367 C  
ENDROOT
BRANCH   2   4
HETATM    4  N   UNL     1     -10.216   6.121  71.925  1.00  0.00    -0.197 NA 
HETATM    5  C   UNL     1     -10.518   7.099  70.983  1.00  0.00    -0.215 A  
HETATM    6  C   UNL     1      -7.001   4.138  70.200  1.00  0.00    -0.041 A  
HETATM    7  C   UNL     1      -9.545   7.037  69.973  1.00  0.00    -0.164 A  
HETATM    8  C   UNL     1      -7.515   3.571  71.355  1.00  0.00    -0.044 A  
HETATM    9  C   UNL     1      -9.170   5.330  71.466  1.00  0.00    -0.146 A  
HETATM   10  C   UNL     1      -8.696   5.908  70.283  1.00  0.00    -0.142 A  
HETATM   11  C   UNL     1      -7.568   5.304  69.671  1.00  0.00    -0.069 A  
HETATM   12  C   UNL     1      -8.594   4.164  72.009  1.00  0.00    -0.116 A  
BRANCH   5  13
HETATM   13  C   UNL     1     -11.622   7.971  71.205  1.00  0.00    -0.307 C  
HETATM   14  C   UNL     1     -11.461   9.238  71.619  1.00  0.00    -0.468 C  
BRANCH  14  15
HETATM   15  C   UNL     1     -12.595  10.207  71.812  1.00  0.00    -0.403 C  
HETATM   16  H   UNL     1     -14.400  10.063  72.453  1.00  0.00     0.000 HD 
HETATM   17  O   UNL     1     -13.684   9.450  72.331  1.00  0.00    -0.454 OA 
BRANCH  15  18
HETATM   18  C   UNL     1     -12.977  10.900  70.495  1.00  0.00    -0.212 C  
BRANCH  18  19
HETATM   19  C   UNL     1     -11.798  11.619  69.814  1.00  0.00    -0.357 C  
HETATM   20  O   UNL     1     -11.720  12.981  70.268  1.00  0.00    -0.512 OA 
HETATM   21  H   UNL     1     -10.993  13.424  69.848  1.00  0.00     0.000 HD 
BRANCH  19  22
HETATM   22  C   UNL     1     -11.906  11.623  68.290  1.00  0.00    -0.335 C  
HETATM   23  C   UNL     1     -11.200  12.769  67.601  1.00  0.00    -0.280 C  
HETATM   24  O   UNL     1     -10.031  13.139  68.165  1.00  0.00    -0.223 OA 
HETATM   25  O   UNL     1     -11.609  13.268  66.563  1.00  0.00    -0.319 OA 
ENDBRANCH  19  22
ENDBRANCH  18  19
ENDBRANCH  15  18
ENDBRANCH  14  15
ENDBRANCH   5  13
BRANCH   7  26
HETATM   26  C   UNL     1      -9.505   7.937  68.800  1.00  0.00    -0.147 A  
HETATM   27  C   UNL     1      -8.631   9.942  67.696  1.00  0.00    -0.122 A  
HETATM   28  C   UNL     1     -10.096   8.469  66.483  1.00  0.00    -0.328 A  
HETATM   29  C   UNL     1      -9.300   9.601  66.531  1.00  0.00    -0.165 A  
HETATM   30  C   UNL     1      -8.719   9.104  68.814  1.00  0.00    -0.132 A  
HETATM   31  C   UNL     1     -10.221   7.661  67.620  1.00  0.00    -0.277 A  
HETATM   32  F   UNL     1      -9.170  10.368  65.442  1.00  0.00    -0.175 F  
ENDBRANCH   7  26
ENDBRANCH   2   4
TORSDOF 7
ENDMDL
MODEL       80
REMARK 921   NORMALIZED FREE ENERGY PREDICTED BY IDOCK:   -5.64 KCAL/MOL
REMARK 922        TOTAL FREE ENERGY PREDICTED BY IDOCK:   -9.65 KCAL/MOL
REMARK 923 INTER-LIGAND FREE ENERGY PREDICTED BY IDOCK:   -7.67 KCAL/MOL
REMARK 924 INTRA-LIGAND FREE ENERGY PREDICTED BY IDOCK:   -1.99 KCAL/MOL
REMARK 927      BINDING AFFINITY PREDICTED BY RF-SCORE:    0.00 PKD
ROOT
HETATM    1  C   UNL     1     -10.171  19.691  69.152  1.00  0.00    -0.293 C  
HETATM    2  C   UNL     1     -10.526  18.718  68.024  1.00  0.00    -0.352 C  
HETATM    3  C   UNL     1     -10.901  19.380  66.697  1.00  0.00    -0.462 C  
ENDROOT
BRANCH   2   4
HETATM    4  N   UNL     1      -9.583  17.603  67.861  1.00  0.00    -0.275 NA 
HETATM    5  C   UNL     1      -9.818  16.244  68.047  1.00  0.00    -0.236 A  
HETATM    6  C   UNL     1      -5.606  17.700  66.669  1.00  0.00    -0.211 A  
HETATM    7  C   UNL     1      -8.667  15.550  67.639  1.00  0.00    -0.183 A  
HETATM    8  C   UNL     1      -6.199  18.929  66.907  1.00  0.00    -0.191 A  
HETATM    9  C   UNL     1      -8.258  17.808  67.497  1.00  0.00    -0.225 A  
HETATM   10  C   UNL     1      -7.679  16.550  67.298  1.00  0.00    -0.193 A  
HETATM   11  C   UNL     1      -6.336  16.517  66.844  1.00  0.00    -0.166 A  
HETATM   12  C   UNL     1      -7.531  19.001  67.310  1.00  0.00    -0.243 A  
BRANCH   5  13
HETATM   13  C   UNL     1     -11.091  15.808  68.513  1.00  0.00    -0.335 C  
HETATM   14  C   UNL     1     -11.232  15.072  69.627  1.00  0.00    -0.296 C  
BRANCH  14  15
HETATM   15  C   UNL     1     -12.560  14.639  70.183  1.00  0.00    -0.283 C  
HETATM   16  H   UNL     1     -14.038  15.544  71.011  1.00  0.00     0.000 HD 
HETATM   17  O   UNL     1     -13.198  15.819  70.661  1.00  0.00    -0.501 OA 
BRANCH  15  18
HETATM   18  C   UNL     1     -12.393  13.604  71.306  1.00  0.00    -0.359 C  
BRANCH  18  19
HETATM   19  C   UNL     1     -12.790  12.175  70.888  1.00  0.00    -0.102 C  
HETATM   20  O   UNL     1     -13.411  11.492  71.989  1.00  0.00    -0.439 OA 
HETATM   21  H   UNL     1     -13.655  10.611  71.732  1.00  0.00     0.000 HD 
BRANCH  19  22
HETATM   22  C   UNL     1     -11.599  11.345  70.414  1.00  0.00    -0.267 C  
HETATM   23  C   UNL     1     -11.632  10.954  68.953  1.00  0.00    -0.309 C  
HETATM   24  O   UNL     1     -12.133  11.894  68.124  1.00  0.00    -0.516 OA 
HETATM   25  O   UNL     1     -11.161   9.904  68.540  1.00  0.00    -0.181 OA 
ENDBRANCH  19  22
ENDBRANCH  18  19
ENDBRANCH  15  18
ENDBRANCH  14  15
ENDBRANCH   5  13
BRANCH   7  26
HETATM   26  C   UNL     1      -8.533  14.077  67.661  1.00  0.00    -0.193 A  
HETATM   27  C   UNL     1      -9.015  11.891  66.665  1.00  0.00    -0.198 A  
HETATM   28  C   UNL     1      -7.553  12.026  68.572  1.00  0.00    -0.126 A  
HETATM   29  C   UNL     1      -8.185  11.279  67.591  1.00  0.00    -0.120 A  
HETATM   30  C   UNL     1      -9.170  13.283  66.690  1.00  0.00    -0.222 A  
HETATM   31  C   UNL     1      -7.752  13.411  68.623  1.00  0.00    -0.088 A  
HETATM   32  F   UNL     1      -7.988   9.956  67.533  1.00  0.00    -0.103 F  
ENDBRANCH   7  26
ENDBRANCH   2   4
TORSDOF 7
ENDMDL
MODEL       81
REMARK 921   NORMALIZED FREE ENERGY PREDICTED BY IDOCK:   -5.62 KCAL/MOL
REMARK 922        TOTAL FREE ENERGY PREDICTED BY IDOCK:   -9.63 KCAL/MOL
REMARK 923 INTER-LIGAND FREE ENERGY PREDICTED BY IDOCK:   -7.83 KCAL/MOL
REMARK 924 INTRA-LIGAND FREE ENERGY PREDICTED BY IDOCK:   -1.81 KCAL/MOL
REMARK 927      BINDING AFFINITY PREDICTED BY RF-SCORE:    0.00 PKD
ROOT
HETATM    1  C   UNL     1     -11.410   4.502  73.431  1.00  0.00    -0.376 C  
HETATM    2  C   UNL     1     -10.779   5.892  73.301  1.00  0.00    -0.265 C  
HETATM    3  C   UNL     1      -9.921   6.322  74.492  1.00  0.00    -0.356 C  
ENDROOT
BRANCH   2   4
HETATM    4  N   UNL     1     -10.132   6.149  72.007  1.00  0.00    -0.180 NA 
HETATM    5  C   UNL     1     -10.462   7.112  71.059  1.00  0.00    -0.215 A  
HETATM    6  C   UNL     1      -6.848   4.260  70.307  1.00  0.00    -0.034 A  
HETATM    7  C   UNL     1      -9.483   7.075  70.052  1.00  0.00    -0.161 A  
HETATM    8  C   UNL     1      -7.349   3.685  71.463  1.00  0.00    -0.043 A  
HETATM    9  C   UNL     1      -9.060   5.390  71.557  1.00  0.00    -0.142 A  
HETATM   10  C   UNL     1      -8.600   5.975  70.373  1.00  0.00    -0.133 A  
HETATM   11  C   UNL     1      -7.451   5.404  69.769  1.00  0.00    -0.066 A  
HETATM   12  C   UNL     1      -8.449   4.246  72.109  1.00  0.00    -0.111 A  
BRANCH   5  13
HETATM   13  C   UNL     1     -11.595   7.949  71.271  1.00  0.00    -0.304 C  
HETATM   14  C   UNL     1     -11.476   9.220  71.689  1.00  0.00    -0.468 C  
BRANCH  14  15
HETATM   15  C   UNL     1     -12.641  10.153  71.872  1.00  0.00    -0.343 C  
HETATM   16  H   UNL     1     -14.491   9.929  72.336  1.00  0.00     0.000 HD 
HETATM   17  O   UNL     1     -13.756   9.338  72.220  1.00  0.00    -0.447 OA 
BRANCH  15  18
HETATM   18  C   UNL     1     -12.921  10.964  70.598  1.00  0.00    -0.266 C  
BRANCH  18  19
HETATM   19  C   UNL     1     -12.974  12.485  70.836  1.00  0.00     0.016 C  
HETATM   20  O   UNL     1     -11.700  13.078  70.536  1.00  0.00    -0.533 OA 
HETATM   21  H   UNL     1     -11.733  14.015  70.683  1.00  0.00     0.000 HD 
BRANCH  19  22
HETATM   22  C   UNL     1     -13.349  12.847  72.272  1.00  0.00    -0.597 C  
HETATM   23  C   UNL     1     -13.456  14.329  72.552  1.00  0.00    -0.515 C  
HETATM   24  O   UNL     1     -13.978  15.062  71.546  1.00  0.00    -0.422 OA 
HETATM   25  O   UNL     1     -13.174  14.819  73.636  1.00  0.00    -0.482 OA 
ENDBRANCH  19  22
ENDBRANCH  18  19
ENDBRANCH  15  18
ENDBRANCH  14  15
ENDBRANCH   5  13
BRANCH   7  26
HETATM   26  C   UNL     1      -9.467   7.969  68.874  1.00  0.00    -0.151 A  
HETATM   27  C   UNL     1     -10.107   8.430  66.554  1.00  0.00    -0.317 A  
HETATM   28  C   UNL     1      -8.960  10.122  67.822  1.00  0.00    -0.129 A  
HETATM   29  C   UNL     1      -9.576   9.705  66.653  1.00  0.00    -0.187 A  
HETATM   30  C   UNL     1     -10.069   7.577  67.665  1.00  0.00    -0.243 A  
HETATM   31  C   UNL     1      -8.880   9.248  68.912  1.00  0.00    -0.135 A  
HETATM   32  F   UNL     1      -9.663  10.544  65.613  1.00  0.00    -0.222 F  
ENDBRANCH   7  26
ENDBRANCH   2   4
TORSDOF 7
ENDMDL
MODEL       82
REMARK 921   NORMALIZED FREE ENERGY PREDICTED BY IDOCK:   -5.62 KCAL/MOL
REMARK 922        TOTAL FREE ENERGY PREDICTED BY IDOCK:   -9.63 KCAL/MOL
REMARK 923 INTER-LIGAND FREE ENERGY PREDICTED BY IDOCK:   -7.99 KCAL/MOL
REMARK 924 INTRA-LIGAND FREE ENERGY PREDICTED BY IDOCK:   -1.64 KCAL/MOL
REMARK 927      BINDING AFFINITY PREDICTED BY RF-SCORE:    0.00 PKD
ROOT
HETATM    1  C   UNL     1      -7.541  10.383  65.467  1.00  0.00    -0.144 C  
HETATM    2  C   UNL     1      -8.929  10.914  65.093  1.00  0.00    -0.180 C  
HETATM    3  C   UNL     1      -9.629  10.148  63.971  1.00  0.00    -0.320 C  
ENDROOT
BRANCH   2   4
HETATM    4  N   UNL     1      -9.808  11.180  66.240  1.00  0.00    -0.207 NA 
HETATM    5  C   UNL     1     -10.129  10.329  67.292  1.00  0.00    -0.203 A  
HETATM    6  C   UNL     1     -11.881  14.650  67.191  1.00  0.00    -0.367 A  
HETATM    7  C   UNL     1     -10.886  11.062  68.221  1.00  0.00    -0.261 A  
HETATM    8  C   UNL     1     -11.271  14.629  65.947  1.00  0.00    -0.336 A  
HETATM    9  C   UNL     1     -10.473  12.391  66.392  1.00  0.00    -0.243 A  
HETATM   10  C   UNL     1     -11.106  12.367  67.639  1.00  0.00    -0.306 A  
HETATM   11  C   UNL     1     -11.791  13.542  68.042  1.00  0.00    -0.400 A  
HETATM   12  C   UNL     1     -10.550  13.509  65.537  1.00  0.00    -0.299 A  
BRANCH   5  13
HETATM   13  C   UNL     1      -9.629   8.995  67.296  1.00  0.00    -0.206 C  
HETATM   14  C   UNL     1     -10.383   7.948  66.922  1.00  0.00    -0.400 C  
BRANCH  14  15
HETATM   15  C   UNL     1      -9.878   6.533  66.858  1.00  0.00    -0.164 C  
HETATM   16  H   UNL     1     -10.711   4.802  66.832  1.00  0.00     0.000 HD 
HETATM   17  O   UNL     1     -11.031   5.696  66.873  1.00  0.00    -0.249 OA 
BRANCH  15  18
HETATM   18  C   UNL     1      -8.944   6.212  68.034  1.00  0.00    -0.113 C  
BRANCH  18  19
HETATM   19  C   UNL     1      -9.660   6.180  69.397  1.00  0.00    -0.137 C  
HETATM   20  O   UNL     1      -8.850   6.817  70.399  1.00  0.00    -0.149 OA 
HETATM   21  H   UNL     1      -9.292   6.797  71.239  1.00  0.00     0.000 HD 
BRANCH  19  22
HETATM   22  C   UNL     1      -9.981   4.762  69.865  1.00  0.00    -0.306 C  
HETATM   23  C   UNL     1     -10.180   4.609  71.357  1.00  0.00    -0.141 C  
HETATM   24  O   UNL     1     -10.810   5.643  71.956  1.00  0.00    -0.231 OA 
HETATM   25  O   UNL     1      -9.876   3.592  71.963  1.00  0.00    -0.158 OA 
ENDBRANCH  19  22
ENDBRANCH  18  19
ENDBRANCH  15  18
ENDBRANCH  14  15
ENDBRANCH   5  13
BRANCH   7  26
HETATM   26  C   UNL     1     -11.399  10.512  69.495  1.00  0.00    -0.341 A  
HETATM   27  C   UNL     1     -13.271  10.071  71.012  1.00  0.00    -0.399 A  
HETATM   28  C   UNL     1     -11.084   9.231  71.559  1.00  0.00    -0.443 A  
HETATM   29  C   UNL     1     -12.433   9.354  71.850  1.00  0.00    -0.390 A  
HETATM   30  C   UNL     1     -12.759  10.628  69.834  1.00  0.00    -0.081 A  
HETATM   31  C   UNL     1     -10.568   9.833  70.405  1.00  0.00    -0.365 A  
HETATM   32  F   UNL     1     -12.931   8.770  72.947  1.00  0.00    -0.449 F  
ENDBRANCH   7  26
ENDBRANCH   2   4
TORSDOF 7
ENDMDL
MODEL       83
REMARK 921   NORMALIZED FREE ENERGY PREDICTED BY IDOCK:   -5.62 KCAL/MOL
REMARK 922        TOTAL FREE ENERGY PREDICTED BY IDOCK:   -9.63 KCAL/MOL
REMARK 923 INTER-LIGAND FREE ENERGY PREDICTED BY IDOCK:   -7.64 KCAL/MOL
REMARK 924 INTRA-LIGAND FREE ENERGY PREDICTED BY IDOCK:   -1.98 KCAL/MOL
REMARK 927      BINDING AFFINITY PREDICTED BY RF-SCORE:    0.00 PKD
ROOT
HETATM    1  C   UNL     1     -11.049   7.275  73.057  1.00  0.00    -0.361 C  
HETATM    2  C   UNL     1     -11.681   7.147  71.667  1.00  0.00    -0.291 C  
HETATM    3  C   UNL     1     -13.202   6.990  71.664  1.00  0.00    -0.368 C  
ENDROOT
BRANCH   2   4
HETATM    4  N   UNL     1     -11.205   8.134  70.688  1.00  0.00    -0.263 NA 
HETATM    5  C   UNL     1     -10.300   7.945  69.648  1.00  0.00    -0.216 A  
HETATM    6  C   UNL     1     -12.263  12.128  70.281  1.00  0.00    -0.344 A  
HETATM    7  C   UNL     1     -10.261   9.129  68.894  1.00  0.00    -0.221 A  
HETATM    8  C   UNL     1     -12.741  11.486  71.412  1.00  0.00    -0.469 A  
HETATM    9  C   UNL     1     -11.625   9.458  70.715  1.00  0.00    -0.298 A  
HETATM   10  C   UNL     1     -11.099  10.087  69.581  1.00  0.00    -0.300 A  
HETATM   11  C   UNL     1     -11.464  11.439  69.360  1.00  0.00    -0.378 A  
HETATM   12  C   UNL     1     -12.440  10.144  71.637  1.00  0.00    -0.506 A  
BRANCH   5  13
HETATM   13  C   UNL     1      -9.668   6.679  69.487  1.00  0.00    -0.156 C  
HETATM   14  C   UNL     1     -10.199   5.705  68.730  1.00  0.00    -0.269 C  
BRANCH  14  15
HETATM   15  C   UNL     1      -9.538   4.376  68.489  1.00  0.00    -0.143 C  
HETATM   16  H   UNL     1      -7.725   3.743  68.530  1.00  0.00     0.000 HD 
HETATM   17  O   UNL     1      -8.142   4.583  68.682  1.00  0.00    -0.081 OA 
BRANCH  15  18
HETATM   18  C   UNL     1      -9.831   3.845  67.078  1.00  0.00    -0.101 C  
BRANCH  18  19
HETATM   19  C   UNL     1     -10.191   4.951  66.068  1.00  0.00    -0.257 C  
HETATM   20  O   UNL     1     -11.308   4.543  65.262  1.00  0.00    -1.003 OA 
HETATM   21  H   UNL     1     -11.529   5.225  64.639  1.00  0.00     0.000 HD 
BRANCH  19  22
HETATM   22  C   UNL     1      -9.030   5.307  65.141  1.00  0.00    -0.106 C  
HETATM   23  C   UNL     1      -8.518   4.166  64.290  1.00  0.00    -0.105 C  
HETATM   24  O   UNL     1      -9.470   3.322  63.837  1.00  0.00    -0.118 OA 
HETATM   25  O   UNL     1      -7.345   4.062  63.962  1.00  0.00    -0.053 OA 
ENDBRANCH  19  22
ENDBRANCH  18  19
ENDBRANCH  15  18
ENDBRANCH  14  15
ENDBRANCH   5  13
BRANCH   7  26
HETATM   26  C   UNL     1      -9.432   9.317  67.683  1.00  0.00    -0.156 A  
HETATM   27  C   UNL     1      -9.173   9.184  65.251  1.00  0.00    -0.243 A  
HETATM   28  C   UNL     1      -7.404  10.134  66.577  1.00  0.00    -0.108 A  
HETATM   29  C   UNL     1      -7.930   9.791  65.343  1.00  0.00    -0.125 A  
HETATM   30  C   UNL     1      -9.924   8.968  66.413  1.00  0.00    -0.370 A  
HETATM   31  C   UNL     1      -8.139   9.869  67.740  1.00  0.00    -0.109 A  
HETATM   32  F   UNL     1      -7.235  10.052  64.229  1.00  0.00    -0.121 F  
ENDBRANCH   7  26
ENDBRANCH   2   4
TORSDOF 7
ENDMDL
MODEL       84
REMARK 921   NORMALIZED FREE ENERGY PREDICTED BY IDOCK:   -5.62 KCAL/MOL
REMARK 922        TOTAL FREE ENERGY PREDICTED BY IDOCK:   -9.62 KCAL/MOL
REMARK 923 INTER-LIGAND FREE ENERGY PREDICTED BY IDOCK:   -7.52 KCAL/MOL
REMARK 924 INTRA-LIGAND FREE ENERGY PREDICTED BY IDOCK:   -2.10 KCAL/MOL
REMARK 927      BINDING AFFINITY PREDICTED BY RF-SCORE:    0.00 PKD
ROOT
HETATM    1  C   UNL     1     -10.504  20.197  68.298  1.00  0.00    -0.357 C  
HETATM    2  C   UNL     1     -10.301  18.922  67.472  1.00  0.00    -0.426 C  
HETATM    3  C   UNL     1     -10.483  19.098  65.964  1.00  0.00    -0.546 C  
ENDROOT
BRANCH   2   4
HETATM    4  N   UNL     1      -9.094  18.158  67.817  1.00  0.00    -0.260 NA 
HETATM    5  C   UNL     1      -9.000  16.816  68.173  1.00  0.00    -0.224 A  
HETATM    6  C   UNL     1      -5.140  19.421  67.908  1.00  0.00    -0.171 A  
HETATM    7  C   UNL     1      -7.636  16.495  68.275  1.00  0.00    -0.170 A  
HETATM    8  C   UNL     1      -6.089  20.412  67.719  1.00  0.00    -0.278 A  
HETATM    9  C   UNL     1      -7.835  18.745  67.846  1.00  0.00    -0.262 A  
HETATM   10  C   UNL     1      -6.904  17.726  68.073  1.00  0.00    -0.191 A  
HETATM   11  C   UNL     1      -5.532  18.086  68.067  1.00  0.00    -0.152 A  
HETATM   12  C   UNL     1      -7.444  20.088  67.672  1.00  0.00    -0.327 A  
BRANCH   5  13
HETATM   13  C   UNL     1     -10.185  16.037  68.298  1.00  0.00    -0.237 C  
HETATM   14  C   UNL     1     -10.658  15.286  67.289  1.00  0.00    -0.290 C  
BRANCH  14  15
HETATM   15  C   UNL     1     -11.872  14.407  67.397  1.00  0.00    -0.400 C  
HETATM   16  H   UNL     1     -13.107  13.977  68.804  1.00  0.00     0.000 HD 
HETATM   17  O   UNL     1     -12.339  14.533  68.737  1.00  0.00    -0.189 OA 
BRANCH  15  18
HETATM   18  C   UNL     1     -11.544  12.945  67.058  1.00  0.00    -0.419 C  
BRANCH  18  19
HETATM   19  C   UNL     1     -11.309  12.064  68.299  1.00  0.00    -0.286 C  
HETATM   20  O   UNL     1     -10.083  12.441  68.949  1.00  0.00    -0.411 OA 
HETATM   21  H   UNL     1      -9.938  11.897  69.714  1.00  0.00     0.000 HD 
BRANCH  19  22
HETATM   22  C   UNL     1     -11.242  10.575  67.966  1.00  0.00    -0.361 C  
HETATM   23  C   UNL     1     -10.699   9.695  69.070  1.00  0.00    -0.211 C  
HETATM   24  O   UNL     1     -11.062  10.060  70.318  1.00  0.00    -0.271 OA 
HETATM   25  O   UNL     1     -10.054   8.680  68.849  1.00  0.00    -0.191 OA 
ENDBRANCH  19  22
ENDBRANCH  18  19
ENDBRANCH  15  18
ENDBRANCH  14  15
ENDBRANCH   5  13
BRANCH   7  26
HETATM   26  C   UNL     1      -7.122  15.149  68.611  1.00  0.00    -0.115 A  
HETATM   27  C   UNL     1      -6.611  12.849  67.943  1.00  0.00    -0.125 A  
HETATM   28  C   UNL     1      -6.002  13.603  70.145  1.00  0.00    -0.146 A  
HETATM   29  C   UNL     1      -6.022  12.614  69.175  1.00  0.00    -0.086 A  
HETATM   30  C   UNL     1      -7.138  14.115  67.659  1.00  0.00    -0.199 A  
HETATM   31  C   UNL     1      -6.575  14.850  69.873  1.00  0.00    -0.175 A  
HETATM   32  F   UNL     1      -5.465  11.423  69.428  1.00  0.00    -0.047 F  
ENDBRANCH   7  26
ENDBRANCH   2   4
TORSDOF 7
ENDMDL
MODEL       85
REMARK 921   NORMALIZED FREE ENERGY PREDICTED BY IDOCK:   -5.58 KCAL/MOL
REMARK 922        TOTAL FREE ENERGY PREDICTED BY IDOCK:   -9.57 KCAL/MOL
REMARK 923 INTER-LIGAND FREE ENERGY PREDICTED BY IDOCK:   -8.48 KCAL/MOL
REMARK 924 INTRA-LIGAND FREE ENERGY PREDICTED BY IDOCK:   -1.09 KCAL/MOL
REMARK 927      BINDING AFFINITY PREDICTED BY RF-SCORE:    0.00 PKD
ROOT
HETATM    1  C   UNL     1      -9.557   4.773  67.380  1.00  0.00    -0.186 C  
HETATM    2  C   UNL     1      -8.788   5.187  68.638  1.00  0.00    -0.096 C  
HETATM    3  C   UNL     1      -7.427   5.834  68.376  1.00  0.00    -0.081 C  
ENDROOT
BRANCH   2   4
HETATM    4  N   UNL     1      -9.589   5.919  69.629  1.00  0.00    -0.145 NA 
HETATM    5  C   UNL     1     -10.017   7.242  69.579  1.00  0.00    -0.170 A  
HETATM    6  C   UNL     1     -11.194   4.560  73.209  1.00  0.00    -0.388 A  
HETATM    7  C   UNL     1     -10.869   7.458  70.674  1.00  0.00    -0.258 A  
HETATM    8  C   UNL     1     -10.329   3.692  72.564  1.00  0.00    -0.199 A  
HETATM    9  C   UNL     1     -10.015   5.329  70.812  1.00  0.00    -0.211 A  
HETATM   10  C   UNL     1     -10.858   6.241  71.456  1.00  0.00    -0.303 A  
HETATM   11  C   UNL     1     -11.476   5.817  72.660  1.00  0.00    -0.337 A  
HETATM   12  C   UNL     1      -9.739   4.057  71.355  1.00  0.00    -0.253 A  
BRANCH   5  13
HETATM   13  C   UNL     1      -9.616   8.071  68.493  1.00  0.00    -0.159 C  
HETATM   14  C   UNL     1     -10.399   8.273  67.420  1.00  0.00    -0.350 C  
BRANCH  14  15
HETATM   15  C   UNL     1     -10.038   9.182  66.279  1.00  0.00    -0.249 C  
HETATM   16  H   UNL     1      -8.396   9.922  65.609  1.00  0.00     0.000 HD 
HETATM   17  O   UNL     1      -8.624   9.347  66.331  1.00  0.00    -0.130 OA 
BRANCH  15  18
HETATM   18  C   UNL     1     -10.759  10.535  66.383  1.00  0.00    -0.166 C  
BRANCH  18  19
HETATM   19  C   UNL     1     -10.092  11.652  65.559  1.00  0.00    -0.246 C  
HETATM   20  O   UNL     1     -10.068  12.876  66.311  1.00  0.00    -0.264 OA 
HETATM   21  H   UNL     1      -9.657  13.565  65.803  1.00  0.00     0.000 HD 
BRANCH  19  22
HETATM   22  C   UNL     1     -10.802  11.914  64.232  1.00  0.00    -0.396 C  
HETATM   23  C   UNL     1     -12.276  12.234  64.347  1.00  0.00    -0.402 C  
HETATM   24  O   UNL     1     -12.614  12.984  65.417  1.00  0.00    -0.489 OA 
HETATM   25  O   UNL     1     -13.090  11.916  63.492  1.00  0.00    -0.715 OA 
ENDBRANCH  19  22
ENDBRANCH  18  19
ENDBRANCH  15  18
ENDBRANCH  14  15
ENDBRANCH   5  13
BRANCH   7  26
HETATM   26  C   UNL     1     -11.551   8.740  70.958  1.00  0.00    -0.337 A  
HETATM   27  C   UNL     1     -11.599  11.187  70.836  1.00  0.00     0.086 A  
HETATM   28  C   UNL     1     -13.503  10.009  71.718  1.00  0.00    -0.422 A  
HETATM   29  C   UNL     1     -12.883  11.194  71.358  1.00  0.00    -0.439 A  
HETATM   30  C   UNL     1     -10.948   9.965  70.620  1.00  0.00    -0.405 A  
HETATM   31  C   UNL     1     -12.828   8.795  71.547  1.00  0.00    -0.366 A  
HETATM   32  F   UNL     1     -13.531  12.356  71.510  1.00  0.00    -0.404 F  
ENDBRANCH   7  26
ENDBRANCH   2   4
TORSDOF 7
ENDMDL
MODEL       86
REMARK 921   NORMALIZED FREE ENERGY PREDICTED BY IDOCK:   -5.57 KCAL/MOL
REMARK 922        TOTAL FREE ENERGY PREDICTED BY IDOCK:   -9.55 KCAL/MOL
REMARK 923 INTER-LIGAND FREE ENERGY PREDICTED BY IDOCK:   -7.65 KCAL/MOL
REMARK 924 INTRA-LIGAND FREE ENERGY PREDICTED BY IDOCK:   -1.90 KCAL/MOL
REMARK 927      BINDING AFFINITY PREDICTED BY RF-SCORE:    0.00 PKD
ROOT
HETATM    1  C   UNL     1     -10.212  13.368  66.088  1.00  0.00    -0.301 C  
HETATM    2  C   UNL     1     -11.116  12.153  65.859  1.00  0.00    -0.318 C  
HETATM    3  C   UNL     1     -12.008  12.240  64.620  1.00  0.00    -0.437 C  
ENDROOT
BRANCH   2   4
HETATM    4  N   UNL     1     -10.437  10.856  65.986  1.00  0.00    -0.245 NA 
HETATM    5  C   UNL     1     -10.516   9.944  67.034  1.00  0.00    -0.230 A  
HETATM    6  C   UNL     1      -7.885   8.970  63.307  1.00  0.00    -0.135 A  
HETATM    7  C   UNL     1      -9.811   8.790  66.652  1.00  0.00    -0.335 A  
HETATM    8  C   UNL     1      -8.235  10.274  62.997  1.00  0.00    -0.162 A  
HETATM    9  C   UNL     1      -9.568  10.382  65.011  1.00  0.00    -0.280 A  
HETATM   10  C   UNL     1      -9.207   9.079  65.370  1.00  0.00    -0.241 A  
HETATM   11  C   UNL     1      -8.375   8.364  64.471  1.00  0.00    -0.125 A  
HETATM   12  C   UNL     1      -9.088  10.992  63.835  1.00  0.00    -0.128 A  
BRANCH   5  13
HETATM   13  C   UNL     1     -11.283  10.265  68.190  1.00  0.00    -0.294 C  
HETATM   14  C   UNL     1     -10.769  10.202  69.430  1.00  0.00    -0.266 C  
BRANCH  14  15
HETATM   15  C   UNL     1     -11.527  10.586  70.671  1.00  0.00    -0.327 C  
HETATM   16  H   UNL     1     -12.582   9.628  71.959  1.00  0.00     0.000 HD 
HETATM   17  O   UNL     1     -12.103   9.385  71.175  1.00  0.00    -0.300 OA 
BRANCH  15  18
HETATM   18  C   UNL     1     -12.606  11.638  70.372  1.00  0.00    -0.213 C  
BRANCH  18  19
HETATM   19  C   UNL     1     -12.118  13.087  70.552  1.00  0.00    -0.292 C  
HETATM   20  O   UNL     1     -13.045  13.826  71.364  1.00  0.00    -0.342 OA 
HETATM   21  H   UNL     1     -12.744  14.720  71.474  1.00  0.00     0.000 HD 
BRANCH  19  22
HETATM   22  C   UNL     1     -11.945  13.823  69.225  1.00  0.00    -0.399 C  
HETATM   23  C   UNL     1     -11.510  15.266  69.344  1.00  0.00    -0.315 C  
HETATM   24  O   UNL     1     -10.630  15.515  70.338  1.00  0.00    -0.317 OA 
HETATM   25  O   UNL     1     -11.857  16.129  68.551  1.00  0.00    -0.300 OA 
ENDBRANCH  19  22
ENDBRANCH  18  19
ENDBRANCH  15  18
ENDBRANCH  14  15
ENDBRANCH   5  13
BRANCH   7  26
HETATM   26  C   UNL     1      -9.684   7.578  67.490  1.00  0.00    -0.190 A  
HETATM   27  C   UNL     1      -8.350   6.161  68.978  1.00  0.00    -0.112 A  
HETATM   28  C   UNL     1     -10.655   5.604  68.567  1.00  0.00    -0.259 A  
HETATM   29  C   UNL     1      -9.451   5.350  69.204  1.00  0.00    -0.133 A  
HETATM   30  C   UNL     1      -8.474   7.277  68.142  1.00  0.00    -0.123 A  
HETATM   31  C   UNL     1     -10.759   6.693  67.693  1.00  0.00    -0.373 A  
HETATM   32  F   UNL     1      -9.352   4.316  70.049  1.00  0.00    -0.159 F  
ENDBRANCH   7  26
ENDBRANCH   2   4
TORSDOF 7
ENDMDL
MODEL       87
REMARK 921   NORMALIZED FREE ENERGY PREDICTED BY IDOCK:   -5.56 KCAL/MOL
REMARK 922        TOTAL FREE ENERGY PREDICTED BY IDOCK:   -9.54 KCAL/MOL
REMARK 923 INTER-LIGAND FREE ENERGY PREDICTED BY IDOCK:   -8.21 KCAL/MOL
REMARK 924 INTRA-LIGAND FREE ENERGY PREDICTED BY IDOCK:   -1.33 KCAL/MOL
REMARK 927      BINDING AFFINITY PREDICTED BY RF-SCORE:    0.00 PKD
ROOT
HETATM    1  C   UNL     1     -11.196  11.351  64.098  1.00  0.00    -0.327 C  
HETATM    2  C   UNL     1     -10.298  10.599  65.086  1.00  0.00    -0.261 C  
HETATM    3  C   UNL     1      -8.797  10.764  64.845  1.00  0.00    -0.176 C  
ENDROOT
BRANCH   2   4
HETATM    4  N   UNL     1     -10.673  10.764  66.497  1.00  0.00    -0.218 NA 
HETATM    5  C   UNL     1     -10.605   9.823  67.520  1.00  0.00    -0.275 A  
HETATM    6  C   UNL     1     -12.119  14.138  68.438  1.00  0.00    -0.308 A  
HETATM    7  C   UNL     1     -10.933  10.472  68.722  1.00  0.00    -0.296 A  
HETATM    8  C   UNL     1     -12.021  14.226  67.059  1.00  0.00    -0.463 A  
HETATM    9  C   UNL     1     -11.191  11.957  66.986  1.00  0.00    -0.323 A  
HETATM   10  C   UNL     1     -11.310  11.824  68.374  1.00  0.00    -0.328 A  
HETATM   11  C   UNL     1     -11.753  12.959  69.100  1.00  0.00    -0.376 A  
HETATM   12  C   UNL     1     -11.545  13.146  66.318  1.00  0.00    -0.399 A  
BRANCH   5  13
HETATM   13  C   UNL     1     -10.186   8.494  67.226  1.00  0.00    -0.346 C  
HETATM   14  C   UNL     1     -10.978   7.430  67.443  1.00  0.00    -0.214 C  
BRANCH  14  15
HETATM   15  C   UNL     1     -10.596   6.018  67.096  1.00  0.00    -0.302 C  
HETATM   16  H   UNL     1     -10.241   4.427  68.112  1.00  0.00     0.000 HD 
HETATM   17  O   UNL     1     -10.482   5.319  68.332  1.00  0.00    -0.154 OA 
BRANCH  15  18
HETATM   18  C   UNL     1      -9.281   5.966  66.304  1.00  0.00    -0.171 C  
BRANCH  18  19
HETATM   19  C   UNL     1      -9.011   4.597  65.651  1.00  0.00    -0.138 C  
HETATM   20  O   UNL     1      -9.823   3.585  66.268  1.00  0.00    -0.404 OA 
HETATM   21  H   UNL     1      -9.656   2.741  65.865  1.00  0.00     0.000 HD 
BRANCH  19  22
HETATM   22  C   UNL     1      -7.548   4.171  65.752  1.00  0.00    -0.085 C  
HETATM   23  C   UNL     1      -6.993   4.110  67.157  1.00  0.00    -0.059 C  
HETATM   24  O   UNL     1      -7.860   3.664  68.092  1.00  0.00    -0.068 OA 
HETATM   25  O   UNL     1      -5.826   4.360  67.419  1.00  0.00    -0.021 OA 
ENDBRANCH  19  22
ENDBRANCH  18  19
ENDBRANCH  15  18
ENDBRANCH  14  15
ENDBRANCH   5  13
BRANCH   7  26
HETATM   26  C   UNL     1     -10.948   9.812  70.046  1.00  0.00    -0.319 A  
HETATM   27  C   UNL     1     -12.196   8.958  71.973  1.00  0.00    -0.447 A  
HETATM   28  C   UNL     1      -9.817   8.615  71.859  1.00  0.00    -0.384 A  
HETATM   29  C   UNL     1     -11.028   8.436  72.506  1.00  0.00    -0.318 A  
HETATM   30  C   UNL     1     -12.156   9.624  70.742  1.00  0.00    -0.328 A  
HETATM   31  C   UNL     1      -9.776   9.325  70.653  1.00  0.00    -0.334 A  
HETATM   32  F   UNL     1     -11.072   7.747  73.654  1.00  0.00    -0.368 F  
ENDBRANCH   7  26
ENDBRANCH   2   4
TORSDOF 7
ENDMDL
MODEL       88
REMARK 921   NORMALIZED FREE ENERGY PREDICTED BY IDOCK:   -5.54 KCAL/MOL
REMARK 922        TOTAL FREE ENERGY PREDICTED BY IDOCK:   -9.51 KCAL/MOL
REMARK 923 INTER-LIGAND FREE ENERGY PREDICTED BY IDOCK:   -8.07 KCAL/MOL
REMARK 924 INTRA-LIGAND FREE ENERGY PREDICTED BY IDOCK:   -1.45 KCAL/MOL
REMARK 927      BINDING AFFINITY PREDICTED BY RF-SCORE:    0.00 PKD
ROOT
HETATM    1  C   UNL     1      -8.117   8.584  67.032  1.00  0.00    -0.103 C  
HETATM    2  C   UNL     1      -9.584   8.572  66.591  1.00  0.00    -0.227 C  
HETATM    3  C   UNL     1     -10.302   7.235  66.781  1.00  0.00    -0.311 C  
ENDROOT
BRANCH   2   4
HETATM    4  N   UNL     1     -10.372   9.717  67.065  1.00  0.00    -0.238 NA 
HETATM    5  C   UNL     1     -10.845   9.962  68.351  1.00  0.00    -0.221 A  
HETATM    6  C   UNL     1     -11.676  13.045  64.951  1.00  0.00    -0.381 A  
HETATM    7  C   UNL     1     -11.422  11.243  68.359  1.00  0.00    -0.377 A  
HETATM    8  C   UNL     1     -11.102  12.034  64.198  1.00  0.00    -0.431 A  
HETATM    9  C   UNL     1     -10.773  10.738  66.212  1.00  0.00    -0.138 A  
HETATM   10  C   UNL     1     -11.378  11.726  66.996  1.00  0.00    -0.387 A  
HETATM   11  C   UNL     1     -11.801  12.909  66.339  1.00  0.00    -0.478 A  
HETATM   12  C   UNL     1     -10.632  10.876  64.817  1.00  0.00    -0.316 A  
BRANCH   5  13
HETATM   13  C   UNL     1     -10.629   8.996  69.375  1.00  0.00    -0.231 C  
HETATM   14  C   UNL     1      -9.717   9.174  70.345  1.00  0.00    -0.266 C  
BRANCH  14  15
HETATM   15  C   UNL     1      -9.497   8.206  71.475  1.00  0.00    -0.171 C  
HETATM   16  H   UNL     1     -10.203   8.021  73.251  1.00  0.00     0.000 HD 
HETATM   17  O   UNL     1     -10.343   8.633  72.538  1.00  0.00    -0.295 OA 
BRANCH  15  18
HETATM   18  C   UNL     1      -8.025   8.174  71.914  1.00  0.00    -0.153 C  
BRANCH  18  19
HETATM   19  C   UNL     1      -7.161   7.196  71.097  1.00  0.00    -0.074 C  
HETATM   20  O   UNL     1      -6.422   7.908  70.091  1.00  0.00    -0.036 OA 
HETATM   21  H   UNL     1      -5.889   7.304  69.587  1.00  0.00     0.000 HD 
BRANCH  19  22
HETATM   22  C   UNL     1      -7.986   6.108  70.411  1.00  0.00    -0.108 C  
HETATM   23  C   UNL     1      -7.330   5.471  69.206  1.00  0.00    -0.070 C  
HETATM   24  O   UNL     1      -5.995   5.299  69.310  1.00  0.00    -0.021 OA 
HETATM   25  O   UNL     1      -7.966   5.062  68.246  1.00  0.00    -0.086 OA 
ENDBRANCH  19  22
ENDBRANCH  18  19
ENDBRANCH  15  18
ENDBRANCH  14  15
ENDBRANCH   5  13
BRANCH   7  26
HETATM   26  C   UNL     1     -12.016  11.879  69.555  1.00  0.00    -0.355 A  
HETATM   27  C   UNL     1     -13.172  11.683  71.706  1.00  0.00    -0.438 A  
HETATM   28  C   UNL     1     -12.437  13.847  70.952  1.00  0.00    -0.447 A  
HETATM   29  C   UNL     1     -13.037  13.047  71.910  1.00  0.00    -0.384 A  
HETATM   30  C   UNL     1     -12.647  11.104  70.544  1.00  0.00    -0.360 A  
HETATM   31  C   UNL     1     -11.958  13.269  69.770  1.00  0.00    -0.391 A  
HETATM   32  F   UNL     1     -13.486  13.596  73.046  1.00  0.00    -0.573 F  
ENDBRANCH   7  26
ENDBRANCH   2   4
TORSDOF 7
ENDMDL
MODEL       89
REMARK 921   NORMALIZED FREE ENERGY PREDICTED BY IDOCK:   -5.53 KCAL/MOL
REMARK 922        TOTAL FREE ENERGY PREDICTED BY IDOCK:   -9.50 KCAL/MOL
REMARK 923 INTER-LIGAND FREE ENERGY PREDICTED BY IDOCK:   -8.76 KCAL/MOL
REMARK 924 INTRA-LIGAND FREE ENERGY PREDICTED BY IDOCK:   -0.74 KCAL/MOL
REMARK 927      BINDING AFFINITY PREDICTED BY RF-SCORE:    0.00 PKD
ROOT
HETATM    1  C   UNL     1     -10.495   7.729  66.777  1.00  0.00    -0.318 C  
HETATM    2  C   UNL     1      -9.518   8.898  66.940  1.00  0.00    -0.177 C  
HETATM    3  C   UNL     1      -8.336   8.887  65.970  1.00  0.00    -0.128 C  
ENDROOT
BRANCH   2   4
HETATM    4  N   UNL     1     -10.157  10.216  67.050  1.00  0.00    -0.213 NA 
HETATM    5  C   UNL     1     -10.579  10.873  68.201  1.00  0.00    -0.198 A  
HETATM    6  C   UNL     1     -11.087  12.925  64.043  1.00  0.00    -0.455 A  
HETATM    7  C   UNL     1     -10.999  12.161  67.830  1.00  0.00    -0.272 A  
HETATM    8  C   UNL     1     -10.649  11.680  63.624  1.00  0.00    -0.493 A  
HETATM    9  C   UNL     1     -10.446  10.988  65.932  1.00  0.00    -0.240 A  
HETATM   10  C   UNL     1     -10.918  12.224  66.387  1.00  0.00    -0.326 A  
HETATM   11  C   UNL     1     -11.208  13.210  65.410  1.00  0.00    -0.315 A  
HETATM   12  C   UNL     1     -10.311  10.702  64.558  1.00  0.00    -0.352 A  
BRANCH   5  13
HETATM   13  C   UNL     1     -10.464  10.224  69.464  1.00  0.00    -0.268 C  
HETATM   14  C   UNL     1     -11.483   9.543  70.013  1.00  0.00    -0.149 C  
BRANCH  14  15
HETATM   15  C   UNL     1     -11.387   8.798  71.315  1.00  0.00    -0.291 C  
HETATM   16  H   UNL     1     -12.199   8.993  73.045  1.00  0.00     0.000 HD 
HETATM   17  O   UNL     1     -12.260   9.464  72.223  1.00  0.00    -0.307 OA 
BRANCH  15  18
HETATM   18  C   UNL     1      -9.947   8.772  71.847  1.00  0.00    -0.401 C  
BRANCH  18  19
HETATM   19  C   UNL     1      -9.602   7.489  72.626  1.00  0.00    -0.170 C  
HETATM   20  O   UNL     1      -8.182   7.269  72.617  1.00  0.00    -0.104 OA 
HETATM   21  H   UNL     1      -7.970   6.477  73.097  1.00  0.00     0.000 HD 
BRANCH  19  22
HETATM   22  C   UNL     1     -10.287   6.248  72.057  1.00  0.00    -0.231 C  
HETATM   23  C   UNL     1     -10.023   5.987  70.591  1.00  0.00    -0.185 C  
HETATM   24  O   UNL     1      -8.772   6.279  70.177  1.00  0.00    -0.135 OA 
HETATM   25  O   UNL     1     -10.849   5.469  69.853  1.00  0.00    -0.326 OA 
ENDBRANCH  19  22
ENDBRANCH  18  19
ENDBRANCH  15  18
ENDBRANCH  14  15
ENDBRANCH   5  13
BRANCH   7  26
HETATM   26  C   UNL     1     -11.497  13.180  68.780  1.00  0.00    -0.348 A  
HETATM   27  C   UNL     1     -11.901  15.528  69.350  1.00  0.00    -0.392 A  
HETATM   28  C   UNL     1     -12.668  13.801  70.840  1.00  0.00    -0.394 A  
HETATM   29  C   UNL     1     -12.559  15.141  70.507  1.00  0.00    -0.380 A  
HETATM   30  C   UNL     1     -11.391  14.551  68.486  1.00  0.00    -0.309 A  
HETATM   31  C   UNL     1     -12.113  12.831  69.996  1.00  0.00    -0.355 A  
HETATM   32  F   UNL     1     -13.098  16.070  71.306  1.00  0.00    -0.529 F  
ENDBRANCH   7  26
ENDBRANCH   2   4
TORSDOF 7
ENDMDL
MODEL       90
REMARK 921   NORMALIZED FREE ENERGY PREDICTED BY IDOCK:   -5.50 KCAL/MOL
REMARK 922        TOTAL FREE ENERGY PREDICTED BY IDOCK:   -9.45 KCAL/MOL
REMARK 923 INTER-LIGAND FREE ENERGY PREDICTED BY IDOCK:   -7.70 KCAL/MOL
REMARK 924 INTRA-LIGAND FREE ENERGY PREDICTED BY IDOCK:   -1.75 KCAL/MOL
REMARK 927      BINDING AFFINITY PREDICTED BY RF-SCORE:    0.00 PKD
ROOT
HETATM    1  C   UNL     1      -9.056   6.909  70.840  1.00  0.00    -0.153 C  
HETATM    2  C   UNL     1     -10.034   7.221  69.703  1.00  0.00    -0.176 C  
HETATM    3  C   UNL     1     -11.203   6.244  69.575  1.00  0.00    -0.500 C  
ENDROOT
BRANCH   2   4
HETATM    4  N   UNL     1     -10.452   8.628  69.628  1.00  0.00    -0.219 NA 
HETATM    5  C   UNL     1     -10.007   9.610  68.749  1.00  0.00    -0.173 A  
HETATM    6  C   UNL     1     -13.282  10.637  71.908  1.00  0.00    -0.528 A  
HETATM    7  C   UNL     1     -10.789  10.759  68.958  1.00  0.00    -0.278 A  
HETATM    8  C   UNL     1     -12.967   9.353  72.324  1.00  0.00    -0.479 A  
HETATM    9  C   UNL     1     -11.388   9.165  70.503  1.00  0.00    -0.257 A  
HETATM   10  C   UNL     1     -11.659  10.470  70.078  1.00  0.00    -0.392 A  
HETATM   11  C   UNL     1     -12.652  11.192  70.787  1.00  0.00    -0.445 A  
HETATM   12  C   UNL     1     -12.029   8.597  71.623  1.00  0.00    -0.388 A  
BRANCH   5  13
HETATM   13  C   UNL     1      -8.974   9.305  67.817  1.00  0.00    -0.131 C  
HETATM   14  C   UNL     1      -9.238   8.872  66.573  1.00  0.00    -0.231 C  
BRANCH  14  15
HETATM   15  C   UNL     1      -8.180   8.592  65.542  1.00  0.00    -0.135 C  
HETATM   16  H   UNL     1      -8.096   8.711  63.627  1.00  0.00     0.000 HD 
HETATM   17  O   UNL     1      -8.765   8.887  64.278  1.00  0.00    -0.165 OA 
BRANCH  15  18
HETATM   18  C   UNL     1      -7.700   7.134  65.606  1.00  0.00    -0.102 C  
BRANCH  18  19
HETATM   19  C   UNL     1      -8.847   6.115  65.735  1.00  0.00    -0.124 C  
HETATM   20  O   UNL     1      -8.832   5.515  67.041  1.00  0.00    -0.112 OA 
HETATM   21  H   UNL     1      -9.539   4.887  67.121  1.00  0.00     0.000 HD 
BRANCH  19  22
HETATM   22  C   UNL     1      -8.771   5.002  64.692  1.00  0.00    -0.141 C  
HETATM   23  C   UNL     1      -9.834   3.934  64.817  1.00  0.00    -0.197 C  
HETATM   24  O   UNL     1     -11.051   4.382  65.194  1.00  0.00    -0.230 OA 
HETATM   25  O   UNL     1      -9.635   2.765  64.517  1.00  0.00    -0.152 OA 
ENDBRANCH  19  22
ENDBRANCH  18  19
ENDBRANCH  15  18
ENDBRANCH  14  15
ENDBRANCH   5  13
BRANCH   7  26
HETATM   26  C   UNL     1     -10.640  12.017  68.195  1.00  0.00    -0.233 A  
HETATM   27  C   UNL     1     -11.578  13.707  66.690  1.00  0.00    -0.391 A  
HETATM   28  C   UNL     1      -9.383  14.039  67.618  1.00  0.00    -0.203 A  
HETATM   29  C   UNL     1     -10.439  14.481  66.838  1.00  0.00    -0.269 A  
HETATM   30  C   UNL     1     -11.683  12.493  67.381  1.00  0.00    -0.432 A  
HETATM   31  C   UNL     1      -9.473  12.801  68.266  1.00  0.00    -0.203 A  
HETATM   32  F   UNL     1     -10.360  15.669  66.226  1.00  0.00    -0.264 F  
ENDBRANCH   7  26
ENDBRANCH   2   4
TORSDOF 7
ENDMDL
MODEL       91
REMARK 921   NORMALIZED FREE ENERGY PREDICTED BY IDOCK:   -5.49 KCAL/MOL
REMARK 922        TOTAL FREE ENERGY PREDICTED BY IDOCK:   -9.44 KCAL/MOL
REMARK 923 INTER-LIGAND FREE ENERGY PREDICTED BY IDOCK:   -7.79 KCAL/MOL
REMARK 924 INTRA-LIGAND FREE ENERGY PREDICTED BY IDOCK:   -1.64 KCAL/MOL
REMARK 927      BINDING AFFINITY PREDICTED BY RF-SCORE:    0.00 PKD
ROOT
HETATM    1  C   UNL     1     -10.901   6.885  66.946  1.00  0.00    -0.380 C  
HETATM    2  C   UNL     1     -10.051   7.825  67.806  1.00  0.00    -0.189 C  
HETATM    3  C   UNL     1      -8.540   7.661  67.637  1.00  0.00    -0.116 C  
ENDROOT
BRANCH   2   4
HETATM    4  N   UNL     1     -10.481   9.229  67.782  1.00  0.00    -0.247 NA 
HETATM    5  C   UNL     1     -10.402  10.134  66.727  1.00  0.00    -0.222 A  
HETATM    6  C   UNL     1     -12.290  11.460  70.781  1.00  0.00    -0.483 A  
HETATM    7  C   UNL     1     -11.062  11.309  67.120  1.00  0.00    -0.364 A  
HETATM    8  C   UNL     1     -11.831  10.206  71.149  1.00  0.00    -0.472 A  
HETATM    9  C   UNL     1     -11.033   9.850  68.895  1.00  0.00    -0.179 A  
HETATM   10  C   UNL     1     -11.454  11.124  68.500  1.00  0.00    -0.371 A  
HETATM   11  C   UNL     1     -12.123  11.917  69.467  1.00  0.00    -0.288 A  
HETATM   12  C   UNL     1     -11.210   9.381  70.213  1.00  0.00    -0.286 A  
BRANCH   5  13
HETATM   13  C   UNL     1      -9.783   9.739  65.507  1.00  0.00    -0.382 C  
HETATM   14  C   UNL     1      -8.858  10.497  64.895  1.00  0.00    -0.207 C  
BRANCH  14  15
HETATM   15  C   UNL     1      -8.141  10.092  63.637  1.00  0.00    -0.163 C  
HETATM   16  H   UNL     1      -8.359  10.490  61.771  1.00  0.00     0.000 HD 
HETATM   17  O   UNL     1      -8.813  10.746  62.566  1.00  0.00    -0.237 OA 
BRANCH  15  18
HETATM   18  C   UNL     1      -8.146   8.568  63.449  1.00  0.00    -0.160 C  
BRANCH  18  19
HETATM   19  C   UNL     1      -6.836   8.017  62.856  1.00  0.00    -0.085 C  
HETATM   20  O   UNL     1      -6.927   6.593  62.688  1.00  0.00    -0.045 OA 
HETATM   21  H   UNL     1      -6.119   6.254  62.323  1.00  0.00     0.000 HD 
BRANCH  19  22
HETATM   22  C   UNL     1      -5.617   8.324  63.726  1.00  0.00    -0.061 C  
HETATM   23  C   UNL     1      -5.690   7.793  65.140  1.00  0.00    -0.037 C  
HETATM   24  O   UNL     1      -6.284   6.587  65.266  1.00  0.00    -0.032 OA 
HETATM   25  O   UNL     1      -5.174   8.367  66.088  1.00  0.00    -0.027 OA 
ENDBRANCH  19  22
ENDBRANCH  18  19
ENDBRANCH  15  18
ENDBRANCH  14  15
ENDBRANCH   5  13
BRANCH   7  26
HETATM   26  C   UNL     1     -11.217  12.503  66.260  1.00  0.00    -0.359 A  
HETATM   27  C   UNL     1     -12.515  13.780  64.622  1.00  0.00    -0.356 A  
HETATM   28  C   UNL     1     -10.499  14.728  65.530  1.00  0.00    -0.378 A  
HETATM   29  C   UNL     1     -11.612  14.828  64.713  1.00  0.00    -0.418 A  
HETATM   30  C   UNL     1     -12.326  12.636  65.406  1.00  0.00    -0.499 A  
HETATM   31  C   UNL     1     -10.289  13.561  66.274  1.00  0.00    -0.293 A  
HETATM   32  F   UNL     1     -11.821  15.948  64.009  1.00  0.00    -0.454 F  
ENDBRANCH   7  26
ENDBRANCH   2   4
TORSDOF 7
ENDMDL
MODEL       92
REMARK 921   NORMALIZED FREE ENERGY PREDICTED BY IDOCK:   -5.47 KCAL/MOL
REMARK 922        TOTAL FREE ENERGY PREDICTED BY IDOCK:   -9.41 KCAL/MOL
REMARK 923 INTER-LIGAND FREE ENERGY PREDICTED BY IDOCK:   -7.99 KCAL/MOL
REMARK 924 INTRA-LIGAND FREE ENERGY PREDICTED BY IDOCK:   -1.42 KCAL/MOL
REMARK 927      BINDING AFFINITY PREDICTED BY RF-SCORE:    0.00 PKD
ROOT
HETATM    1  C   UNL     1      -8.594   9.697  65.339  1.00  0.00    -0.167 C  
HETATM    2  C   UNL     1      -7.767  10.126  66.555  1.00  0.00    -0.108 C  
HETATM    3  C   UNL     1      -7.302  11.583  66.534  1.00  0.00    -0.012 C  
ENDROOT
BRANCH   2   4
HETATM    4  N   UNL     1      -8.333   9.725  67.849  1.00  0.00    -0.113 NA 
HETATM    5  C   UNL     1      -9.625   9.931  68.323  1.00  0.00    -0.140 A  
HETATM    6  C   UNL     1      -6.529   7.643  70.957  1.00  0.00    -0.038 A  
HETATM    7  C   UNL     1      -9.747   9.252  69.547  1.00  0.00    -0.179 A  
HETATM    8  C   UNL     1      -5.694   8.038  69.925  1.00  0.00    -0.023 A  
HETATM    9  C   UNL     1      -7.577   9.067  68.811  1.00  0.00    -0.087 A  
HETATM   10  C   UNL     1      -8.441   8.712  69.853  1.00  0.00    -0.129 A  
HETATM   11  C   UNL     1      -7.894   7.957  70.922  1.00  0.00    -0.088 A  
HETATM   12  C   UNL     1      -6.206   8.742  68.836  1.00  0.00    -0.044 A  
BRANCH   5  13
HETATM   13  C   UNL     1     -10.553  10.671  67.536  1.00  0.00    -0.297 C  
HETATM   14  C   UNL     1     -10.971  11.898  67.888  1.00  0.00    -0.270 C  
BRANCH  14  15
HETATM   15  C   UNL     1     -11.906  12.734  67.058  1.00  0.00    -0.361 C  
HETATM   16  H   UNL     1     -12.676  12.563  65.307  1.00  0.00     0.000 HD 
HETATM   17  O   UNL     1     -12.085  12.035  65.830  1.00  0.00    -0.546 OA 
BRANCH  15  18
HETATM   18  C   UNL     1     -11.343  14.143  66.818  1.00  0.00    -0.353 C  
BRANCH  18  19
HETATM   19  C   UNL     1     -10.919  14.394  65.359  1.00  0.00    -0.339 C  
HETATM   20  O   UNL     1      -9.711  13.674  65.062  1.00  0.00    -0.578 OA 
HETATM   21  H   UNL     1      -9.450  13.830  64.162  1.00  0.00     0.000 HD 
BRANCH  19  22
HETATM   22  C   UNL     1     -10.686  15.873  65.056  1.00  0.00    -0.426 C  
HETATM   23  C   UNL     1      -9.830  16.607  66.064  1.00  0.00    -0.309 C  
HETATM   24  O   UNL     1      -8.809  15.885  66.576  1.00  0.00    -0.246 OA 
HETATM   25  O   UNL     1      -9.991  17.788  66.333  1.00  0.00    -0.318 OA 
ENDBRANCH  19  22
ENDBRANCH  18  19
ENDBRANCH  15  18
ENDBRANCH  14  15
ENDBRANCH   5  13
BRANCH   7  26
HETATM   26  C   UNL     1     -10.985   9.210  70.355  1.00  0.00    -0.290 A  
HETATM   27  C   UNL     1     -12.717   7.921  71.513  1.00  0.00    -0.342 A  
HETATM   28  C   UNL     1     -12.726  10.322  71.672  1.00  0.00    -0.561 A  
HETATM   29  C   UNL     1     -13.266   9.092  72.010  1.00  0.00    -0.441 A  
HETATM   30  C   UNL     1     -11.572   7.982  70.708  1.00  0.00    -0.251 A  
HETATM   31  C   UNL     1     -11.612  10.379  70.825  1.00  0.00    -0.450 A  
HETATM   32  F   UNL     1     -14.324   9.034  72.828  1.00  0.00    -0.482 F  
ENDBRANCH   7  26
ENDBRANCH   2   4
TORSDOF 7
ENDMDL
MODEL       93
REMARK 921   NORMALIZED FREE ENERGY PREDICTED BY IDOCK:   -5.44 KCAL/MOL
REMARK 922        TOTAL FREE ENERGY PREDICTED BY IDOCK:   -9.37 KCAL/MOL
REMARK 923 INTER-LIGAND FREE ENERGY PREDICTED BY IDOCK:   -7.47 KCAL/MOL
REMARK 924 INTRA-LIGAND FREE ENERGY PREDICTED BY IDOCK:   -1.90 KCAL/MOL
REMARK 927      BINDING AFFINITY PREDICTED BY RF-SCORE:    0.00 PKD
ROOT
HETATM    1  C   UNL     1      -9.700  13.880  68.482  1.00  0.00    -0.202 C  
HETATM    2  C   UNL     1     -10.793  12.808  68.420  1.00  0.00    -0.249 C  
HETATM    3  C   UNL     1     -12.210  13.346  68.217  1.00  0.00    -0.120 C  
ENDROOT
BRANCH   2   4
HETATM    4  N   UNL     1     -10.481  11.670  67.545  1.00  0.00    -0.195 NA 
HETATM    5  C   UNL     1     -10.248  10.347  67.907  1.00  0.00    -0.179 A  
HETATM    6  C   UNL     1     -10.148  11.572  63.407  1.00  0.00    -0.454 A  
HETATM    7  C   UNL     1     -10.132   9.594  66.727  1.00  0.00    -0.301 A  
HETATM    8  C   UNL     1     -10.275  12.828  63.977  1.00  0.00    -0.323 A  
HETATM    9  C   UNL     1     -10.358  11.812  66.169  1.00  0.00    -0.230 A  
HETATM   10  C   UNL     1     -10.196  10.532  65.628  1.00  0.00    -0.315 A  
HETATM   11  C   UNL     1     -10.125  10.428  64.215  1.00  0.00    -0.306 A  
HETATM   12  C   UNL     1     -10.394  12.965  65.359  1.00  0.00    -0.310 A  
BRANCH   5  13
HETATM   13  C   UNL     1     -10.233   9.986  69.284  1.00  0.00    -0.229 C  
HETATM   14  C   UNL     1     -11.322   9.510  69.911  1.00  0.00    -0.161 C  
BRANCH  14  15
HETATM   15  C   UNL     1     -11.334   9.066  71.348  1.00  0.00    -0.323 C  
HETATM   16  H   UNL     1     -12.180   9.704  72.950  1.00  0.00     0.000 HD 
HETATM   17  O   UNL     1     -12.172   9.985  72.043  1.00  0.00    -0.295 OA 
BRANCH  15  18
HETATM   18  C   UNL     1      -9.919   9.043  71.945  1.00  0.00    -0.304 C  
BRANCH  18  19
HETATM   19  C   UNL     1      -9.557   7.705  72.615  1.00  0.00    -0.181 C  
HETATM   20  O   UNL     1      -8.841   6.866  71.694  1.00  0.00    -0.129 OA 
HETATM   21  H   UNL     1      -8.618   6.041  72.107  1.00  0.00     0.000 HD 
BRANCH  19  22
HETATM   22  C   UNL     1     -10.783   6.940  73.111  1.00  0.00    -0.338 C  
HETATM   23  C   UNL     1     -10.522   5.508  73.521  1.00  0.00    -0.253 C  
HETATM   24  O   UNL     1      -9.339   5.299  74.138  1.00  0.00    -0.124 OA 
HETATM   25  O   UNL     1     -11.351   4.620  73.386  1.00  0.00    -0.323 OA 
ENDBRANCH  19  22
ENDBRANCH  18  19
ENDBRANCH  15  18
ENDBRANCH  14  15
ENDBRANCH   5  13
BRANCH   7  26
HETATM   26  C   UNL     1      -9.906   8.132  66.691  1.00  0.00    -0.331 A  
HETATM   27  C   UNL     1      -8.417   6.228  66.294  1.00  0.00    -0.133 A  
HETATM   28  C   UNL     1     -10.637   5.837  67.135  1.00  0.00    -0.365 A  
HETATM   29  C   UNL     1      -9.398   5.358  66.745  1.00  0.00    -0.134 A  
HETATM   30  C   UNL     1      -8.666   7.606  66.287  1.00  0.00    -0.170 A  
HETATM   31  C   UNL     1     -10.897   7.212  67.079  1.00  0.00    -0.382 A  
HETATM   32  F   UNL     1      -9.143   4.045  66.808  1.00  0.00    -0.113 F  
ENDBRANCH   7  26
ENDBRANCH   2   4
TORSDOF 7
ENDMDL
MODEL       94
REMARK 921   NORMALIZED FREE ENERGY PREDICTED BY IDOCK:   -5.43 KCAL/MOL
REMARK 922        TOTAL FREE ENERGY PREDICTED BY IDOCK:   -9.35 KCAL/MOL
REMARK 923 INTER-LIGAND FREE ENERGY PREDICTED BY IDOCK:   -7.75 KCAL/MOL
REMARK 924 INTRA-LIGAND FREE ENERGY PREDICTED BY IDOCK:   -1.61 KCAL/MOL
REMARK 927      BINDING AFFINITY PREDICTED BY RF-SCORE:    0.00 PKD
ROOT
HETATM    1  C   UNL     1      -9.917  19.907  69.253  1.00  0.00    -0.268 C  
HETATM    2  C   UNL     1     -10.093  18.733  68.285  1.00  0.00    -0.383 C  
HETATM    3  C   UNL     1     -10.833  19.073  66.990  1.00  0.00    -0.438 C  
ENDROOT
BRANCH   2   4
HETATM    4  N   UNL     1      -8.876  17.942  68.058  1.00  0.00    -0.261 NA 
HETATM    5  C   UNL     1      -8.611  16.637  68.462  1.00  0.00    -0.234 A  
HETATM    6  C   UNL     1      -5.422  18.996  66.008  1.00  0.00    -0.178 A  
HETATM    7  C   UNL     1      -7.382  16.255  67.899  1.00  0.00    -0.140 A  
HETATM    8  C   UNL     1      -6.340  20.013  66.215  1.00  0.00    -0.201 A  
HETATM    9  C   UNL     1      -7.777  18.461  67.385  1.00  0.00    -0.223 A  
HETATM   10  C   UNL     1      -6.856  17.421  67.222  1.00  0.00    -0.194 A  
HETATM   11  C   UNL     1      -5.676  17.705  66.488  1.00  0.00    -0.230 A  
HETATM   12  C   UNL     1      -7.531  19.758  66.892  1.00  0.00    -0.266 A  
BRANCH   5  13
HETATM   13  C   UNL     1      -9.568  15.937  69.250  1.00  0.00    -0.266 C  
HETATM   14  C   UNL     1     -10.130  14.788  68.840  1.00  0.00    -0.237 C  
BRANCH  14  15
HETATM   15  C   UNL     1     -11.102  13.990  69.665  1.00  0.00    -0.104 C  
HETATM   16  H   UNL     1     -11.683  12.159  69.670  1.00  0.00     0.000 HD 
HETATM   17  O   UNL     1     -11.069  12.663  69.148  1.00  0.00    -0.245 OA 
BRANCH  15  18
HETATM   18  C   UNL     1     -12.519  14.578  69.597  1.00  0.00    -0.208 C  
BRANCH  18  19
HETATM   19  C   UNL     1     -12.939  15.318  70.881  1.00  0.00    -0.462 C  
HETATM   20  O   UNL     1     -12.081  16.448  71.105  1.00  0.00    -0.566 OA 
HETATM   21  H   UNL     1     -12.341  16.904  71.897  1.00  0.00     0.000 HD 
BRANCH  19  22
HETATM   22  C   UNL     1     -12.897  14.425  72.119  1.00  0.00    -0.418 C  
HETATM   23  C   UNL     1     -12.823  15.162  73.438  1.00  0.00    -0.537 C  
HETATM   24  O   UNL     1     -13.539  16.305  73.492  1.00  0.00    -0.642 OA 
HETATM   25  O   UNL     1     -12.232  14.717  74.411  1.00  0.00    -0.528 OA 
ENDBRANCH  19  22
ENDBRANCH  18  19
ENDBRANCH  15  18
ENDBRANCH  14  15
ENDBRANCH   5  13
BRANCH   7  26
HETATM   26  C   UNL     1      -6.765  14.923  68.075  1.00  0.00    -0.152 A  
HETATM   27  C   UNL     1      -5.291  13.419  69.327  1.00  0.00    -0.075 A  
HETATM   28  C   UNL     1      -6.564  12.556  67.477  1.00  0.00    -0.150 A  
HETATM   29  C   UNL     1      -5.677  12.359  68.522  1.00  0.00    -0.054 A  
HETATM   30  C   UNL     1      -5.848  14.686  69.115  1.00  0.00    -0.099 A  
HETATM   31  C   UNL     1      -7.079  13.836  67.238  1.00  0.00     0.054 A  
HETATM   32  F   UNL     1      -5.191  11.134  68.759  1.00  0.00    -0.042 F  
ENDBRANCH   7  26
ENDBRANCH   2   4
TORSDOF 7
ENDMDL
MODEL       95
REMARK 921   NORMALIZED FREE ENERGY PREDICTED BY IDOCK:   -5.43 KCAL/MOL
REMARK 922        TOTAL FREE ENERGY PREDICTED BY IDOCK:   -9.35 KCAL/MOL
REMARK 923 INTER-LIGAND FREE ENERGY PREDICTED BY IDOCK:   -7.69 KCAL/MOL
REMARK 924 INTRA-LIGAND FREE ENERGY PREDICTED BY IDOCK:   -1.66 KCAL/MOL
REMARK 927      BINDING AFFINITY PREDICTED BY RF-SCORE:    0.00 PKD
ROOT
HETATM    1  C   UNL     1     -12.656  13.566  65.156  1.00  0.00    -0.485 C  
HETATM    2  C   UNL     1     -11.197  13.768  64.735  1.00  0.00    -0.366 C  
HETATM    3  C   UNL     1     -10.688  15.206  64.850  1.00  0.00    -0.421 C  
ENDROOT
BRANCH   2   4
HETATM    4  N   UNL     1     -10.260  12.783  65.293  1.00  0.00    -0.288 NA 
HETATM    5  C   UNL     1      -9.665  12.780  66.551  1.00  0.00    -0.255 A  
HETATM    6  C   UNL     1      -8.788   9.306  63.564  1.00  0.00    -0.145 A  
HETATM    7  C   UNL     1      -8.960  11.573  66.689  1.00  0.00    -0.185 A  
HETATM    8  C   UNL     1      -9.521  10.136  62.731  1.00  0.00    -0.287 A  
HETATM    9  C   UNL     1      -9.824  11.686  64.562  1.00  0.00    -0.224 A  
HETATM   10  C   UNL     1      -9.060  10.887  65.419  1.00  0.00    -0.218 A  
HETATM   11  C   UNL     1      -8.569   9.661  64.901  1.00  0.00    -0.188 A  
HETATM   12  C   UNL     1     -10.057  11.326  63.219  1.00  0.00    -0.428 A  
BRANCH   5  13
HETATM   13  C   UNL     1      -9.899  13.866  67.443  1.00  0.00    -0.237 C  
HETATM   14  C   UNL     1     -10.706  13.754  68.510  1.00  0.00    -0.274 C  
BRANCH  14  15
HETATM   15  C   UNL     1     -10.936  14.857  69.506  1.00  0.00    -0.273 C  
HETATM   16  H   UNL     1     -12.392  16.053  69.884  1.00  0.00     0.000 HD 
HETATM   17  O   UNL     1     -12.247  15.356  69.255  1.00  0.00    -0.283 OA 
BRANCH  15  18
HETATM   18  C   UNL     1      -9.884  15.969  69.371  1.00  0.00    -0.254 C  
BRANCH  18  19
HETATM   19  C   UNL     1     -10.447  17.281  68.796  1.00  0.00    -0.340 C  
HETATM   20  O   UNL     1     -11.027  17.046  67.501  1.00  0.00    -0.258 OA 
HETATM   21  H   UNL     1     -11.373  17.856  67.146  1.00  0.00     0.000 HD 
BRANCH  19  22
HETATM   22  C   UNL     1      -9.386  18.372  68.659  1.00  0.00    -0.339 C  
HETATM   23  C   UNL     1      -9.616  19.351  67.530  1.00  0.00    -0.326 C  
HETATM   24  O   UNL     1     -10.908  19.679  67.315  1.00  0.00    -0.474 OA 
HETATM   25  O   UNL     1      -8.700  19.876  66.914  1.00  0.00    -0.313 OA 
ENDBRANCH  19  22
ENDBRANCH  18  19
ENDBRANCH  15  18
ENDBRANCH  14  15
ENDBRANCH   5  13
BRANCH   7  26
HETATM   26  C   UNL     1      -8.211  11.180  67.903  1.00  0.00    -0.121 A  
HETATM   27  C   UNL     1      -8.045   9.848  69.952  1.00  0.00    -0.200 A  
HETATM   28  C   UNL     1      -6.186  11.220  69.280  1.00  0.00    -0.073 A  
HETATM   29  C   UNL     1      -6.753  10.308  70.154  1.00  0.00    -0.146 A  
HETATM   30  C   UNL     1      -8.759  10.268  68.823  1.00  0.00    -0.144 A  
HETATM   31  C   UNL     1      -6.923  11.675  68.180  1.00  0.00    -0.071 A  
HETATM   32  F   UNL     1      -6.046   9.862  71.200  1.00  0.00    -0.076 F  
ENDBRANCH   7  26
ENDBRANCH   2   4
TORSDOF 7
ENDMDL
MODEL       96
REMARK 921   NORMALIZED FREE ENERGY PREDICTED BY IDOCK:   -5.42 KCAL/MOL
REMARK 922        TOTAL FREE ENERGY PREDICTED BY IDOCK:   -9.34 KCAL/MOL
REMARK 923 INTER-LIGAND FREE ENERGY PREDICTED BY IDOCK:   -8.23 KCAL/MOL
REMARK 924 INTRA-LIGAND FREE ENERGY PREDICTED BY IDOCK:   -1.12 KCAL/MOL
REMARK 927      BINDING AFFINITY PREDICTED BY RF-SCORE:    0.00 PKD
ROOT
HETATM    1  C   UNL     1      -7.455   9.986  64.354  1.00  0.00    -0.141 C  
HETATM    2  C   UNL     1      -7.131   9.013  65.492  1.00  0.00    -0.081 C  
HETATM    3  C   UNL     1      -5.793   9.263  66.189  1.00  0.00    -0.057 C  
ENDROOT
BRANCH   2   4
HETATM    4  N   UNL     1      -8.235   8.790  66.435  1.00  0.00    -0.109 NA 
HETATM    5  C   UNL     1      -8.751   9.673  67.379  1.00  0.00    -0.128 A  
HETATM    6  C   UNL     1     -10.629   5.430  66.906  1.00  0.00    -0.320 A  
HETATM    7  C   UNL     1      -9.886   9.075  67.950  1.00  0.00    -0.207 A  
HETATM    8  C   UNL     1      -9.545   5.289  66.055  1.00  0.00    -0.166 A  
HETATM    9  C   UNL     1      -8.914   7.579  66.501  1.00  0.00    -0.162 A  
HETATM   10  C   UNL     1      -9.979   7.744  67.392  1.00  0.00    -0.257 A  
HETATM   11  C   UNL     1     -10.862   6.647  67.559  1.00  0.00    -0.417 A  
HETATM   12  C   UNL     1      -8.683   6.361  65.831  1.00  0.00    -0.152 A  
BRANCH   5  13
HETATM   13  C   UNL     1      -8.145  10.950  67.552  1.00  0.00    -0.116 C  
HETATM   14  C   UNL     1      -8.644  12.062  66.987  1.00  0.00    -0.185 C  
BRANCH  14  15
HETATM   15  C   UNL     1      -8.068  13.436  67.190  1.00  0.00    -0.083 C  
HETATM   16  H   UNL     1      -6.872  14.223  68.471  1.00  0.00     0.000 HD 
HETATM   17  O   UNL     1      -7.236  13.354  68.343  1.00  0.00    -0.093 OA 
BRANCH  15  18
HETATM   18  C   UNL     1      -9.170  14.490  67.373  1.00  0.00    -0.202 C  
BRANCH  18  19
HETATM   19  C   UNL     1      -8.915  15.788  66.585  1.00  0.00    -0.280 C  
HETATM   20  O   UNL     1      -8.163  16.715  67.386  1.00  0.00    -0.164 OA 
HETATM   21  H   UNL     1      -8.006  17.515  66.899  1.00  0.00     0.000 HD 
BRANCH  19  22
HETATM   22  C   UNL     1     -10.205  16.473  66.137  1.00  0.00    -0.360 C  
HETATM   23  C   UNL     1     -10.806  15.933  64.858  1.00  0.00    -0.400 C  
HETATM   24  O   UNL     1     -10.696  14.597  64.697  1.00  0.00    -0.393 OA 
HETATM   25  O   UNL     1     -11.421  16.635  64.069  1.00  0.00    -1.192 OA 
ENDBRANCH  19  22
ENDBRANCH  18  19
ENDBRANCH  15  18
ENDBRANCH  14  15
ENDBRANCH   5  13
BRANCH   7  26
HETATM   26  C   UNL     1     -10.732   9.714  68.982  1.00  0.00    -0.232 A  
HETATM   27  C   UNL     1     -11.611   9.763  71.268  1.00  0.00    -0.465 A  
HETATM   28  C   UNL     1     -12.142  11.560  69.759  1.00  0.00    -0.374 A  
HETATM   29  C   UNL     1     -12.225  10.979  71.013  1.00  0.00    -0.351 A  
HETATM   30  C   UNL     1     -10.854   9.147  70.264  1.00  0.00    -0.282 A  
HETATM   31  C   UNL     1     -11.426  10.915  68.743  1.00  0.00    -0.376 A  
HETATM   32  F   UNL     1     -12.901  11.599  71.989  1.00  0.00    -0.482 F  
ENDBRANCH   7  26
ENDBRANCH   2   4
TORSDOF 7
ENDMDL
MODEL       97
REMARK 921   NORMALIZED FREE ENERGY PREDICTED BY IDOCK:   -5.42 KCAL/MOL
REMARK 922        TOTAL FREE ENERGY PREDICTED BY IDOCK:   -9.34 KCAL/MOL
REMARK 923 INTER-LIGAND FREE ENERGY PREDICTED BY IDOCK:   -7.43 KCAL/MOL
REMARK 924 INTRA-LIGAND FREE ENERGY PREDICTED BY IDOCK:   -1.91 KCAL/MOL
REMARK 927      BINDING AFFINITY PREDICTED BY RF-SCORE:    0.00 PKD
ROOT
HETATM    1  C   UNL     1     -12.997  13.898  65.399  1.00  0.00    -0.368 C  
HETATM    2  C   UNL     1     -11.598  13.911  64.774  1.00  0.00    -0.374 C  
HETATM    3  C   UNL     1     -10.938  15.288  64.703  1.00  0.00    -0.322 C  
ENDROOT
BRANCH   2   4
HETATM    4  N   UNL     1     -10.695  12.869  65.282  1.00  0.00    -0.289 NA 
HETATM    5  C   UNL     1     -10.157  12.746  66.559  1.00  0.00    -0.258 A  
HETATM    6  C   UNL     1      -9.178   9.542  63.314  1.00  0.00    -0.028 A  
HETATM    7  C   UNL     1      -9.468  11.523  66.619  1.00  0.00    -0.208 A  
HETATM    8  C   UNL     1      -9.866  10.451  62.528  1.00  0.00    -0.006 A  
HETATM    9  C   UNL     1     -10.236  11.835  64.475  1.00  0.00    -0.284 A  
HETATM   10  C   UNL     1      -9.518  10.954  65.290  1.00  0.00    -0.257 A  
HETATM   11  C   UNL     1      -9.015   9.774  64.686  1.00  0.00    -0.270 A  
HETATM   12  C   UNL     1     -10.414  11.600  63.097  1.00  0.00    -0.368 A  
BRANCH   5  13
HETATM   13  C   UNL     1     -10.420  13.751  67.533  1.00  0.00    -0.245 C  
HETATM   14  C   UNL     1      -9.505  14.673  67.876  1.00  0.00    -0.210 C  
BRANCH  14  15
HETATM   15  C   UNL     1      -9.761  15.783  68.857  1.00  0.00    -0.225 C  
HETATM   16  H   UNL     1      -9.063  16.245  70.586  1.00  0.00     0.000 HD 
HETATM   17  O   UNL     1      -8.900  15.543  69.966  1.00  0.00    -0.033 OA 
BRANCH  15  18
HETATM   18  C   UNL     1     -11.233  15.823  69.294  1.00  0.00    -0.324 C  
BRANCH  18  19
HETATM   19  C   UNL     1     -11.451  15.400  70.759  1.00  0.00    -0.355 C  
HETATM   20  O   UNL     1     -11.271  13.981  70.897  1.00  0.00    -0.374 OA 
HETATM   21  H   UNL     1     -11.405  13.720  71.800  1.00  0.00     0.000 HD 
BRANCH  19  22
HETATM   22  C   UNL     1     -12.839  15.764  71.281  1.00  0.00    -0.486 C  
HETATM   23  C   UNL     1     -13.070  15.470  72.746  1.00  0.00    -0.480 C  
HETATM   24  O   UNL     1     -12.004  15.688  73.546  1.00  0.00    -0.443 OA 
HETATM   25  O   UNL     1     -14.161  15.144  73.191  1.00  0.00    -0.248 OA 
ENDBRANCH  19  22
ENDBRANCH  18  19
ENDBRANCH  15  18
ENDBRANCH  14  15
ENDBRANCH   5  13
BRANCH   7  26
HETATM   26  C   UNL     1      -8.777  11.016  67.824  1.00  0.00    -0.130 A  
HETATM   27  C   UNL     1      -8.819   9.723  69.905  1.00  0.00    -0.248 A  
HETATM   28  C   UNL     1      -6.744  10.677  69.148  1.00  0.00    -0.073 A  
HETATM   29  C   UNL     1      -7.456   9.918  70.061  1.00  0.00    -0.168 A  
HETATM   30  C   UNL     1      -9.468  10.253  68.783  1.00  0.00    -0.176 A  
HETATM   31  C   UNL     1      -7.408  11.246  68.054  1.00  0.00    -0.092 A  
HETATM   32  F   UNL     1      -6.822   9.363  71.102  1.00  0.00    -0.089 F  
ENDBRANCH   7  26
ENDBRANCH   2   4
TORSDOF 7
ENDMDL
MODEL       98
REMARK 921   NORMALIZED FREE ENERGY PREDICTED BY IDOCK:   -5.42 KCAL/MOL
REMARK 922        TOTAL FREE ENERGY PREDICTED BY IDOCK:   -9.34 KCAL/MOL
REMARK 923 INTER-LIGAND FREE ENERGY PREDICTED BY IDOCK:   -8.16 KCAL/MOL
REMARK 924 INTRA-LIGAND FREE ENERGY PREDICTED BY IDOCK:   -1.18 KCAL/MOL
REMARK 927      BINDING AFFINITY PREDICTED BY RF-SCORE:    0.00 PKD
ROOT
HETATM    1  C   UNL     1      -7.753  10.047  64.529  1.00  0.00    -0.145 C  
HETATM    2  C   UNL     1      -7.240   9.134  65.648  1.00  0.00    -0.082 C  
HETATM    3  C   UNL     1      -5.860   9.502  66.195  1.00  0.00    -0.057 C  
ENDROOT
BRANCH   2   4
HETATM    4  N   UNL     1      -8.221   8.858  66.706  1.00  0.00    -0.110 NA 
HETATM    5  C   UNL     1      -8.851   9.766  67.552  1.00  0.00    -0.125 A  
HETATM    6  C   UNL     1      -9.853   5.221  67.871  1.00  0.00    -0.189 A  
HETATM    7  C   UNL     1      -9.808   9.061  68.301  1.00  0.00    -0.186 A  
HETATM    8  C   UNL     1      -8.812   5.156  66.959  1.00  0.00    -0.109 A  
HETATM    9  C   UNL     1      -8.635   7.566  67.007  1.00  0.00    -0.122 A  
HETATM   10  C   UNL     1      -9.660   7.665  67.954  1.00  0.00    -0.164 A  
HETATM   11  C   UNL     1     -10.290   6.460  68.357  1.00  0.00    -0.228 A  
HETATM   12  C   UNL     1      -8.200   6.323  66.506  1.00  0.00    -0.112 A  
BRANCH   5  13
HETATM   13  C   UNL     1      -8.508  11.146  67.483  1.00  0.00    -0.126 C  
HETATM   14  C   UNL     1      -9.252  12.035  66.803  1.00  0.00    -0.201 C  
BRANCH  14  15
HETATM   15  C   UNL     1      -8.956  13.509  66.751  1.00  0.00    -0.176 C  
HETATM   16  H   UNL     1      -8.311  14.802  68.017  1.00  0.00     0.000 HD 
HETATM   17  O   UNL     1      -8.498  13.871  68.050  1.00  0.00    -0.153 OA 
BRANCH  15  18
HETATM   18  C   UNL     1     -10.198  14.321  66.353  1.00  0.00    -0.295 C  
BRANCH  18  19
HETATM   19  C   UNL     1     -10.347  14.509  64.832  1.00  0.00    -0.371 C  
HETATM   20  O   UNL     1     -11.016  15.749  64.549  1.00  0.00    -0.726 OA 
HETATM   21  H   UNL     1     -11.108  15.864  63.611  1.00  0.00     0.000 HD 
BRANCH  19  22
HETATM   22  C   UNL     1     -11.128  13.376  64.169  1.00  0.00    -0.353 C  
HETATM   23  C   UNL     1     -12.501  13.120  64.749  1.00  0.00    -0.402 C  
HETATM   24  O   UNL     1     -13.173  14.226  65.133  1.00  0.00    -0.686 OA 
HETATM   25  O   UNL     1     -13.005  12.006  64.788  1.00  0.00    -0.440 OA 
ENDBRANCH  19  22
ENDBRANCH  18  19
ENDBRANCH  15  18
ENDBRANCH  14  15
ENDBRANCH   5  13
BRANCH   7  26
HETATM   26  C   UNL     1     -10.706   9.683  69.298  1.00  0.00    -0.246 A  
HETATM   27  C   UNL     1     -12.400  11.357  69.872  1.00  0.00    -0.280 A  
HETATM   28  C   UNL     1     -11.746   9.727  71.516  1.00  0.00    -0.450 A  
HETATM   29  C   UNL     1     -12.530  10.804  71.135  1.00  0.00    -0.414 A  
HETATM   30  C   UNL     1     -11.508  10.786  68.955  1.00  0.00    -0.368 A  
HETATM   31  C   UNL     1     -10.820   9.192  70.612  1.00  0.00    -0.321 A  
HETATM   32  F   UNL     1     -13.424  11.310  71.993  1.00  0.00    -0.524 F  
ENDBRANCH   7  26
ENDBRANCH   2   4
TORSDOF 7
ENDMDL
MODEL       99
REMARK 921   NORMALIZED FREE ENERGY PREDICTED BY IDOCK:   -5.41 KCAL/MOL
REMARK 922        TOTAL FREE ENERGY PREDICTED BY IDOCK:   -9.33 KCAL/MOL
REMARK 923 INTER-LIGAND FREE ENERGY PREDICTED BY IDOCK:   -7.34 KCAL/MOL
REMARK 924 INTRA-LIGAND FREE ENERGY PREDICTED BY IDOCK:   -1.98 KCAL/MOL
REMARK 927      BINDING AFFINITY PREDICTED BY RF-SCORE:    0.00 PKD
ROOT
HETATM    1  C   UNL     1      -9.138  15.612  67.004  1.00  0.00    -0.239 C  
HETATM    2  C   UNL     1      -9.681  14.350  67.682  1.00  0.00    -0.219 C  
HETATM    3  C   UNL     1     -10.905  14.574  68.571  1.00  0.00    -0.256 C  
ENDROOT
BRANCH   2   4
HETATM    4  N   UNL     1      -9.826  13.193  66.789  1.00  0.00    -0.245 NA 
HETATM    5  C   UNL     1      -9.202  11.952  66.881  1.00  0.00    -0.193 A  
HETATM    6  C   UNL     1     -12.232  12.771  63.431  1.00  0.00    -0.594 A  
HETATM    7  C   UNL     1      -9.753  11.120  65.893  1.00  0.00    -0.268 A  
HETATM    8  C   UNL     1     -12.166  14.043  63.975  1.00  0.00    -0.395 A  
HETATM    9  C   UNL     1     -10.646  13.227  65.668  1.00  0.00    -0.283 A  
HETATM   10  C   UNL     1     -10.664  11.938  65.123  1.00  0.00    -0.339 A  
HETATM   11  C   UNL     1     -11.506  11.719  64.002  1.00  0.00    -0.444 A  
HETATM   12  C   UNL     1     -11.385  14.286  65.104  1.00  0.00    -0.345 A  
BRANCH   5  13
HETATM   13  C   UNL     1      -8.243  11.722  67.908  1.00  0.00    -0.147 C  
HETATM   14  C   UNL     1      -8.436  10.813  68.878  1.00  0.00    -0.149 C  
BRANCH  14  15
HETATM   15  C   UNL     1      -7.427  10.501  69.947  1.00  0.00    -0.080 C  
HETATM   16  H   UNL     1      -5.518  10.288  69.981  1.00  0.00     0.000 HD 
HETATM   17  O   UNL     1      -6.156  10.485  69.305  1.00  0.00    -0.037 OA 
BRANCH  15  18
HETATM   18  C   UNL     1      -7.722   9.156  70.628  1.00  0.00    -0.152 C  
BRANCH  18  19
HETATM   19  C   UNL     1      -9.204   8.967  70.999  1.00  0.00    -0.264 C  
HETATM   20  O   UNL     1      -9.345   8.824  72.422  1.00  0.00    -0.331 OA 
HETATM   21  H   UNL     1     -10.260   8.707  72.650  1.00  0.00     0.000 HD 
BRANCH  19  22
HETATM   22  C   UNL     1      -9.833   7.749  70.326  1.00  0.00    -0.184 C  
HETATM   23  C   UNL     1     -11.196   7.358  70.852  1.00  0.00    -0.270 C  
HETATM   24  O   UNL     1     -11.996   8.394  71.186  1.00  0.00    -0.291 OA 
HETATM   25  O   UNL     1     -11.582   6.199  70.892  1.00  0.00    -0.310 OA 
ENDBRANCH  19  22
ENDBRANCH  18  19
ENDBRANCH  15  18
ENDBRANCH  14  15
ENDBRANCH   5  13
BRANCH   7  26
HETATM   26  C   UNL     1      -9.367   9.708  65.685  1.00  0.00    -0.296 A  
HETATM   27  C   UNL     1      -8.006   8.031  64.528  1.00  0.00    -0.151 A  
HETATM   28  C   UNL     1      -9.455   7.344  66.321  1.00  0.00    -0.144 A  
HETATM   29  C   UNL     1      -8.508   7.041  65.357  1.00  0.00    -0.086 A  
HETATM   30  C   UNL     1      -8.420   9.357  64.706  1.00  0.00    -0.180 A  
HETATM   31  C   UNL     1      -9.903   8.663  66.461  1.00  0.00    -0.348 A  
HETATM   32  F   UNL     1      -8.070   5.782  65.228  1.00  0.00    -0.103 F  
ENDBRANCH   7  26
ENDBRANCH   2   4
TORSDOF 7
ENDMDL
MODEL      100
REMARK 921   NORMALIZED FREE ENERGY PREDICTED BY IDOCK:   -5.38 KCAL/MOL
REMARK 922        TOTAL FREE ENERGY PREDICTED BY IDOCK:   -9.28 KCAL/MOL
REMARK 923 INTER-LIGAND FREE ENERGY PREDICTED BY IDOCK:   -7.59 KCAL/MOL
REMARK 924 INTRA-LIGAND FREE ENERGY PREDICTED BY IDOCK:   -1.69 KCAL/MOL
REMARK 927      BINDING AFFINITY PREDICTED BY RF-SCORE:    0.00 PKD
ROOT
HETATM    1  C   UNL     1      -8.020  12.068  68.392  1.00  0.00    -0.152 C  
HETATM    2  C   UNL     1      -8.857  13.302  68.041  1.00  0.00    -0.190 C  
HETATM    3  C   UNL     1     -10.154  13.447  68.839  1.00  0.00    -0.010 C  
ENDROOT
BRANCH   2   4
HETATM    4  N   UNL     1      -8.092  14.554  67.960  1.00  0.00    -0.129 NA 
HETATM    5  C   UNL     1      -8.118  15.513  66.952  1.00  0.00    -0.249 A  
HETATM    6  C   UNL     1      -5.390  16.145  70.681  1.00  0.00    -0.148 A  
HETATM    7  C   UNL     1      -7.332  16.598  67.372  1.00  0.00    -0.189 A  
HETATM    8  C   UNL     1      -5.826  14.856  70.941  1.00  0.00    -0.057 A  
HETATM    9  C   UNL     1      -7.183  14.926  68.942  1.00  0.00    -0.128 A  
HETATM   10  C   UNL     1      -6.736  16.215  68.633  1.00  0.00    -0.128 A  
HETATM   11  C   UNL     1      -5.848  16.832  69.550  1.00  0.00    -0.194 A  
HETATM   12  C   UNL     1      -6.734  14.235  70.086  1.00  0.00    -0.011 A  
BRANCH   5  13
HETATM   13  C   UNL     1      -8.917  15.293  65.793  1.00  0.00     0.177 C  
HETATM   14  C   UNL     1     -10.229  15.579  65.764  1.00  0.00    -0.390 C  
BRANCH  14  15
HETATM   15  C   UNL     1     -11.096  15.415  64.546  1.00  0.00    -0.256 C  
HETATM   16  H   UNL     1     -12.237  16.582  63.534  1.00  0.00     0.000 HD 
HETATM   17  O   UNL     1     -11.690  16.687  64.304  1.00  0.00    -0.858 OA 
BRANCH  15  18
HETATM   18  C   UNL     1     -12.165  14.332  64.754  1.00  0.00    -0.456 C  
BRANCH  18  19
HETATM   19  C   UNL     1     -12.174  13.257  63.652  1.00  0.00    -0.451 C  
HETATM   20  O   UNL     1     -13.256  12.336  63.866  1.00  0.00    -0.766 OA 
HETATM   21  H   UNL     1     -13.260  11.673  63.186  1.00  0.00     0.000 HD 
BRANCH  19  22
HETATM   22  C   UNL     1     -10.870  12.465  63.587  1.00  0.00    -0.509 C  
HETATM   23  C   UNL     1     -10.391  11.909  64.909  1.00  0.00    -0.286 C  
HETATM   24  O   UNL     1     -11.370  11.473  65.731  1.00  0.00    -0.229 OA 
HETATM   25  O   UNL     1      -9.206  11.781  65.183  1.00  0.00    -0.088 OA 
ENDBRANCH  19  22
ENDBRANCH  18  19
ENDBRANCH  15  18
ENDBRANCH  14  15
ENDBRANCH   5  13
BRANCH   7  26
HETATM   26  C   UNL     1      -7.130  17.833  66.584  1.00  0.00    -0.257 A  
HETATM   27  C   UNL     1      -5.860  19.097  64.912  1.00  0.00    -0.301 A  
HETATM   28  C   UNL     1      -7.872  20.043  65.832  1.00  0.00    -0.277 A  
HETATM   29  C   UNL     1      -6.795  20.119  64.965  1.00  0.00    -0.232 A  
HETATM   30  C   UNL     1      -6.040  17.955  65.703  1.00  0.00    -0.197 A  
HETATM   31  C   UNL     1      -8.019  18.921  66.657  1.00  0.00    -0.280 A  
HETATM   32  F   UNL     1      -6.658  21.186  64.168  1.00  0.00    -0.345 F  
ENDBRANCH   7  26
ENDBRANCH   2   4
TORSDOF 7
ENDMDL
MODEL      101
REMARK 921   NORMALIZED FREE ENERGY PREDICTED BY IDOCK:   -5.38 KCAL/MOL
REMARK 922        TOTAL FREE ENERGY PREDICTED BY IDOCK:   -9.28 KCAL/MOL
REMARK 923 INTER-LIGAND FREE ENERGY PREDICTED BY IDOCK:   -7.42 KCAL/MOL
REMARK 924 INTRA-LIGAND FREE ENERGY PREDICTED BY IDOCK:   -1.86 KCAL/MOL
REMARK 927      BINDING AFFINITY PREDICTED BY RF-SCORE:    0.00 PKD
ROOT
HETATM    1  C   UNL     1     -10.908   6.712  67.653  1.00  0.00    -0.393 C  
HETATM    2  C   UNL     1     -10.348   7.488  68.849  1.00  0.00    -0.211 C  
HETATM    3  C   UNL     1      -8.886   7.186  69.184  1.00  0.00    -0.135 C  
ENDROOT
BRANCH   2   4
HETATM    4  N   UNL     1     -10.648   8.926  68.837  1.00  0.00    -0.200 NA 
HETATM    5  C   UNL     1     -10.282   9.872  67.884  1.00  0.00    -0.193 A  
HETATM    6  C   UNL     1     -12.837  11.161  71.567  1.00  0.00    -0.542 A  
HETATM    7  C   UNL     1     -10.910  11.083  68.219  1.00  0.00    -0.261 A  
HETATM    8  C   UNL     1     -12.567   9.852  71.932  1.00  0.00    -0.471 A  
HETATM    9  C   UNL     1     -11.361   9.538  69.860  1.00  0.00    -0.126 A  
HETATM   10  C   UNL     1     -11.588  10.864  69.478  1.00  0.00    -0.384 A  
HETATM   11  C   UNL     1     -12.371  11.666  70.347  1.00  0.00    -0.373 A  
HETATM   12  C   UNL     1     -11.839   9.021  71.081  1.00  0.00    -0.362 A  
BRANCH   5  13
HETATM   13  C   UNL     1      -9.463   9.483  66.786  1.00  0.00    -0.217 C  
HETATM   14  C   UNL     1      -8.136   9.692  66.774  1.00  0.00    -0.113 C  
BRANCH  14  15
HETATM   15  C   UNL     1      -7.229   9.249  65.660  1.00  0.00    -0.090 C  
HETATM   16  H   UNL     1      -5.915  10.118  64.561  1.00  0.00     0.000 HD 
HETATM   17  O   UNL     1      -6.488  10.399  65.265  1.00  0.00    -0.120 OA 
BRANCH  15  18
HETATM   18  C   UNL     1      -8.023   8.667  64.480  1.00  0.00    -0.144 C  
BRANCH  18  19
HETATM   19  C   UNL     1      -7.572   7.252  64.075  1.00  0.00    -0.110 C  
HETATM   20  O   UNL     1      -8.429   6.735  63.043  1.00  0.00    -0.338 OA 
HETATM   21  H   UNL     1      -8.151   5.862  62.793  1.00  0.00     0.000 HD 
BRANCH  19  22
HETATM   22  C   UNL     1      -7.577   6.270  65.245  1.00  0.00    -0.090 C  
HETATM   23  C   UNL     1      -7.571   4.809  64.854  1.00  0.00    -0.077 C  
HETATM   24  O   UNL     1      -6.826   4.513  63.768  1.00  0.00    -0.042 OA 
HETATM   25  O   UNL     1      -8.125   3.945  65.519  1.00  0.00    -0.099 OA 
ENDBRANCH  19  22
ENDBRANCH  18  19
ENDBRANCH  15  18
ENDBRANCH  14  15
ENDBRANCH   5  13
BRANCH   7  26
HETATM   26  C   UNL     1     -10.789  12.328  67.431  1.00  0.00    -0.277 A  
HETATM   27  C   UNL     1      -9.428  14.190  66.604  1.00  0.00    -0.303 A  
HETATM   28  C   UNL     1     -11.704  13.968  65.858  1.00  0.00    -0.373 A  
HETATM   29  C   UNL     1     -10.487  14.629  65.827  1.00  0.00    -0.325 A  
HETATM   30  C   UNL     1      -9.575  13.036  67.384  1.00  0.00    -0.211 A  
HETATM   31  C   UNL     1     -11.861  12.845  66.679  1.00  0.00    -0.461 A  
HETATM   32  F   UNL     1     -10.332  15.697  65.035  1.00  0.00    -0.385 F  
ENDBRANCH   7  26
ENDBRANCH   2   4
TORSDOF 7
ENDMDL
MODEL      102
REMARK 921   NORMALIZED FREE ENERGY PREDICTED BY IDOCK:   -5.35 KCAL/MOL
REMARK 922        TOTAL FREE ENERGY PREDICTED BY IDOCK:   -9.24 KCAL/MOL
REMARK 923 INTER-LIGAND FREE ENERGY PREDICTED BY IDOCK:   -8.48 KCAL/MOL
REMARK 924 INTRA-LIGAND FREE ENERGY PREDICTED BY IDOCK:   -0.76 KCAL/MOL
REMARK 927      BINDING AFFINITY PREDICTED BY RF-SCORE:    0.00 PKD
ROOT
HETATM    1  C   UNL     1      -6.272   9.637  65.769  1.00  0.00    -0.066 C  
HETATM    2  C   UNL     1      -7.683   9.041  65.812  1.00  0.00    -0.091 C  
HETATM    3  C   UNL     1      -7.818   7.661  65.167  1.00  0.00    -0.124 C  
ENDROOT
BRANCH   2   4
HETATM    4  N   UNL     1      -8.341   9.128  67.122  1.00  0.00    -0.116 NA 
HETATM    5  C   UNL     1      -9.326  10.021  67.531  1.00  0.00    -0.144 A  
HETATM    6  C   UNL     1      -7.794   6.750  70.482  1.00  0.00    -0.105 A  
HETATM    7  C   UNL     1      -9.750   9.634  68.814  1.00  0.00    -0.167 A  
HETATM    8  C   UNL     1      -6.902   6.546  69.442  1.00  0.00    -0.065 A  
HETATM    9  C   UNL     1      -8.009   8.278  68.170  1.00  0.00    -0.123 A  
HETATM   10  C   UNL     1      -8.904   8.531  69.215  1.00  0.00    -0.142 A  
HETATM   11  C   UNL     1      -8.799   7.719  70.372  1.00  0.00    -0.146 A  
HETATM   12  C   UNL     1      -7.004   7.295  68.271  1.00  0.00    -0.076 A  
BRANCH   5  13
HETATM   13  C   UNL     1      -9.758  11.047  66.643  1.00  0.00    -0.226 C  
HETATM   14  C   UNL     1     -10.379  10.775  65.483  1.00  0.00    -0.308 C  
BRANCH  14  15
HETATM   15  C   UNL     1     -10.899  11.829  64.545  1.00  0.00    -0.321 C  
HETATM   16  H   UNL     1     -10.576  12.276  62.705  1.00  0.00     0.000 HD 
HETATM   17  O   UNL     1     -10.247  11.610  63.298  1.00  0.00    -0.386 OA 
BRANCH  15  18
HETATM   18  C   UNL     1     -10.625  13.244  65.075  1.00  0.00    -0.360 C  
BRANCH  18  19
HETATM   19  C   UNL     1     -11.819  13.860  65.828  1.00  0.00    -0.378 C  
HETATM   20  O   UNL     1     -13.004  13.794  65.017  1.00  0.00    -0.732 OA 
HETATM   21  H   UNL     1     -13.740  14.174  65.481  1.00  0.00     0.000 HD 
BRANCH  19  22
HETATM   22  C   UNL     1     -11.584  15.317  66.221  1.00  0.00     0.008 C  
HETATM   23  C   UNL     1     -11.260  16.246  65.073  1.00  0.00    -0.176 C  
HETATM   24  O   UNL     1     -11.926  15.988  63.927  1.00  0.00    -0.855 OA 
HETATM   25  O   UNL     1     -10.520  17.212  65.193  1.00  0.00    -0.666 OA 
ENDBRANCH  19  22
ENDBRANCH  18  19
ENDBRANCH  15  18
ENDBRANCH  14  15
ENDBRANCH   5  13
BRANCH   7  26
HETATM   26  C   UNL     1     -10.809  10.323  69.583  1.00  0.00    -0.311 A  
HETATM   27  C   UNL     1     -12.439  10.325  71.412  1.00  0.00    -0.528 A  
HETATM   28  C   UNL     1     -12.119  12.324  70.111  1.00  0.00    -0.364 A  
HETATM   29  C   UNL     1     -12.735  11.655  71.156  1.00  0.00    -0.325 A  
HETATM   30  C   UNL     1     -11.468   9.673  70.641  1.00  0.00    -0.376 A  
HETATM   31  C   UNL     1     -11.186  11.652  69.313  1.00  0.00    -0.328 A  
HETATM   32  F   UNL     1     -13.620  12.298  71.928  1.00  0.00    -0.483 F  
ENDBRANCH   7  26
ENDBRANCH   2   4
TORSDOF 7
ENDMDL
MODEL      103
REMARK 921   NORMALIZED FREE ENERGY PREDICTED BY IDOCK:   -5.34 KCAL/MOL
REMARK 922        TOTAL FREE ENERGY PREDICTED BY IDOCK:   -9.23 KCAL/MOL
REMARK 923 INTER-LIGAND FREE ENERGY PREDICTED BY IDOCK:   -8.23 KCAL/MOL
REMARK 924 INTRA-LIGAND FREE ENERGY PREDICTED BY IDOCK:   -1.00 KCAL/MOL
REMARK 927      BINDING AFFINITY PREDICTED BY RF-SCORE:    0.00 PKD
ROOT
HETATM    1  C   UNL     1      -8.463   7.278  68.217  1.00  0.00    -0.124 C  
HETATM    2  C   UNL     1      -9.712   7.610  67.395  1.00  0.00    -0.161 C  
HETATM    3  C   UNL     1     -10.725   6.470  67.276  1.00  0.00    -0.427 C  
ENDROOT
BRANCH   2   4
HETATM    4  N   UNL     1     -10.336   8.898  67.727  1.00  0.00    -0.231 NA 
HETATM    5  C   UNL     1     -10.948   9.274  68.919  1.00  0.00    -0.017 A  
HETATM    6  C   UNL     1     -10.653  12.324  65.403  1.00  0.00    -0.309 A  
HETATM    7  C   UNL     1     -11.270  10.638  68.824  1.00  0.00    -0.337 A  
HETATM    8  C   UNL     1     -10.168  11.197  64.760  1.00  0.00    -0.365 A  
HETATM    9  C   UNL     1     -10.402   9.941  66.813  1.00  0.00    -0.217 A  
HETATM   10  C   UNL     1     -10.926  11.052  67.482  1.00  0.00    -0.338 A  
HETATM   11  C   UNL     1     -11.014  12.267  66.755  1.00  0.00    -0.321 A  
HETATM   12  C   UNL     1     -10.025   9.998  65.456  1.00  0.00    -0.367 A  
BRANCH   5  13
HETATM   13  C   UNL     1     -11.078   8.325  69.973  1.00  0.00    -0.147 C  
HETATM   14  C   UNL     1     -10.235   8.298  71.019  1.00  0.00    -0.230 C  
BRANCH  14  15
HETATM   15  C   UNL     1     -10.370   7.350  72.179  1.00  0.00    -0.199 C  
HETATM   16  H   UNL     1     -11.419   7.325  73.788  1.00  0.00     0.000 HD 
HETATM   17  O   UNL     1     -11.334   7.924  73.055  1.00  0.00    -0.408 OA 
BRANCH  15  18
HETATM   18  C   UNL     1      -9.027   7.136  72.893  1.00  0.00    -0.156 C  
BRANCH  18  19
HETATM   19  C   UNL     1      -8.481   5.702  72.759  1.00  0.00    -0.120 C  
HETATM   20  O   UNL     1      -7.709   5.576  71.554  1.00  0.00    -0.101 OA 
HETATM   21  H   UNL     1      -7.373   4.692  71.472  1.00  0.00     0.000 HD 
BRANCH  19  22
HETATM   22  C   UNL     1      -9.586   4.647  72.738  1.00  0.00    -0.164 C  
HETATM   23  C   UNL     1      -9.161   3.285  72.238  1.00  0.00    -0.105 C  
HETATM   24  O   UNL     1      -7.917   2.907  72.602  1.00  0.00    -0.057 OA 
HETATM   25  O   UNL     1      -9.914   2.542  71.625  1.00  0.00    -0.162 OA 
ENDBRANCH  19  22
ENDBRANCH  18  19
ENDBRANCH  15  18
ENDBRANCH  14  15
ENDBRANCH   5  13
BRANCH   7  26
HETATM   26  C   UNL     1     -11.913  11.418  69.904  1.00  0.00    -0.434 A  
HETATM   27  C   UNL     1     -12.478  13.580  70.909  1.00  0.00    -0.448 A  
HETATM   28  C   UNL     1     -13.330  11.558  71.897  1.00  0.00    -0.408 A  
HETATM   29  C   UNL     1     -13.243  12.940  71.871  1.00  0.00    -0.423 A  
HETATM   30  C   UNL     1     -11.835  12.822  69.922  1.00  0.00    -0.371 A  
HETATM   31  C   UNL     1     -12.644  10.804  70.938  1.00  0.00    -0.498 A  
HETATM   32  F   UNL     1     -13.907  13.664  72.781  1.00  0.00    -0.585 F  
ENDBRANCH   7  26
ENDBRANCH   2   4
TORSDOF 7
ENDMDL
MODEL      104
REMARK 921   NORMALIZED FREE ENERGY PREDICTED BY IDOCK:   -5.30 KCAL/MOL
REMARK 922        TOTAL FREE ENERGY PREDICTED BY IDOCK:   -9.17 KCAL/MOL
REMARK 923 INTER-LIGAND FREE ENERGY PREDICTED BY IDOCK:   -7.47 KCAL/MOL
REMARK 924 INTRA-LIGAND FREE ENERGY PREDICTED BY IDOCK:   -1.70 KCAL/MOL
REMARK 927      BINDING AFFINITY PREDICTED BY RF-SCORE:    0.00 PKD
ROOT
HETATM    1  C   UNL     1     -10.905   6.714  67.659  1.00  0.00    -0.393 C  
HETATM    2  C   UNL     1     -10.329   7.561  68.798  1.00  0.00    -0.200 C  
HETATM    3  C   UNL     1      -8.858   7.292  69.119  1.00  0.00    -0.136 C  
ENDROOT
BRANCH   2   4
HETATM    4  N   UNL     1     -10.642   8.994  68.710  1.00  0.00    -0.201 NA 
HETATM    5  C   UNL     1     -10.310   9.885  67.695  1.00  0.00    -0.225 A  
HETATM    6  C   UNL     1     -12.782  11.366  71.363  1.00  0.00    -0.489 A  
HETATM    7  C   UNL     1     -10.941  11.109  67.975  1.00  0.00    -0.307 A  
HETATM    8  C   UNL     1     -12.490  10.083  71.795  1.00  0.00    -0.475 A  
HETATM    9  C   UNL     1     -11.335   9.658  69.715  1.00  0.00    -0.120 A  
HETATM   10  C   UNL     1     -11.584  10.959  69.262  1.00  0.00    -0.388 A  
HETATM   11  C   UNL     1     -12.352  11.803  70.103  1.00  0.00    -0.272 A  
HETATM   12  C   UNL     1     -11.777   9.210  70.976  1.00  0.00    -0.363 A  
BRANCH   5  13
HETATM   13  C   UNL     1      -9.516   9.440  66.600  1.00  0.00    -0.230 C  
HETATM   14  C   UNL     1      -8.193   9.665  66.537  1.00  0.00    -0.119 C  
BRANCH  14  15
HETATM   15  C   UNL     1      -7.310   9.165  65.428  1.00  0.00    -0.089 C  
HETATM   16  H   UNL     1      -5.796   7.987  65.335  1.00  0.00     0.000 HD 
HETATM   17  O   UNL     1      -6.354   8.302  66.036  1.00  0.00    -0.048 OA 
BRANCH  15  18
HETATM   18  C   UNL     1      -6.623  10.322  64.687  1.00  0.00    -0.092 C  
BRANCH  18  19
HETATM   19  C   UNL     1      -6.309  10.007  63.213  1.00  0.00    -0.135 C  
HETATM   20  O   UNL     1      -5.782  11.173  62.558  1.00  0.00    -0.319 OA 
HETATM   21  H   UNL     1      -5.589  10.978  61.648  1.00  0.00     0.000 HD 
BRANCH  19  22
HETATM   22  C   UNL     1      -7.533   9.527  62.435  1.00  0.00    -0.111 C  
HETATM   23  C   UNL     1      -8.712  10.475  62.449  1.00  0.00    -0.248 C  
HETATM   24  O   UNL     1      -8.390  11.785  62.400  1.00  0.00    -0.077 OA 
HETATM   25  O   UNL     1      -9.871  10.088  62.419  1.00  0.00    -0.081 OA 
ENDBRANCH  19  22
ENDBRANCH  18  19
ENDBRANCH  15  18
ENDBRANCH  14  15
ENDBRANCH   5  13
BRANCH   7  26
HETATM   26  C   UNL     1     -10.852  12.308  67.113  1.00  0.00    -0.282 A  
HETATM   27  C   UNL     1      -9.709  14.378  66.473  1.00  0.00    -0.305 A  
HETATM   28  C   UNL     1     -11.594  13.621  65.183  1.00  0.00    -0.333 A  
HETATM   29  C   UNL     1     -10.572  14.531  65.400  1.00  0.00    -0.370 A  
HETATM   30  C   UNL     1      -9.838  13.262  67.310  1.00  0.00    -0.233 A  
HETATM   31  C   UNL     1     -11.749  12.535  66.053  1.00  0.00    -0.472 A  
HETATM   32  F   UNL     1     -10.415  15.564  64.563  1.00  0.00    -0.362 F  
ENDBRANCH   7  26
ENDBRANCH   2   4
TORSDOF 7
ENDMDL
MODEL      105
REMARK 921   NORMALIZED FREE ENERGY PREDICTED BY IDOCK:   -5.29 KCAL/MOL
REMARK 922        TOTAL FREE ENERGY PREDICTED BY IDOCK:   -9.16 KCAL/MOL
REMARK 923 INTER-LIGAND FREE ENERGY PREDICTED BY IDOCK:   -7.71 KCAL/MOL
REMARK 924 INTRA-LIGAND FREE ENERGY PREDICTED BY IDOCK:   -1.46 KCAL/MOL
REMARK 927      BINDING AFFINITY PREDICTED BY RF-SCORE:    0.00 PKD
ROOT
HETATM    1  C   UNL     1      -8.127   7.849  64.354  1.00  0.00    -0.103 C  
HETATM    2  C   UNL     1      -7.098   8.715  65.088  1.00  0.00    -0.086 C  
HETATM    3  C   UNL     1      -6.334   9.697  64.199  1.00  0.00    -0.109 C  
ENDROOT
BRANCH   2   4
HETATM    4  N   UNL     1      -7.591   9.329  66.328  1.00  0.00    -0.096 NA 
HETATM    5  C   UNL     1      -8.531  10.346  66.468  1.00  0.00    -0.132 A  
HETATM    6  C   UNL     1      -6.604   8.431  70.260  1.00  0.00    -0.035 A  
HETATM    7  C   UNL     1      -8.788  10.505  67.840  1.00  0.00    -0.133 A  
HETATM    8  C   UNL     1      -5.843   7.806  69.285  1.00  0.00    -0.030 A  
HETATM    9  C   UNL     1      -7.122   8.943  67.577  1.00  0.00    -0.076 A  
HETATM   10  C   UNL     1      -7.885   9.616  68.537  1.00  0.00    -0.085 A  
HETATM   11  C   UNL     1      -7.628   9.316  69.899  1.00  0.00    -0.093 A  
HETATM   12  C   UNL     1      -6.099   8.042  67.935  1.00  0.00    -0.047 A  
BRANCH   5  13
HETATM   13  C   UNL     1      -9.082  10.959  65.307  1.00  0.00    -0.217 C  
HETATM   14  C   UNL     1     -10.321  10.681  64.871  1.00  0.00    -0.347 C  
BRANCH  14  15
HETATM   15  C   UNL     1     -10.960  11.347  63.684  1.00  0.00    -0.363 C  
HETATM   16  H   UNL     1     -10.510  12.848  62.573  1.00  0.00     0.000 HD 
HETATM   17  O   UNL     1     -10.105  12.428  63.323  1.00  0.00    -0.398 OA 
BRANCH  15  18
HETATM   18  C   UNL     1     -12.377  11.844  64.009  1.00  0.00    -0.432 C  
BRANCH  18  19
HETATM   19  C   UNL     1     -12.528  13.374  63.918  1.00  0.00    -0.243 C  
HETATM   20  O   UNL     1     -12.108  13.837  62.624  1.00  0.00    -0.483 OA 
HETATM   21  H   UNL     1     -12.201  14.781  62.568  1.00  0.00     0.000 HD 
BRANCH  19  22
HETATM   22  C   UNL     1     -11.718  14.113  64.982  1.00  0.00    -0.376 C  
HETATM   23  C   UNL     1     -11.294  15.515  64.605  1.00  0.00    -0.357 C  
HETATM   24  O   UNL     1     -12.202  16.210  63.887  1.00  0.00    -0.935 OA 
HETATM   25  O   UNL     1     -10.248  16.015  64.992  1.00  0.00    -0.513 OA 
ENDBRANCH  19  22
ENDBRANCH  18  19
ENDBRANCH  15  18
ENDBRANCH  14  15
ENDBRANCH   5  13
BRANCH   7  26
HETATM   26  C   UNL     1      -9.754  11.477  68.398  1.00  0.00    -0.202 A  
HETATM   27  C   UNL     1     -10.510  13.790  68.677  1.00  0.00    -0.245 A  
HETATM   28  C   UNL     1     -11.848  11.994  69.558  1.00  0.00    -0.390 A  
HETATM   29  C   UNL     1     -11.650  13.346  69.329  1.00  0.00    -0.310 A  
HETATM   30  C   UNL     1      -9.580  12.858  68.199  1.00  0.00    -0.223 A  
HETATM   31  C   UNL     1     -10.890  11.071  69.122  1.00  0.00    -0.283 A  
HETATM   32  F   UNL     1     -12.570  14.230  69.735  1.00  0.00    -0.365 F  
ENDBRANCH   7  26
ENDBRANCH   2   4
TORSDOF 7
ENDMDL
MODEL      106
REMARK 921   NORMALIZED FREE ENERGY PREDICTED BY IDOCK:   -5.29 KCAL/MOL
REMARK 922        TOTAL FREE ENERGY PREDICTED BY IDOCK:   -9.15 KCAL/MOL
REMARK 923 INTER-LIGAND FREE ENERGY PREDICTED BY IDOCK:   -7.28 KCAL/MOL
REMARK 924 INTRA-LIGAND FREE ENERGY PREDICTED BY IDOCK:   -1.87 KCAL/MOL
REMARK 927      BINDING AFFINITY PREDICTED BY RF-SCORE:    0.00 PKD
ROOT
HETATM    1  C   UNL     1      -6.171  11.003  70.211  1.00  0.00    -0.139 C  
HETATM    2  C   UNL     1      -6.223  10.978  68.680  1.00  0.00    -0.043 C  
HETATM    3  C   UNL     1      -5.306   9.945  68.023  1.00  0.00    -0.039 C  
ENDROOT
BRANCH   2   4
HETATM    4  N   UNL     1      -7.580  10.980  68.116  1.00  0.00    -0.091 NA 
HETATM    5  C   UNL     1      -8.222  12.004  67.427  1.00  0.00    -0.168 A  
HETATM    6  C   UNL     1     -10.411   7.942  68.111  1.00  0.00    -0.249 A  
HETATM    7  C   UNL     1      -9.448  11.502  66.959  1.00  0.00    -0.193 A  
HETATM    8  C   UNL     1      -9.279   7.716  68.877  1.00  0.00    -0.139 A  
HETATM    9  C   UNL     1      -8.430   9.888  68.240  1.00  0.00    -0.111 A  
HETATM   10  C   UNL     1      -9.575  10.161  67.485  1.00  0.00    -0.180 A  
HETATM   11  C   UNL     1     -10.559   9.142  67.404  1.00  0.00    -0.315 A  
HETATM   12  C   UNL     1      -8.271   8.676  68.942  1.00  0.00    -0.123 A  
BRANCH   5  13
HETATM   13  C   UNL     1      -7.568  13.258  67.261  1.00  0.00    -0.079 C  
HETATM   14  C   UNL     1      -7.987  14.371  67.885  1.00  0.00    -0.150 C  
BRANCH  14  15
HETATM   15  C   UNL     1      -7.294  15.701  67.781  1.00  0.00    -0.150 C  
HETATM   16  H   UNL     1      -7.160  17.247  68.914  1.00  0.00     0.000 HD 
HETATM   17  O   UNL     1      -7.599  16.407  68.980  1.00  0.00    -0.213 OA 
BRANCH  15  18
HETATM   18  C   UNL     1      -7.755  16.485  66.543  1.00  0.00    -0.323 C  
BRANCH  18  19
HETATM   19  C   UNL     1      -9.271  16.758  66.518  1.00  0.00    -0.268 C  
HETATM   20  O   UNL     1      -9.868  16.134  65.370  1.00  0.00    -0.474 OA 
HETATM   21  H   UNL     1     -10.803  16.302  65.355  1.00  0.00     0.000 HD 
BRANCH  19  22
HETATM   22  C   UNL     1      -9.604  18.248  66.487  1.00  0.00    -0.320 C  
HETATM   23  C   UNL     1     -10.479  18.733  67.621  1.00  0.00    -0.435 C  
HETATM   24  O   UNL     1     -10.236  18.153  68.816  1.00  0.00    -0.378 OA 
HETATM   25  O   UNL     1     -11.286  19.643  67.491  1.00  0.00    -0.257 OA 
ENDBRANCH  19  22
ENDBRANCH  18  19
ENDBRANCH  15  18
ENDBRANCH  14  15
ENDBRANCH   5  13
BRANCH   7  26
HETATM   26  C   UNL     1     -10.413  12.283  66.155  1.00  0.00    -0.270 A  
HETATM   27  C   UNL     1     -12.356  13.771  66.034  1.00  0.00    -0.499 A  
HETATM   28  C   UNL     1     -11.176  13.200  64.016  1.00  0.00    -0.418 A  
HETATM   29  C   UNL     1     -12.187  13.891  64.663  1.00  0.00    -0.419 A  
HETATM   30  C   UNL     1     -11.462  12.987  66.774  1.00  0.00    -0.392 A  
HETATM   31  C   UNL     1     -10.316  12.378  64.754  1.00  0.00    -0.324 A  
HETATM   32  F   UNL     1     -13.003  14.687  63.961  1.00  0.00    -0.124 F  
ENDBRANCH   7  26
ENDBRANCH   2   4
TORSDOF 7
ENDMDL
MODEL      107
REMARK 921   NORMALIZED FREE ENERGY PREDICTED BY IDOCK:   -5.25 KCAL/MOL
REMARK 922        TOTAL FREE ENERGY PREDICTED BY IDOCK:   -9.11 KCAL/MOL
REMARK 923 INTER-LIGAND FREE ENERGY PREDICTED BY IDOCK:   -7.85 KCAL/MOL
REMARK 924 INTRA-LIGAND FREE ENERGY PREDICTED BY IDOCK:   -1.26 KCAL/MOL
REMARK 927      BINDING AFFINITY PREDICTED BY RF-SCORE:    0.00 PKD
ROOT
HETATM    1  C   UNL     1     -12.693  13.443  65.246  1.00  0.00    -0.481 C  
HETATM    2  C   UNL     1     -11.524  12.508  64.922  1.00  0.00    -0.325 C  
HETATM    3  C   UNL     1     -11.164  12.419  63.438  1.00  0.00    -0.492 C  
ENDROOT
BRANCH   2   4
HETATM    4  N   UNL     1     -10.349  12.680  65.787  1.00  0.00    -0.274 NA 
HETATM    5  C   UNL     1      -9.763  13.867  66.215  1.00  0.00    -0.289 A  
HETATM    6  C   UNL     1      -8.003   9.780  67.613  1.00  0.00    -0.105 A  
HETATM    7  C   UNL     1      -8.755  13.540  67.137  1.00  0.00    -0.222 A  
HETATM    8  C   UNL     1      -8.942   9.319  66.705  1.00  0.00    -0.165 A  
HETATM    9  C   UNL     1      -9.637  11.596  66.286  1.00  0.00    -0.221 A  
HETATM   10  C   UNL     1      -8.677  12.096  67.171  1.00  0.00    -0.190 A  
HETATM   11  C   UNL     1      -7.876  11.152  67.863  1.00  0.00    -0.111 A  
HETATM   12  C   UNL     1      -9.778  10.215  66.041  1.00  0.00    -0.285 A  
BRANCH   5  13
HETATM   13  C   UNL     1     -10.275  15.112  65.749  1.00  0.00    -0.365 C  
HETATM   14  C   UNL     1     -10.274  16.217  66.512  1.00  0.00    -0.304 C  
BRANCH  14  15
HETATM   15  C   UNL     1     -10.754  17.562  66.040  1.00  0.00    -0.116 C  
HETATM   16  H   UNL     1     -11.344  18.269  64.354  1.00  0.00     0.000 HD 
HETATM   17  O   UNL     1     -11.041  17.419  64.652  1.00  0.00    -1.029 OA 
BRANCH  15  18
HETATM   18  C   UNL     1      -9.700  18.654  66.280  1.00  0.00    -0.324 C  
BRANCH  18  19
HETATM   19  C   UNL     1      -9.184  18.702  67.730  1.00  0.00    -0.285 C  
HETATM   20  O   UNL     1     -10.275  18.531  68.650  1.00  0.00    -0.377 OA 
HETATM   21  H   UNL     1      -9.957  18.561  69.544  1.00  0.00     0.000 HD 
BRANCH  19  22
HETATM   22  C   UNL     1      -8.472  20.011  68.063  1.00  0.00    -0.256 C  
HETATM   23  C   UNL     1      -6.966  19.974  67.925  1.00  0.00    -0.275 C  
HETATM   24  O   UNL     1      -6.507  19.235  66.892  1.00  0.00    -0.193 OA 
HETATM   25  O   UNL     1      -6.221  20.631  68.637  1.00  0.00    -0.321 OA 
ENDBRANCH  19  22
ENDBRANCH  18  19
ENDBRANCH  15  18
ENDBRANCH  14  15
ENDBRANCH   5  13
BRANCH   7  26
HETATM   26  C   UNL     1      -7.915  14.535  67.839  1.00  0.00    -0.152 A  
HETATM   27  C   UNL     1      -5.935  15.977  67.894  1.00  0.00    -0.150 A  
HETATM   28  C   UNL     1      -7.530  16.091  69.692  1.00  0.00    -0.005 A  
HETATM   29  C   UNL     1      -6.364  16.533  69.088  1.00  0.00    -0.185 A  
HETATM   30  C   UNL     1      -6.718  14.999  67.266  1.00  0.00     0.015 A  
HETATM   31  C   UNL     1      -8.282  15.078  69.085  1.00  0.00    -0.188 A  
HETATM   32  F   UNL     1      -5.649  17.510  69.660  1.00  0.00    -0.174 F  
ENDBRANCH   7  26
ENDBRANCH   2   4
TORSDOF 7
ENDMDL
MODEL      108
REMARK 921   NORMALIZED FREE ENERGY PREDICTED BY IDOCK:   -5.21 KCAL/MOL
REMARK 922        TOTAL FREE ENERGY PREDICTED BY IDOCK:   -9.04 KCAL/MOL
REMARK 923 INTER-LIGAND FREE ENERGY PREDICTED BY IDOCK:   -7.74 KCAL/MOL
REMARK 924 INTRA-LIGAND FREE ENERGY PREDICTED BY IDOCK:   -1.30 KCAL/MOL
REMARK 927      BINDING AFFINITY PREDICTED BY RF-SCORE:    0.00 PKD
ROOT
HETATM    1  C   UNL     1     -11.183   9.582  71.495  1.00  0.00    -0.437 C  
HETATM    2  C   UNL     1     -12.206  10.246  70.568  1.00  0.00    -0.301 C  
HETATM    3  C   UNL     1     -13.668  10.023  70.958  1.00  0.00     0.005 C  
ENDROOT
BRANCH   2   4
HETATM    4  N   UNL     1     -11.910  11.647  70.237  1.00  0.00    -0.345 NA 
HETATM    5  C   UNL     1     -11.067  12.135  69.244  1.00  0.00    -0.167 A  
HETATM    6  C   UNL     1     -13.414  15.112  71.961  1.00  0.00    -0.520 A  
HETATM    7  C   UNL     1     -11.208  13.533  69.210  1.00  0.00    -0.285 A  
HETATM    8  C   UNL     1     -13.738  13.926  72.600  1.00  0.00    -0.582 A  
HETATM    9  C   UNL     1     -12.465  12.704  70.947  1.00  0.00    -0.278 A  
HETATM   10  C   UNL     1     -12.092  13.886  70.299  1.00  0.00    -0.423 A  
HETATM   11  C   UNL     1     -12.614  15.101  70.812  1.00  0.00    -0.452 A  
HETATM   12  C   UNL     1     -13.281  12.709  72.097  1.00  0.00    -0.527 A  
BRANCH   5  13
HETATM   13  C   UNL     1     -10.316  11.224  68.447  1.00  0.00    -0.207 C  
HETATM   14  C   UNL     1      -8.981  11.117  68.549  1.00  0.00    -0.168 C  
BRANCH  14  15
HETATM   15  C   UNL     1      -8.159  10.130  67.767  1.00  0.00    -0.109 C  
HETATM   16  H   UNL     1      -6.597  10.254  66.656  1.00  0.00     0.000 HD 
HETATM   17  O   UNL     1      -7.116  10.879  67.149  1.00  0.00    -0.091 OA 
BRANCH  15  18
HETATM   18  C   UNL     1      -9.006   9.389  66.722  1.00  0.00    -0.152 C  
BRANCH  18  19
HETATM   19  C   UNL     1      -8.170   8.558  65.731  1.00  0.00    -0.125 C  
HETATM   20  O   UNL     1      -9.016   8.013  64.705  1.00  0.00    -0.341 OA 
HETATM   21  H   UNL     1      -8.500   7.500  64.094  1.00  0.00     0.000 HD 
BRANCH  19  22
HETATM   22  C   UNL     1      -7.423   7.408  66.403  1.00  0.00    -0.084 C  
HETATM   23  C   UNL     1      -8.303   6.394  67.100  1.00  0.00    -0.112 C  
HETATM   24  O   UNL     1      -9.469   6.126  66.474  1.00  0.00    -0.150 OA 
HETATM   25  O   UNL     1      -7.952   5.795  68.106  1.00  0.00    -0.102 OA 
ENDBRANCH  19  22
ENDBRANCH  18  19
ENDBRANCH  15  18
ENDBRANCH  14  15
ENDBRANCH   5  13
BRANCH   7  26
HETATM   26  C   UNL     1     -10.493  14.418  68.266  1.00  0.00    -0.245 A  
HETATM   27  C   UNL     1      -8.710  16.038  67.816  1.00  0.00    -0.170 A  
HETATM   28  C   UNL     1     -10.069  15.240  65.998  1.00  0.00    -0.340 A  
HETATM   29  C   UNL     1      -9.020  16.014  66.465  1.00  0.00    -0.292 A  
HETATM   30  C   UNL     1      -9.431  15.230  68.705  1.00  0.00    -0.204 A  
HETATM   31  C   UNL     1     -10.818  14.473  66.898  1.00  0.00    -0.305 A  
HETATM   32  F   UNL     1      -8.295  16.740  65.605  1.00  0.00    -0.233 F  
ENDBRANCH   7  26
ENDBRANCH   2   4
TORSDOF 7
ENDMDL
MODEL      109
REMARK 921   NORMALIZED FREE ENERGY PREDICTED BY IDOCK:   -5.19 KCAL/MOL
REMARK 922        TOTAL FREE ENERGY PREDICTED BY IDOCK:   -9.01 KCAL/MOL
REMARK 923 INTER-LIGAND FREE ENERGY PREDICTED BY IDOCK:   -7.86 KCAL/MOL
REMARK 924 INTRA-LIGAND FREE ENERGY PREDICTED BY IDOCK:   -1.15 KCAL/MOL
REMARK 927      BINDING AFFINITY PREDICTED BY RF-SCORE:    0.00 PKD
ROOT
HETATM    1  C   UNL     1      -9.419   5.109  67.249  1.00  0.00    -0.141 C  
HETATM    2  C   UNL     1      -8.686   5.521  68.530  1.00  0.00    -0.105 C  
HETATM    3  C   UNL     1      -7.375   6.276  68.306  1.00  0.00    -0.086 C  
ENDROOT
BRANCH   2   4
HETATM    4  N   UNL     1      -9.541   6.147  69.547  1.00  0.00    -0.142 NA 
HETATM    5  C   UNL     1     -10.020   7.453  69.581  1.00  0.00    -0.182 A  
HETATM    6  C   UNL     1     -11.186   4.469  72.971  1.00  0.00    -0.277 A  
HETATM    7  C   UNL     1     -10.909   7.556  70.664  1.00  0.00    -0.251 A  
HETATM    8  C   UNL     1     -10.270   3.685  72.290  1.00  0.00    -0.188 A  
HETATM    9  C   UNL     1      -9.975   5.456  70.671  1.00  0.00    -0.214 A  
HETATM   10  C   UNL     1     -10.870   6.286  71.354  1.00  0.00    -0.312 A  
HETATM   11  C   UNL     1     -11.502   5.752  72.506  1.00  0.00    -0.349 A  
HETATM   12  C   UNL     1      -9.663   4.159  71.128  1.00  0.00    -0.258 A  
BRANCH   5  13
HETATM   13  C   UNL     1      -9.624   8.374  68.569  1.00  0.00    -0.155 C  
HETATM   14  C   UNL     1     -10.400   8.649  67.508  1.00  0.00    -0.336 C  
BRANCH  14  15
HETATM   15  C   UNL     1     -10.045   9.654  66.448  1.00  0.00    -0.247 C  
HETATM   16  H   UNL     1      -8.411  10.197  65.596  1.00  0.00     0.000 HD 
HETATM   17  O   UNL     1      -8.635   9.562  66.266  1.00  0.00    -0.127 OA 
BRANCH  15  18
HETATM   18  C   UNL     1     -10.460  11.076  66.855  1.00  0.00    -0.293 C  
BRANCH  18  19
HETATM   19  C   UNL     1      -9.268  11.997  67.174  1.00  0.00    -0.190 C  
HETATM   20  O   UNL     1      -9.099  12.114  68.596  1.00  0.00    -0.348 OA 
HETATM   21  H   UNL     1      -8.364  12.682  68.792  1.00  0.00     0.000 HD 
BRANCH  19  22
HETATM   22  C   UNL     1      -9.430  13.400  66.590  1.00  0.00    -0.264 C  
HETATM   23  C   UNL     1      -8.418  14.415  67.072  1.00  0.00    -0.181 C  
HETATM   24  O   UNL     1      -7.170  13.932  67.253  1.00  0.00    -0.139 OA 
HETATM   25  O   UNL     1      -8.683  15.601  67.204  1.00  0.00    -0.185 OA 
ENDBRANCH  19  22
ENDBRANCH  18  19
ENDBRANCH  15  18
ENDBRANCH  14  15
ENDBRANCH   5  13
BRANCH   7  26
HETATM   26  C   UNL     1     -11.648   8.787  71.019  1.00  0.00    -0.337 A  
HETATM   27  C   UNL     1     -13.435   9.899  72.274  1.00  0.00    -0.397 A  
HETATM   28  C   UNL     1     -11.918  11.221  70.954  1.00  0.00    -0.319 A  
HETATM   29  C   UNL     1     -12.992  11.132  71.824  1.00  0.00    -0.421 A  
HETATM   30  C   UNL     1     -12.753   8.738  71.888  1.00  0.00    -0.427 A  
HETATM   31  C   UNL     1     -11.272  10.053  70.532  1.00  0.00    -0.408 A  
HETATM   32  F   UNL     1     -13.605  12.249  72.238  1.00  0.00    -0.589 F  
ENDBRANCH   7  26
ENDBRANCH   2   4
TORSDOF 7
ENDMDL
MODEL      110
REMARK 921   NORMALIZED FREE ENERGY PREDICTED BY IDOCK:   -5.19 KCAL/MOL
REMARK 922        TOTAL FREE ENERGY PREDICTED BY IDOCK:   -9.01 KCAL/MOL
REMARK 923 INTER-LIGAND FREE ENERGY PREDICTED BY IDOCK:   -7.64 KCAL/MOL
REMARK 924 INTRA-LIGAND FREE ENERGY PREDICTED BY IDOCK:   -1.37 KCAL/MOL
REMARK 927      BINDING AFFINITY PREDICTED BY RF-SCORE:    0.00 PKD
ROOT
HETATM    1  C   UNL     1     -11.701  13.187  68.593  1.00  0.00    -0.362 C  
HETATM    2  C   UNL     1     -10.464  12.442  68.081  1.00  0.00    -0.219 C  
HETATM    3  C   UNL     1      -9.129  12.985  68.593  1.00  0.00     0.047 C  
ENDROOT
BRANCH   2   4
HETATM    4  N   UNL     1     -10.556  10.979  68.164  1.00  0.00    -0.180 NA 
HETATM    5  C   UNL     1     -10.240  10.040  67.186  1.00  0.00    -0.228 A  
HETATM    6  C   UNL     1     -11.743   8.615  71.366  1.00  0.00    -0.355 A  
HETATM    7  C   UNL     1     -10.352   8.765  67.764  1.00  0.00    -0.297 A  
HETATM    8  C   UNL     1     -11.927   9.979  71.517  1.00  0.00    -0.438 A  
HETATM    9  C   UNL     1     -11.022  10.334  69.304  1.00  0.00    -0.241 A  
HETATM   10  C   UNL     1     -10.855   8.960  69.106  1.00  0.00    -0.091 A  
HETATM   11  C   UNL     1     -11.197   8.102  70.182  1.00  0.00    -0.134 A  
HETATM   12  C   UNL     1     -11.559  10.856  70.498  1.00  0.00    -0.397 A  
BRANCH   5  13
HETATM   13  C   UNL     1      -9.826  10.481  65.897  1.00  0.00    -0.291 C  
HETATM   14  C   UNL     1     -10.666  10.516  64.849  1.00  0.00     0.054 C  
BRANCH  14  15
HETATM   15  C   UNL     1     -10.285  11.026  63.487  1.00  0.00    -0.365 C  
HETATM   16  H   UNL     1      -8.672  11.720  62.708  1.00  0.00     0.000 HD 
HETATM   17  O   UNL     1      -8.913  11.398  63.569  1.00  0.00    -0.061 OA 
BRANCH  15  18
HETATM   18  C   UNL     1     -11.159  12.216  63.063  1.00  0.00    -0.036 C  
BRANCH  18  19
HETATM   19  C   UNL     1     -12.025  12.780  64.205  1.00  0.00    -0.427 C  
HETATM   20  O   UNL     1     -13.365  12.269  64.109  1.00  0.00    -0.731 OA 
HETATM   21  H   UNL     1     -13.899  12.617  64.813  1.00  0.00     0.000 HD 
BRANCH  19  22
HETATM   22  C   UNL     1     -12.088  14.306  64.203  1.00  0.00    -0.423 C  
HETATM   23  C   UNL     1     -11.038  14.991  65.048  1.00  0.00    -0.413 C  
HETATM   24  O   UNL     1      -9.825  14.397  65.042  1.00  0.00    -0.259 OA 
HETATM   25  O   UNL     1     -11.240  16.051  65.623  1.00  0.00    -0.116 OA 
ENDBRANCH  19  22
ENDBRANCH  18  19
ENDBRANCH  15  18
ENDBRANCH  14  15
ENDBRANCH   5  13
BRANCH   7  26
HETATM   26  C   UNL     1     -10.070   7.501  67.049  1.00  0.00    -0.332 A  
HETATM   27  C   UNL     1      -8.532   6.086  65.771  1.00  0.00    -0.146 A  
HETATM   28  C   UNL     1     -10.686   5.220  66.401  1.00  0.00    -0.290 A  
HETATM   29  C   UNL     1      -9.452   5.050  65.797  1.00  0.00    -0.157 A  
HETATM   30  C   UNL     1      -8.834   7.295  66.410  1.00  0.00    -0.167 A  
HETATM   31  C   UNL     1     -11.003   6.448  66.995  1.00  0.00    -0.463 A  
HETATM   32  F   UNL     1      -9.143   3.874  65.237  1.00  0.00    -0.122 F  
ENDBRANCH   7  26
ENDBRANCH   2   4
TORSDOF 7
ENDMDL
MODEL      111
REMARK 921   NORMALIZED FREE ENERGY PREDICTED BY IDOCK:   -5.18 KCAL/MOL
REMARK 922        TOTAL FREE ENERGY PREDICTED BY IDOCK:   -9.00 KCAL/MOL
REMARK 923 INTER-LIGAND FREE ENERGY PREDICTED BY IDOCK:   -7.58 KCAL/MOL
REMARK 924 INTRA-LIGAND FREE ENERGY PREDICTED BY IDOCK:   -1.42 KCAL/MOL
REMARK 927      BINDING AFFINITY PREDICTED BY RF-SCORE:    0.00 PKD
ROOT
HETATM    1  C   UNL     1     -11.083   9.607  71.515  1.00  0.00    -0.335 C  
HETATM    2  C   UNL     1     -12.113  10.138  70.513  1.00  0.00    -0.291 C  
HETATM    3  C   UNL     1     -13.565   9.781  70.835  1.00  0.00    -0.081 C  
ENDROOT
BRANCH   2   4
HETATM    4  N   UNL     1     -11.937  11.550  70.148  1.00  0.00    -0.350 NA 
HETATM    5  C   UNL     1     -11.128  12.086  69.151  1.00  0.00    -0.215 A  
HETATM    6  C   UNL     1     -13.764  14.911  71.764  1.00  0.00    -0.530 A  
HETATM    7  C   UNL     1     -11.392  13.464  69.079  1.00  0.00    -0.335 A  
HETATM    8  C   UNL     1     -13.990  13.718  72.430  1.00  0.00    -0.651 A  
HETATM    9  C   UNL     1     -12.593  12.571  70.824  1.00  0.00    -0.212 A  
HETATM   10  C   UNL     1     -12.318  13.765  70.149  1.00  0.00    -0.390 A  
HETATM   11  C   UNL     1     -12.952  14.942  70.623  1.00  0.00    -0.389 A  
HETATM   12  C   UNL     1     -13.421  12.534  71.964  1.00  0.00    -0.486 A  
BRANCH   5  13
HETATM   13  C   UNL     1     -10.290  11.224  68.387  1.00  0.00    -0.207 C  
HETATM   14  C   UNL     1      -8.969  11.130  68.609  1.00  0.00    -0.162 C  
BRANCH  14  15
HETATM   15  C   UNL     1      -8.059  10.194  67.864  1.00  0.00    -0.109 C  
HETATM   16  H   UNL     1      -6.464   9.220  68.310  1.00  0.00     0.000 HD 
HETATM   17  O   UNL     1      -7.039   9.812  68.782  1.00  0.00    -0.065 OA 
BRANCH  15  18
HETATM   18  C   UNL     1      -7.461  10.860  66.615  1.00  0.00    -0.139 C  
BRANCH  18  19
HETATM   19  C   UNL     1      -6.061  10.335  66.249  1.00  0.00    -0.082 C  
HETATM   20  O   UNL     1      -5.311  11.354  65.568  1.00  0.00    -0.487 OA 
HETATM   21  H   UNL     1      -4.448  11.030  65.342  1.00  0.00     0.000 HD 
BRANCH  19  22
HETATM   22  C   UNL     1      -6.107   9.094  65.360  1.00  0.00    -0.063 C  
HETATM   23  C   UNL     1      -6.915   9.246  64.090  1.00  0.00    -0.095 C  
HETATM   24  O   UNL     1      -6.827  10.458  63.501  1.00  0.00    -0.112 OA 
HETATM   25  O   UNL     1      -7.532   8.319  63.584  1.00  0.00    -0.105 OA 
ENDBRANCH  19  22
ENDBRANCH  18  19
ENDBRANCH  15  18
ENDBRANCH  14  15
ENDBRANCH   5  13
BRANCH   7  26
HETATM   26  C   UNL     1     -10.746  14.385  68.119  1.00  0.00    -0.239 A  
HETATM   27  C   UNL     1     -10.679  15.436  65.907  1.00  0.00    -0.343 A  
HETATM   28  C   UNL     1      -9.089  16.107  67.583  1.00  0.00    -0.197 A  
HETATM   29  C   UNL     1      -9.621  16.235  66.311  1.00  0.00    -0.308 A  
HETATM   30  C   UNL     1     -11.248  14.532  66.814  1.00  0.00    -0.336 A  
HETATM   31  C   UNL     1      -9.629  15.167  68.468  1.00  0.00    -0.214 A  
HETATM   32  F   UNL     1      -9.114  17.141  65.466  1.00  0.00    -0.050 F  
ENDBRANCH   7  26
ENDBRANCH   2   4
TORSDOF 7
ENDMDL
MODEL      112
REMARK 921   NORMALIZED FREE ENERGY PREDICTED BY IDOCK:   -5.17 KCAL/MOL
REMARK 922        TOTAL FREE ENERGY PREDICTED BY IDOCK:   -8.99 KCAL/MOL
REMARK 923 INTER-LIGAND FREE ENERGY PREDICTED BY IDOCK:   -7.35 KCAL/MOL
REMARK 924 INTRA-LIGAND FREE ENERGY PREDICTED BY IDOCK:   -1.65 KCAL/MOL
REMARK 927      BINDING AFFINITY PREDICTED BY RF-SCORE:    0.00 PKD
ROOT
HETATM    1  C   UNL     1     -10.702   7.032  66.819  1.00  0.00    -0.282 C  
HETATM    2  C   UNL     1      -9.630   7.990  67.350  1.00  0.00    -0.153 C  
HETATM    3  C   UNL     1      -8.193   7.487  67.212  1.00  0.00    -0.115 C  
ENDROOT
BRANCH   2   4
HETATM    4  N   UNL     1      -9.793   9.385  66.919  1.00  0.00    -0.186 NA 
HETATM    5  C   UNL     1     -10.216  10.474  67.675  1.00  0.00    -0.197 A  
HETATM    6  C   UNL     1      -9.043  11.074  63.200  1.00  0.00    -0.262 A  
HETATM    7  C   UNL     1     -10.080  11.625  66.881  1.00  0.00    -0.238 A  
HETATM    8  C   UNL     1      -8.968   9.692  63.266  1.00  0.00    -0.251 A  
HETATM    9  C   UNL     1      -9.541   9.786  65.613  1.00  0.00    -0.263 A  
HETATM   10  C   UNL     1      -9.657  11.179  65.572  1.00  0.00    -0.263 A  
HETATM   11  C   UNL     1      -9.366  11.820  64.341  1.00  0.00     0.115 A  
HETATM   12  C   UNL     1      -9.203   9.032  64.471  1.00  0.00     0.144 A  
BRANCH   5  13
HETATM   13  C   UNL     1     -10.618  10.278  69.027  1.00  0.00    -0.247 C  
HETATM   14  C   UNL     1     -11.877  10.503  69.439  1.00  0.00    -0.271 C  
BRANCH  14  15
HETATM   15  C   UNL     1     -12.355  10.256  70.843  1.00  0.00    -0.373 C  
HETATM   16  H   UNL     1     -13.034  11.370  72.253  1.00  0.00     0.000 HD 
HETATM   17  O   UNL     1     -12.732  11.526  71.366  1.00  0.00    -0.397 OA 
BRANCH  15  18
HETATM   18  C   UNL     1     -11.266   9.600  71.705  1.00  0.00    -0.287 C  
BRANCH  18  19
HETATM   19  C   UNL     1     -11.773   8.405  72.532  1.00  0.00    -0.359 C  
HETATM   20  O   UNL     1     -10.702   7.855  73.317  1.00  0.00    -0.341 OA 
HETATM   21  H   UNL     1     -11.016   7.118  73.827  1.00  0.00     0.000 HD 
BRANCH  19  22
HETATM   22  C   UNL     1     -12.360   7.292  71.667  1.00  0.00    -0.387 C  
HETATM   23  C   UNL     1     -11.466   6.815  70.544  1.00  0.00    -0.360 C  
HETATM   24  O   UNL     1     -10.150   6.774  70.842  1.00  0.00    -0.190 OA 
HETATM   25  O   UNL     1     -11.905   6.414  69.475  1.00  0.00    -0.274 OA 
ENDBRANCH  19  22
ENDBRANCH  18  19
ENDBRANCH  15  18
ENDBRANCH  14  15
ENDBRANCH   5  13
BRANCH   7  26
HETATM   26  C   UNL     1     -10.405  12.994  67.339  1.00  0.00    -0.234 A  
HETATM   27  C   UNL     1      -9.688  15.143  68.272  1.00  0.00    -0.219 A  
HETATM   28  C   UNL     1     -11.974  14.860  67.578  1.00  0.00    -0.158 A  
HETATM   29  C   UNL     1     -10.963  15.654  68.092  1.00  0.00    -0.314 A  
HETATM   30  C   UNL     1      -9.409  13.827  67.879  1.00  0.00    -0.211 A  
HETATM   31  C   UNL     1     -11.702  13.530  67.234  1.00  0.00    -0.423 A  
HETATM   32  F   UNL     1     -11.218  16.929  68.412  1.00  0.00    -0.352 F  
ENDBRANCH   7  26
ENDBRANCH   2   4
TORSDOF 7
ENDMDL
MODEL      113
REMARK 921   NORMALIZED FREE ENERGY PREDICTED BY IDOCK:   -5.15 KCAL/MOL
REMARK 922        TOTAL FREE ENERGY PREDICTED BY IDOCK:   -8.96 KCAL/MOL
REMARK 923 INTER-LIGAND FREE ENERGY PREDICTED BY IDOCK:   -7.24 KCAL/MOL
REMARK 924 INTRA-LIGAND FREE ENERGY PREDICTED BY IDOCK:   -1.72 KCAL/MOL
REMARK 927      BINDING AFFINITY PREDICTED BY RF-SCORE:    0.00 PKD
ROOT
HETATM    1  C   UNL     1     -12.009   7.502  72.409  1.00  0.00    -0.264 C  
HETATM    2  C   UNL     1     -10.623   8.063  72.075  1.00  0.00    -0.248 C  
HETATM    3  C   UNL     1      -9.527   7.712  73.082  1.00  0.00    -0.300 C  
ENDROOT
BRANCH   2   4
HETATM    4  N   UNL     1     -10.204   7.863  70.681  1.00  0.00    -0.195 NA 
HETATM    5  C   UNL     1      -9.988   8.827  69.702  1.00  0.00    -0.191 A  
HETATM    6  C   UNL     1      -9.304   4.322  68.708  1.00  0.00    -0.216 A  
HETATM    7  C   UNL     1      -9.465   8.180  68.570  1.00  0.00    -0.144 A  
HETATM    8  C   UNL     1      -9.845   4.190  69.976  1.00  0.00    -0.245 A  
HETATM    9  C   UNL     1      -9.985   6.596  70.154  1.00  0.00    -0.173 A  
HETATM   10  C   UNL     1      -9.471   6.763  68.863  1.00  0.00    -0.128 A  
HETATM   11  C   UNL     1      -9.099   5.592  68.155  1.00  0.00    -0.111 A  
HETATM   12  C   UNL     1     -10.180   5.320  70.719  1.00  0.00    -0.317 A  
BRANCH   5  13
HETATM   13  C   UNL     1     -10.244  10.197  69.995  1.00  0.00    -0.271 C  
HETATM   14  C   UNL     1     -11.468  10.737  69.882  1.00  0.00    -0.398 C  
BRANCH  14  15
HETATM   15  C   UNL     1     -11.791  12.163  70.235  1.00  0.00    -0.254 C  
HETATM   16  H   UNL     1     -13.159  13.020  71.276  1.00  0.00     0.000 HD 
HETATM   17  O   UNL     1     -12.956  12.119  71.053  1.00  0.00    -0.217 OA 
BRANCH  15  18
HETATM   18  C   UNL     1     -12.026  13.017  68.980  1.00  0.00    -0.312 C  
BRANCH  18  19
HETATM   19  C   UNL     1     -11.839  14.526  69.220  1.00  0.00    -0.323 C  
HETATM   20  O   UNL     1     -12.891  15.029  70.060  1.00  0.00    -0.590 OA 
HETATM   21  H   UNL     1     -12.775  15.960  70.208  1.00  0.00     0.000 HD 
BRANCH  19  22
HETATM   22  C   UNL     1     -11.826  15.336  67.924  1.00  0.00    -0.144 C  
HETATM   23  C   UNL     1     -10.503  15.986  67.588  1.00  0.00    -0.292 C  
HETATM   24  O   UNL     1      -9.413  15.253  67.900  1.00  0.00    -0.196 OA 
HETATM   25  O   UNL     1     -10.423  17.054  66.999  1.00  0.00    -0.315 OA 
ENDBRANCH  19  22
ENDBRANCH  18  19
ENDBRANCH  15  18
ENDBRANCH  14  15
ENDBRANCH   5  13
BRANCH   7  26
HETATM   26  C   UNL     1      -9.078   8.871  67.321  1.00  0.00    -0.153 A  
HETATM   27  C   UNL     1      -7.338   9.725  65.823  1.00  0.00    -0.105 A  
HETATM   28  C   UNL     1      -9.644   9.851  65.149  1.00  0.00    -0.367 A  
HETATM   29  C   UNL     1      -8.301  10.062  64.885  1.00  0.00    -0.157 A  
HETATM   30  C   UNL     1      -7.725   9.116  67.023  1.00  0.00    -0.098 A  
HETATM   31  C   UNL     1     -10.029   9.288  66.372  1.00  0.00    -0.356 A  
HETATM   32  F   UNL     1      -7.929  10.590  63.712  1.00  0.00    -0.160 F  
ENDBRANCH   7  26
ENDBRANCH   2   4
TORSDOF 7
ENDMDL
MODEL      114
REMARK 921   NORMALIZED FREE ENERGY PREDICTED BY IDOCK:   -5.14 KCAL/MOL
REMARK 922        TOTAL FREE ENERGY PREDICTED BY IDOCK:   -8.95 KCAL/MOL
REMARK 923 INTER-LIGAND FREE ENERGY PREDICTED BY IDOCK:   -7.44 KCAL/MOL
REMARK 924 INTRA-LIGAND FREE ENERGY PREDICTED BY IDOCK:   -1.51 KCAL/MOL
REMARK 927      BINDING AFFINITY PREDICTED BY RF-SCORE:    0.00 PKD
ROOT
HETATM    1  C   UNL     1     -11.671  11.739  64.087  1.00  0.00    -0.376 C  
HETATM    2  C   UNL     1     -10.628  10.977  64.911  1.00  0.00    -0.258 C  
HETATM    3  C   UNL     1      -9.176  11.232  64.505  1.00  0.00    -0.072 C  
ENDROOT
BRANCH   2   4
HETATM    4  N   UNL     1     -10.835  11.040  66.364  1.00  0.00    -0.232 NA 
HETATM    5  C   UNL     1     -10.671  10.024  67.301  1.00  0.00    -0.244 A  
HETATM    6  C   UNL     1     -11.974  14.278  68.702  1.00  0.00    -0.348 A  
HETATM    7  C   UNL     1     -10.845  10.585  68.577  1.00  0.00    -0.275 A  
HETATM    8  C   UNL     1     -12.033  14.468  67.331  1.00  0.00    -0.367 A  
HETATM    9  C   UNL     1     -11.267  12.200  66.996  1.00  0.00    -0.314 A  
HETATM   10  C   UNL     1     -11.230  11.964  68.375  1.00  0.00    -0.312 A  
HETATM   11  C   UNL     1     -11.561  13.047  69.228  1.00  0.00    -0.367 A  
HETATM   12  C   UNL     1     -11.669  13.440  66.462  1.00  0.00    -0.415 A  
BRANCH   5  13
HETATM   13  C   UNL     1     -10.319   8.715  66.864  1.00  0.00    -0.355 C  
HETATM   14  C   UNL     1      -9.042   8.304  66.794  1.00  0.00    -0.190 C  
BRANCH  14  15
HETATM   15  C   UNL     1      -8.631   6.915  66.391  1.00  0.00    -0.134 C  
HETATM   16  H   UNL     1      -7.797   6.150  64.839  1.00  0.00     0.000 HD 
HETATM   17  O   UNL     1      -8.057   7.028  65.092  1.00  0.00    -0.120 OA 
BRANCH  15  18
HETATM   18  C   UNL     1      -9.825   5.949  66.388  1.00  0.00    -0.161 C  
BRANCH  18  19
HETATM   19  C   UNL     1      -9.423   4.473  66.564  1.00  0.00    -0.173 C  
HETATM   20  O   UNL     1      -8.036   4.294  66.229  1.00  0.00    -0.101 OA 
HETATM   21  H   UNL     1      -7.789   3.384  66.337  1.00  0.00     0.000 HD 
BRANCH  19  22
HETATM   22  C   UNL     1     -10.254   3.526  65.701  1.00  0.00     0.338 C  
HETATM   23  C   UNL     1     -10.274   3.855  64.225  1.00  0.00    -0.226 C  
HETATM   24  O   UNL     1      -9.108   4.321  63.730  1.00  0.00    -0.137 OA 
HETATM   25  O   UNL     1     -11.243   3.635  63.512  1.00  0.00    -0.209 OA 
ENDBRANCH  19  22
ENDBRANCH  18  19
ENDBRANCH  15  18
ENDBRANCH  14  15
ENDBRANCH   5  13
BRANCH   7  26
HETATM   26  C   UNL     1     -10.723   9.827  69.842  1.00  0.00    -0.303 A  
HETATM   27  C   UNL     1      -9.326   8.727  71.526  1.00  0.00    -0.337 A  
HETATM   28  C   UNL     1     -11.700   8.892  71.884  1.00  0.00    -0.439 A  
HETATM   29  C   UNL     1     -10.443   8.503  72.316  1.00  0.00    -0.332 A  
HETATM   30  C   UNL     1      -9.466   9.402  70.307  1.00  0.00    -0.294 A  
HETATM   31  C   UNL     1     -11.840   9.522  70.641  1.00  0.00    -0.301 A  
HETATM   32  F   UNL     1     -10.304   7.911  73.509  1.00  0.00    -0.388 F  
ENDBRANCH   7  26
ENDBRANCH   2   4
TORSDOF 7
ENDMDL
MODEL      115
REMARK 921   NORMALIZED FREE ENERGY PREDICTED BY IDOCK:   -5.11 KCAL/MOL
REMARK 922        TOTAL FREE ENERGY PREDICTED BY IDOCK:   -8.90 KCAL/MOL
REMARK 923 INTER-LIGAND FREE ENERGY PREDICTED BY IDOCK:   -7.01 KCAL/MOL
REMARK 924 INTRA-LIGAND FREE ENERGY PREDICTED BY IDOCK:   -1.89 KCAL/MOL
REMARK 927      BINDING AFFINITY PREDICTED BY RF-SCORE:    0.00 PKD
ROOT
HETATM    1  C   UNL     1      -8.178   9.543  70.458  1.00  0.00    -0.203 C  
HETATM    2  C   UNL     1      -7.195  10.406  69.661  1.00  0.00    -0.148 C  
HETATM    3  C   UNL     1      -5.938   9.678  69.184  1.00  0.00    -0.034 C  
ENDROOT
BRANCH   2   4
HETATM    4  N   UNL     1      -7.817  11.223  68.609  1.00  0.00    -0.133 NA 
HETATM    5  C   UNL     1      -8.773  10.837  67.675  1.00  0.00    -0.126 A  
HETATM    6  C   UNL     1      -7.229  15.238  67.729  1.00  0.00    -0.184 A  
HETATM    7  C   UNL     1      -9.170  11.985  66.969  1.00  0.00    -0.195 A  
HETATM    8  C   UNL     1      -6.369  14.689  68.666  1.00  0.00    -0.082 A  
HETATM    9  C   UNL     1      -7.475  12.555  68.413  1.00  0.00    -0.127 A  
HETATM   10  C   UNL     1      -8.337  13.070  67.439  1.00  0.00    -0.194 A  
HETATM   11  C   UNL     1      -8.217  14.448  67.128  1.00  0.00    -0.202 A  
HETATM   12  C   UNL     1      -6.487  13.349  69.029  1.00  0.00    -0.105 A  
BRANCH   5  13
HETATM   13  C   UNL     1      -9.207   9.481  67.631  1.00  0.00    -0.138 C  
HETATM   14  C   UNL     1      -8.752   8.613  66.713  1.00  0.00    -0.135 C  
BRANCH  14  15
HETATM   15  C   UNL     1      -9.142   7.162  66.666  1.00  0.00    -0.149 C  
HETATM   16  H   UNL     1      -9.135   5.805  65.306  1.00  0.00     0.000 HD 
HETATM   17  O   UNL     1      -8.888   6.722  65.335  1.00  0.00    -0.050 OA 
BRANCH  15  18
HETATM   18  C   UNL     1     -10.617   6.960  67.046  1.00  0.00    -0.403 C  
BRANCH  18  19
HETATM   19  C   UNL     1     -10.812   6.175  68.356  1.00  0.00    -0.305 C  
HETATM   20  O   UNL     1     -11.728   6.868  69.219  1.00  0.00    -0.580 OA 
HETATM   21  H   UNL     1     -11.848   6.384  70.027  1.00  0.00     0.000 HD 
BRANCH  19  22
HETATM   22  C   UNL     1      -9.505   5.956  69.116  1.00  0.00    -0.151 C  
HETATM   23  C   UNL     1      -9.660   5.711  70.600  1.00  0.00    -0.168 C  
HETATM   24  O   UNL     1     -10.737   4.974  70.946  1.00  0.00    -0.134 OA 
HETATM   25  O   UNL     1      -8.829   6.076  71.420  1.00  0.00    -0.135 OA 
ENDBRANCH  19  22
ENDBRANCH  18  19
ENDBRANCH  15  18
ENDBRANCH  14  15
ENDBRANCH   5  13
BRANCH   7  26
HETATM   26  C   UNL     1     -10.195  11.992  65.902  1.00  0.00    -0.263 A  
HETATM   27  C   UNL     1     -12.433  12.606  65.119  1.00  0.00    -0.531 A  
HETATM   28  C   UNL     1     -10.886  11.579  63.589  1.00  0.00    -0.488 A  
HETATM   29  C   UNL     1     -12.123  12.146  63.849  1.00  0.00    -0.488 A  
HETATM   30  C   UNL     1     -11.467  12.546  66.131  1.00  0.00    -0.426 A  
HETATM   31  C   UNL     1      -9.942  11.476  64.618  1.00  0.00    -0.305 A  
HETATM   32  F   UNL     1     -13.023  12.256  62.864  1.00  0.00    -0.425 F  
ENDBRANCH   7  26
ENDBRANCH   2   4
TORSDOF 7
ENDMDL
MODEL      116
REMARK 921   NORMALIZED FREE ENERGY PREDICTED BY IDOCK:   -5.06 KCAL/MOL
REMARK 922        TOTAL FREE ENERGY PREDICTED BY IDOCK:   -8.83 KCAL/MOL
REMARK 923 INTER-LIGAND FREE ENERGY PREDICTED BY IDOCK:   -8.15 KCAL/MOL
REMARK 924 INTRA-LIGAND FREE ENERGY PREDICTED BY IDOCK:   -0.69 KCAL/MOL
REMARK 927      BINDING AFFINITY PREDICTED BY RF-SCORE:    0.00 PKD
ROOT
HETATM    1  C   UNL     1     -10.147  11.547  65.192  1.00  0.00    -0.313 C  
HETATM    2  C   UNL     1     -11.161  12.491  65.847  1.00  0.00    -0.320 C  
HETATM    3  C   UNL     1     -12.457  12.689  65.059  1.00  0.00    -0.556 C  
ENDROOT
BRANCH   2   4
HETATM    4  N   UNL     1     -11.392  12.240  67.276  1.00  0.00    -0.306 NA 
HETATM    5  C   UNL     1     -11.366  11.022  67.949  1.00  0.00    -0.311 A  
HETATM    6  C   UNL     1     -12.206  14.958  70.307  1.00  0.00    -0.389 A  
HETATM    7  C   UNL     1     -11.503  11.289  69.322  1.00  0.00    -0.369 A  
HETATM    8  C   UNL     1     -12.212  15.466  69.018  1.00  0.00    -0.167 A  
HETATM    9  C   UNL     1     -11.703  13.264  68.162  1.00  0.00    -0.362 A  
HETATM   10  C   UNL     1     -11.724  12.713  69.448  1.00  0.00    -0.387 A  
HETATM   11  C   UNL     1     -11.949  13.600  70.531  1.00  0.00    -0.353 A  
HETATM   12  C   UNL     1     -11.949  14.632  67.933  1.00  0.00    -0.299 A  
BRANCH   5  13
HETATM   13  C   UNL     1     -11.155   9.819  67.218  1.00  0.00    -0.002 C  
HETATM   14  C   UNL     1     -10.323   8.856  67.649  1.00  0.00    -0.313 C  
BRANCH  14  15
HETATM   15  C   UNL     1     -10.115   7.549  66.937  1.00  0.00    -0.266 C  
HETATM   16  H   UNL     1     -10.492   5.711  67.350  1.00  0.00     0.000 HD 
HETATM   17  O   UNL     1     -10.624   6.537  67.801  1.00  0.00    -0.196 OA 
BRANCH  15  18
HETATM   18  C   UNL     1      -8.632   7.310  66.615  1.00  0.00    -0.128 C  
BRANCH  18  19
HETATM   19  C   UNL     1      -7.973   6.243  67.508  1.00  0.00    -0.109 C  
HETATM   20  O   UNL     1      -6.753   6.752  68.071  1.00  0.00    -0.062 OA 
HETATM   21  H   UNL     1      -6.347   6.093  68.622  1.00  0.00     0.000 HD 
BRANCH  19  22
HETATM   22  C   UNL     1      -7.656   4.952  66.755  1.00  0.00    -0.088 C  
HETATM   23  C   UNL     1      -6.674   4.032  67.445  1.00  0.00    -0.047 C  
HETATM   24  O   UNL     1      -6.790   3.981  68.789  1.00  0.00    -0.045 OA 
HETATM   25  O   UNL     1      -5.892   3.321  66.832  1.00  0.00    -0.022 OA 
ENDBRANCH  19  22
ENDBRANCH  18  19
ENDBRANCH  15  18
ENDBRANCH  14  15
ENDBRANCH   5  13
BRANCH   7  26
HETATM   26  C   UNL     1     -11.497  10.251  70.375  1.00  0.00    -0.415 A  
HETATM   27  C   UNL     1     -10.269   8.658  71.773  1.00  0.00    -0.378 A  
HETATM   28  C   UNL     1     -12.628   8.968  72.129  1.00  0.00    -0.461 A  
HETATM   29  C   UNL     1     -11.428   8.368  72.474  1.00  0.00    -0.352 A  
HETATM   30  C   UNL     1     -10.302   9.608  70.745  1.00  0.00    -0.356 A  
HETATM   31  C   UNL     1     -12.665   9.879  71.066  1.00  0.00    -0.425 A  
HETATM   32  F   UNL     1     -11.388   7.504  73.496  1.00  0.00    -0.352 F  
ENDBRANCH   7  26
ENDBRANCH   2   4
TORSDOF 7
ENDMDL
MODEL      117
REMARK 921   NORMALIZED FREE ENERGY PREDICTED BY IDOCK:   -5.03 KCAL/MOL
REMARK 922        TOTAL FREE ENERGY PREDICTED BY IDOCK:   -8.80 KCAL/MOL
REMARK 923 INTER-LIGAND FREE ENERGY PREDICTED BY IDOCK:   -7.15 KCAL/MOL
REMARK 924 INTRA-LIGAND FREE ENERGY PREDICTED BY IDOCK:   -1.65 KCAL/MOL
REMARK 927      BINDING AFFINITY PREDICTED BY RF-SCORE:    0.00 PKD
ROOT
HETATM    1  C   UNL     1     -10.928  15.718  68.526  1.00  0.00    -0.312 C  
HETATM    2  C   UNL     1     -10.775  15.578  67.008  1.00  0.00    -0.321 C  
HETATM    3  C   UNL     1      -9.999  16.709  66.333  1.00  0.00    -0.316 C  
ENDROOT
BRANCH   2   4
HETATM    4  N   UNL     1     -10.351  14.245  66.559  1.00  0.00    -0.274 NA 
HETATM    5  C   UNL     1      -9.341  13.443  67.083  1.00  0.00    -0.240 A  
HETATM    6  C   UNL     1     -11.888  11.911  63.488  1.00  0.00    -0.560 A  
HETATM    7  C   UNL     1      -9.393  12.203  66.424  1.00  0.00    -0.225 A  
HETATM    8  C   UNL     1     -12.373  13.206  63.567  1.00  0.00    -0.478 A  
HETATM    9  C   UNL     1     -10.942  13.611  65.474  1.00  0.00    -0.293 A  
HETATM   10  C   UNL     1     -10.408  12.320  65.400  1.00  0.00    -0.298 A  
HETATM   11  C   UNL     1     -10.927  11.458  64.401  1.00  0.00    -0.371 A  
HETATM   12  C   UNL     1     -11.918  14.067  64.565  1.00  0.00    -0.470 A  
BRANCH   5  13
HETATM   13  C   UNL     1      -8.536  13.933  68.150  1.00  0.00    -0.171 C  
HETATM   14  C   UNL     1      -7.358  14.542  67.936  1.00  0.00    -0.166 C  
BRANCH  14  15
HETATM   15  C   UNL     1      -6.504  15.122  69.029  1.00  0.00    -0.106 C  
HETATM   16  H   UNL     1      -6.124  14.635  70.848  1.00  0.00     0.000 HD 
HETATM   17  O   UNL     1      -6.664  14.268  70.158  1.00  0.00    -0.117 OA 
BRANCH  15  18
HETATM   18  C   UNL     1      -6.914  16.565  69.361  1.00  0.00    -0.202 C  
BRANCH  18  19
HETATM   19  C   UNL     1      -7.076  17.459  68.118  1.00  0.00    -0.196 C  
HETATM   20  O   UNL     1      -5.788  17.875  67.635  1.00  0.00    -0.140 OA 
HETATM   21  H   UNL     1      -5.888  18.426  66.869  1.00  0.00     0.000 HD 
BRANCH  19  22
HETATM   22  C   UNL     1      -7.915  18.706  68.391  1.00  0.00    -0.351 C  
HETATM   23  C   UNL     1      -7.905  19.739  67.286  1.00  0.00    -0.274 C  
HETATM   24  O   UNL     1      -7.890  19.233  66.034  1.00  0.00    -0.312 OA 
HETATM   25  O   UNL     1      -7.992  20.939  67.503  1.00  0.00    -0.264 OA 
ENDBRANCH  19  22
ENDBRANCH  18  19
ENDBRANCH  15  18
ENDBRANCH  14  15
ENDBRANCH   5  13
BRANCH   7  26
HETATM   26  C   UNL     1      -8.494  11.066  66.719  1.00  0.00    -0.148 A  
HETATM   27  C   UNL     1      -7.684   9.352  68.270  1.00  0.00    -0.083 A  
HETATM   28  C   UNL     1      -6.855   9.389  66.012  1.00  0.00    -0.089 A  
HETATM   29  C   UNL     1      -6.893   8.811  67.270  1.00  0.00    -0.067 A  
HETATM   30  C   UNL     1      -8.493  10.460  67.988  1.00  0.00    -0.119 A  
HETATM   31  C   UNL     1      -7.627  10.527  65.750  1.00  0.00    -0.142 A  
HETATM   32  F   UNL     1      -6.163   7.716  67.520  1.00  0.00    -0.042 F  
ENDBRANCH   7  26
ENDBRANCH   2   4
TORSDOF 7
ENDMDL
MODEL      118
REMARK 921   NORMALIZED FREE ENERGY PREDICTED BY IDOCK:   -5.01 KCAL/MOL
REMARK 922        TOTAL FREE ENERGY PREDICTED BY IDOCK:   -8.77 KCAL/MOL
REMARK 923 INTER-LIGAND FREE ENERGY PREDICTED BY IDOCK:   -8.22 KCAL/MOL
REMARK 924 INTRA-LIGAND FREE ENERGY PREDICTED BY IDOCK:   -0.55 KCAL/MOL
REMARK 927      BINDING AFFINITY PREDICTED BY RF-SCORE:    0.00 PKD
ROOT
HETATM    1  C   UNL     1     -14.109  12.768  72.350  1.00  0.00    -0.092 C  
HETATM    2  C   UNL     1     -13.300  13.902  71.713  1.00  0.00    -0.381 C  
HETATM    3  C   UNL     1     -12.645  14.863  72.707  1.00  0.00    -0.477 C  
ENDROOT
BRANCH   2   4
HETATM    4  N   UNL     1     -12.386  13.472  70.646  1.00  0.00    -0.360 NA 
HETATM    5  C   UNL     1     -11.922  12.188  70.377  1.00  0.00    -0.272 A  
HETATM    6  C   UNL     1     -10.609  15.743  67.657  1.00  0.00    -0.301 A  
HETATM    7  C   UNL     1     -11.187  12.239  69.181  1.00  0.00    -0.300 A  
HETATM    8  C   UNL     1     -11.285  16.451  68.637  1.00  0.00    -0.332 A  
HETATM    9  C   UNL     1     -11.834  14.373  69.742  1.00  0.00    -0.320 A  
HETATM   10  C   UNL     1     -11.131  13.630  68.788  1.00  0.00    -0.302 A  
HETATM   11  C   UNL     1     -10.541  14.345  67.714  1.00  0.00    -0.246 A  
HETATM   12  C   UNL     1     -11.916  15.778  69.682  1.00  0.00    -0.332 A  
BRANCH   5  13
HETATM   13  C   UNL     1     -12.288  11.114  71.237  1.00  0.00    -0.402 C  
HETATM   14  C   UNL     1     -13.044  10.086  70.816  1.00  0.00    -0.316 C  
BRANCH  14  15
HETATM   15  C   UNL     1     -13.406   8.906  71.675  1.00  0.00    -0.365 C  
HETATM   16  H   UNL     1     -13.140   8.448  73.522  1.00  0.00     0.000 HD 
HETATM   17  O   UNL     1     -12.911   9.194  72.979  1.00  0.00    -0.232 OA 
BRANCH  15  18
HETATM   18  C   UNL     1     -12.806   7.603  71.128  1.00  0.00    -0.223 C  
BRANCH  18  19
HETATM   19  C   UNL     1     -11.481   7.205  71.804  1.00  0.00    -0.267 C  
HETATM   20  O   UNL     1     -11.595   7.331  73.231  1.00  0.00    -0.557 OA 
HETATM   21  H   UNL     1     -10.777   7.086  73.647  1.00  0.00     0.000 HD 
BRANCH  19  22
HETATM   22  C   UNL     1     -10.300   8.055  71.337  1.00  0.00    -0.243 C  
HETATM   23  C   UNL     1      -9.119   8.083  72.281  1.00  0.00    -0.176 C  
HETATM   24  O   UNL     1      -8.864   6.915  72.909  1.00  0.00    -0.126 OA 
HETATM   25  O   UNL     1      -8.394   9.059  72.403  1.00  0.00    -0.342 OA 
ENDBRANCH  19  22
ENDBRANCH  18  19
ENDBRANCH  15  18
ENDBRANCH  14  15
ENDBRANCH   5  13
BRANCH   7  26
HETATM   26  C   UNL     1     -10.551  11.065  68.545  1.00  0.00    -0.218 A  
HETATM   27  C   UNL     1     -10.640   9.216  66.941  1.00  0.00    -0.237 A  
HETATM   28  C   UNL     1      -8.607   9.625  68.161  1.00  0.00    -0.119 A  
HETATM   29  C   UNL     1      -9.317   8.906  67.214  1.00  0.00    -0.140 A  
HETATM   30  C   UNL     1     -11.243  10.301  67.589  1.00  0.00    -0.232 A  
HETATM   31  C   UNL     1      -9.231  10.677  68.842  1.00  0.00    -0.189 A  
HETATM   32  F   UNL     1      -8.719   7.907  66.553  1.00  0.00    -0.122 F  
ENDBRANCH   7  26
ENDBRANCH   2   4
TORSDOF 7
ENDMDL
MODEL      119
REMARK 921   NORMALIZED FREE ENERGY PREDICTED BY IDOCK:   -5.01 KCAL/MOL
REMARK 922        TOTAL FREE ENERGY PREDICTED BY IDOCK:   -8.77 KCAL/MOL
REMARK 923 INTER-LIGAND FREE ENERGY PREDICTED BY IDOCK:   -7.72 KCAL/MOL
REMARK 924 INTRA-LIGAND FREE ENERGY PREDICTED BY IDOCK:   -1.04 KCAL/MOL
REMARK 927      BINDING AFFINITY PREDICTED BY RF-SCORE:    0.00 PKD
ROOT
HETATM    1  C   UNL     1      -5.651  18.163  64.672  1.00  0.00     0.124 C  
HETATM    2  C   UNL     1      -6.202  19.328  65.501  1.00  0.00    -0.232 C  
HETATM    3  C   UNL     1      -7.030  20.343  64.712  1.00  0.00    -0.066 C  
ENDROOT
BRANCH   2   4
HETATM    4  N   UNL     1      -6.835  18.931  66.765  1.00  0.00    -0.195 NA 
HETATM    5  C   UNL     1      -7.847  17.995  66.962  1.00  0.00    -0.218 A  
HETATM    6  C   UNL     1      -6.022  20.242  70.620  1.00  0.00    -0.348 A  
HETATM    7  C   UNL     1      -8.030  17.848  68.347  1.00  0.00    -0.300 A  
HETATM    8  C   UNL     1      -5.385  20.927  69.598  1.00  0.00    -0.410 A  
HETATM    9  C   UNL     1      -6.478  19.504  67.979  1.00  0.00    -0.230 A  
HETATM   10  C   UNL     1      -7.163  18.814  68.985  1.00  0.00    -0.309 A  
HETATM   11  C   UNL     1      -6.891  19.183  70.327  1.00  0.00     0.362 A  
HETATM   12  C   UNL     1      -5.593  20.561  68.270  1.00  0.00    -0.303 A  
BRANCH   5  13
HETATM   13  C   UNL     1      -8.433  17.346  65.839  1.00  0.00     0.015 C  
HETATM   14  C   UNL     1      -9.614  16.711  65.915  1.00  0.00    -0.248 C  
BRANCH  14  15
HETATM   15  C   UNL     1     -10.293  16.061  64.742  1.00  0.00     0.268 C  
HETATM   16  H   UNL     1     -11.737  16.554  63.575  1.00  0.00     0.000 HD 
HETATM   17  O   UNL     1     -11.309  16.965  64.316  1.00  0.00    -1.202 OA 
BRANCH  15  18
HETATM   18  C   UNL     1     -10.888  14.695  65.117  1.00  0.00    -0.414 C  
BRANCH  18  19
HETATM   19  C   UNL     1     -12.180  14.356  64.351  1.00  0.00    -0.458 C  
HETATM   20  O   UNL     1     -13.228  14.017  65.273  1.00  0.00    -0.782 OA 
HETATM   21  H   UNL     1     -14.025  13.808  64.801  1.00  0.00     0.000 HD 
BRANCH  19  22
HETATM   22  C   UNL     1     -12.002  13.195  63.374  1.00  0.00    -0.552 C  
HETATM   23  C   UNL     1     -11.255  12.002  63.926  1.00  0.00    -0.417 C  
HETATM   24  O   UNL     1     -11.511  11.720  65.222  1.00  0.00    -0.284 OA 
HETATM   25  O   UNL     1     -10.541  11.291  63.234  1.00  0.00    -0.356 OA 
ENDBRANCH  19  22
ENDBRANCH  18  19
ENDBRANCH  15  18
ENDBRANCH  14  15
ENDBRANCH   5  13
BRANCH   7  26
HETATM   26  C   UNL     1      -9.004  16.921  68.963  1.00  0.00    -0.167 A  
HETATM   27  C   UNL     1     -11.244  16.485  69.856  1.00  0.00    -0.159 A  
HETATM   28  C   UNL     1      -9.665  14.677  69.689  1.00  0.00     0.206 A  
HETATM   29  C   UNL     1     -10.929  15.145  70.011  1.00  0.00    -0.271 A  
HETATM   30  C   UNL     1     -10.292  17.361  69.317  1.00  0.00    -0.212 A  
HETATM   31  C   UNL     1      -8.702  15.567  69.198  1.00  0.00    -0.247 A  
HETATM   32  F   UNL     1     -11.855  14.294  70.470  1.00  0.00    -0.319 F  
ENDBRANCH   7  26
ENDBRANCH   2   4
TORSDOF 7
ENDMDL
MODEL      120
REMARK 921   NORMALIZED FREE ENERGY PREDICTED BY IDOCK:   -5.01 KCAL/MOL
REMARK 922        TOTAL FREE ENERGY PREDICTED BY IDOCK:   -8.76 KCAL/MOL
REMARK 923 INTER-LIGAND FREE ENERGY PREDICTED BY IDOCK:   -7.48 KCAL/MOL
REMARK 924 INTRA-LIGAND FREE ENERGY PREDICTED BY IDOCK:   -1.29 KCAL/MOL
REMARK 927      BINDING AFFINITY PREDICTED BY RF-SCORE:    0.00 PKD
ROOT
HETATM    1  C   UNL     1      -6.978   9.813  66.435  1.00  0.00    -0.093 C  
HETATM    2  C   UNL     1      -8.370   9.369  65.973  1.00  0.00    -0.119 C  
HETATM    3  C   UNL     1      -8.623   7.863  66.048  1.00  0.00    -0.166 C  
ENDROOT
BRANCH   2   4
HETATM    4  N   UNL     1      -9.476  10.164  66.524  1.00  0.00    -0.164 NA 
HETATM    5  C   UNL     1      -9.855  10.302  67.856  1.00  0.00    -0.157 A  
HETATM    6  C   UNL     1     -12.190  12.597  64.534  1.00  0.00    -0.514 A  
HETATM    7  C   UNL     1     -10.873  11.268  67.915  1.00  0.00    -0.278 A  
HETATM    8  C   UNL     1     -11.363  11.826  63.733  1.00  0.00    -0.524 A  
HETATM    9  C   UNL     1     -10.333  10.896  65.711  1.00  0.00    -0.241 A  
HETATM   10  C   UNL     1     -11.175  11.635  66.549  1.00  0.00    -0.356 A  
HETATM   11  C   UNL     1     -12.092  12.522  65.929  1.00  0.00    -0.420 A  
HETATM   12  C   UNL     1     -10.418  10.978  64.307  1.00  0.00    -0.427 A  
BRANCH   5  13
HETATM   13  C   UNL     1      -9.169   9.563  68.862  1.00  0.00    -0.145 C  
HETATM   14  C   UNL     1      -9.683   8.447  69.406  1.00  0.00    -0.177 C  
BRANCH  14  15
HETATM   15  C   UNL     1      -8.968   7.609  70.429  1.00  0.00    -0.152 C  
HETATM   16  H   UNL     1      -8.553   7.816  72.293  1.00  0.00     0.000 HD 
HETATM   17  O   UNL     1      -9.005   8.346  71.647  1.00  0.00    -0.160 OA 
BRANCH  15  18
HETATM   18  C   UNL     1      -7.523   7.308  70.005  1.00  0.00    -0.085 C  
BRANCH  18  19
HETATM   19  C   UNL     1      -6.659   6.724  71.138  1.00  0.00    -0.053 C  
HETATM   20  O   UNL     1      -5.276   6.703  70.746  1.00  0.00    -0.018 OA 
HETATM   21  H   UNL     1      -4.743   6.342  71.445  1.00  0.00     0.000 HD 
BRANCH  19  22
HETATM   22  C   UNL     1      -7.073   5.307  71.529  1.00  0.00    -0.067 C  
HETATM   23  C   UNL     1      -7.193   5.062  73.016  1.00  0.00    -0.086 C  
HETATM   24  O   UNL     1      -7.692   6.097  73.725  1.00  0.00    -0.095 OA 
HETATM   25  O   UNL     1      -6.942   3.982  73.530  1.00  0.00    -0.054 OA 
ENDBRANCH  19  22
ENDBRANCH  18  19
ENDBRANCH  15  18
ENDBRANCH  14  15
ENDBRANCH   5  13
BRANCH   7  26
HETATM   26  C   UNL     1     -11.524  11.716  69.165  1.00  0.00    -0.364 A  
HETATM   27  C   UNL     1     -12.275  13.529  70.631  1.00  0.00    -0.434 A  
HETATM   28  C   UNL     1     -12.792  11.251  71.208  1.00  0.00    -0.491 A  
HETATM   29  C   UNL     1     -12.879  12.608  71.472  1.00  0.00    -0.268 A  
HETATM   30  C   UNL     1     -11.620  13.084  69.477  1.00  0.00    -0.342 A  
HETATM   31  C   UNL     1     -12.093  10.809  70.079  1.00  0.00    -0.423 A  
HETATM   32  F   UNL     1     -13.557  13.034  72.546  1.00  0.00    -0.607 F  
ENDBRANCH   7  26
ENDBRANCH   2   4
TORSDOF 7
ENDMDL
MODEL      121
REMARK 921   NORMALIZED FREE ENERGY PREDICTED BY IDOCK:   -4.98 KCAL/MOL
REMARK 922        TOTAL FREE ENERGY PREDICTED BY IDOCK:   -8.72 KCAL/MOL
REMARK 923 INTER-LIGAND FREE ENERGY PREDICTED BY IDOCK:   -7.08 KCAL/MOL
REMARK 924 INTRA-LIGAND FREE ENERGY PREDICTED BY IDOCK:   -1.65 KCAL/MOL
REMARK 927      BINDING AFFINITY PREDICTED BY RF-SCORE:    0.00 PKD
ROOT
HETATM    1  C   UNL     1      -6.716   9.977  63.245  1.00  0.00    -0.133 C  
HETATM    2  C   UNL     1      -8.169   9.838  63.710  1.00  0.00    -0.162 C  
HETATM    3  C   UNL     1      -9.211   9.898  62.592  1.00  0.00    -0.297 C  
ENDROOT
BRANCH   2   4
HETATM    4  N   UNL     1      -8.404   8.736  64.653  1.00  0.00    -0.165 NA 
HETATM    5  C   UNL     1      -8.819   8.814  65.979  1.00  0.00    -0.175 A  
HETATM    6  C   UNL     1      -8.077   4.645  64.023  1.00  0.00    -0.104 A  
HETATM    7  C   UNL     1      -9.044   7.504  66.435  1.00  0.00    -0.210 A  
HETATM    8  C   UNL     1      -7.617   5.456  62.998  1.00  0.00    -0.068 A  
HETATM    9  C   UNL     1      -8.203   7.408  64.298  1.00  0.00     0.020 A  
HETATM   10  C   UNL     1      -8.644   6.618  65.365  1.00  0.00    -0.065 A  
HETATM   11  C   UNL     1      -8.602   5.211  65.191  1.00  0.00    -0.150 A  
HETATM   12  C   UNL     1      -7.685   6.843  63.115  1.00  0.00    -0.107 A  
BRANCH   5  13
HETATM   13  C   UNL     1      -9.000  10.089  66.586  1.00  0.00    -0.156 C  
HETATM   14  C   UNL     1     -10.213  10.649  66.727  1.00  0.00    -0.284 C  
BRANCH  14  15
HETATM   15  C   UNL     1     -10.452  11.967  67.411  1.00  0.00    -0.217 C  
HETATM   16  H   UNL     1      -9.591  12.925  68.836  1.00  0.00     0.000 HD 
HETATM   17  O   UNL     1      -9.439  12.092  68.404  1.00  0.00    -0.208 OA 
BRANCH  15  18
HETATM   18  C   UNL     1     -11.854  12.033  68.036  1.00  0.00    -0.338 C  
BRANCH  18  19
HETATM   19  C   UNL     1     -11.928  11.417  69.445  1.00  0.00    -0.339 C  
HETATM   20  O   UNL     1     -12.991  10.452  69.508  1.00  0.00    -0.563 OA 
HETATM   21  H   UNL     1     -13.037  10.072  70.377  1.00  0.00     0.000 HD 
BRANCH  19  22
HETATM   22  C   UNL     1     -12.157  12.460  70.537  1.00  0.00    -0.363 C  
HETATM   23  C   UNL     1     -13.005  11.995  71.699  1.00  0.00    -0.334 C  
HETATM   24  O   UNL     1     -12.813  10.710  72.066  1.00  0.00    -0.422 OA 
HETATM   25  O   UNL     1     -13.746  12.745  72.319  1.00  0.00    -0.527 OA 
ENDBRANCH  19  22
ENDBRANCH  18  19
ENDBRANCH  15  18
ENDBRANCH  14  15
ENDBRANCH   5  13
BRANCH   7  26
HETATM   26  C   UNL     1      -9.521   7.167  67.795  1.00  0.00    -0.136 A  
HETATM   27  C   UNL     1     -11.284   6.330  69.274  1.00  0.00    -0.458 A  
HETATM   28  C   UNL     1      -9.123   6.856  70.191  1.00  0.00    -0.152 A  
HETATM   29  C   UNL     1     -10.416   6.386  70.353  1.00  0.00    -0.218 A  
HETATM   30  C   UNL     1     -10.831   6.700  68.002  1.00  0.00    -0.345 A  
HETATM   31  C   UNL     1      -8.691   7.272  68.926  1.00  0.00    -0.128 A  
HETATM   32  F   UNL     1     -10.828   5.977  71.559  1.00  0.00    -0.271 F  
ENDBRANCH   7  26
ENDBRANCH   2   4
TORSDOF 7
ENDMDL
MODEL      122
REMARK 921   NORMALIZED FREE ENERGY PREDICTED BY IDOCK:   -4.95 KCAL/MOL
REMARK 922        TOTAL FREE ENERGY PREDICTED BY IDOCK:   -8.69 KCAL/MOL
REMARK 923 INTER-LIGAND FREE ENERGY PREDICTED BY IDOCK:   -7.18 KCAL/MOL
REMARK 924 INTRA-LIGAND FREE ENERGY PREDICTED BY IDOCK:   -1.51 KCAL/MOL
REMARK 927      BINDING AFFINITY PREDICTED BY RF-SCORE:    0.00 PKD
ROOT
HETATM    1  C   UNL     1     -11.850   8.068  72.827  1.00  0.00    -0.303 C  
HETATM    2  C   UNL     1     -12.647   8.339  71.547  1.00  0.00    -0.309 C  
HETATM    3  C   UNL     1     -14.125   8.662  71.767  1.00  0.00    -0.499 C  
ENDROOT
BRANCH   2   4
HETATM    4  N   UNL     1     -11.994   9.258  70.606  1.00  0.00    -0.210 NA 
HETATM    5  C   UNL     1     -11.139   8.946  69.553  1.00  0.00    -0.001 A  
HETATM    6  C   UNL     1     -12.286  13.394  70.367  1.00  0.00    -0.415 A  
HETATM    7  C   UNL     1     -10.878  10.132  68.846  1.00  0.00    -0.256 A  
HETATM    8  C   UNL     1     -12.876  12.806  71.474  1.00  0.00    -0.369 A  
HETATM    9  C   UNL     1     -12.159  10.636  70.688  1.00  0.00    -0.365 A  
HETATM   10  C   UNL     1     -11.524  11.201  69.577  1.00  0.00    -0.374 A  
HETATM   11  C   UNL     1     -11.629  12.606  69.414  1.00  0.00    -0.369 A  
HETATM   12  C   UNL     1     -12.832  11.423  71.643  1.00  0.00    -0.497 A  
BRANCH   5  13
HETATM   13  C   UNL     1     -10.755   7.592  69.337  1.00  0.00    -0.188 C  
HETATM   14  C   UNL     1      -9.526   7.141  69.637  1.00  0.00    -0.152 C  
BRANCH  14  15
HETATM   15  C   UNL     1      -9.098   5.708  69.476  1.00  0.00    -0.125 C  
HETATM   16  H   UNL     1      -8.923   4.511  67.985  1.00  0.00     0.000 HD 
HETATM   17  O   UNL     1      -9.194   5.416  68.085  1.00  0.00    -0.108 OA 
BRANCH  15  18
HETATM   18  C   UNL     1      -9.975   4.759  70.306  1.00  0.00    -0.320 C  
BRANCH  18  19
HETATM   19  C   UNL     1      -9.167   3.773  71.170  1.00  0.00    -0.131 C  
HETATM   20  O   UNL     1     -10.024   2.733  71.668  1.00  0.00    -0.163 OA 
HETATM   21  H   UNL     1      -9.525   2.125  72.201  1.00  0.00     0.000 HD 
BRANCH  19  22
HETATM   22  C   UNL     1      -8.485   4.449  72.359  1.00  0.00    -0.109 C  
HETATM   23  C   UNL     1      -9.402   5.260  73.247  1.00  0.00    -0.138 C  
HETATM   24  O   UNL     1     -10.634   4.736  73.423  1.00  0.00    -0.185 OA 
HETATM   25  O   UNL     1      -9.033   6.267  73.833  1.00  0.00    -0.126 OA 
ENDBRANCH  19  22
ENDBRANCH  18  19
ENDBRANCH  15  18
ENDBRANCH  14  15
ENDBRANCH   5  13
BRANCH   7  26
HETATM   26  C   UNL     1     -10.028  10.211  67.639  1.00  0.00    -0.216 A  
HETATM   27  C   UNL     1      -9.517   9.485  65.356  1.00  0.00    -0.336 A  
HETATM   28  C   UNL     1      -8.221  11.250  66.352  1.00  0.00    -0.150 A  
HETATM   29  C   UNL     1      -8.511  10.434  65.271  1.00  0.00    -0.169 A  
HETATM   30  C   UNL     1     -10.281   9.390  66.525  1.00  0.00    -0.308 A  
HETATM   31  C   UNL     1      -8.955  11.116  67.537  1.00  0.00    -0.139 A  
HETATM   32  F   UNL     1      -7.818  10.568  64.133  1.00  0.00    -0.153 F  
ENDBRANCH   7  26
ENDBRANCH   2   4
TORSDOF 7
ENDMDL
MODEL      123
REMARK 921   NORMALIZED FREE ENERGY PREDICTED BY IDOCK:   -4.89 KCAL/MOL
REMARK 922        TOTAL FREE ENERGY PREDICTED BY IDOCK:   -8.59 KCAL/MOL
REMARK 923 INTER-LIGAND FREE ENERGY PREDICTED BY IDOCK:   -6.72 KCAL/MOL
REMARK 924 INTRA-LIGAND FREE ENERGY PREDICTED BY IDOCK:   -1.88 KCAL/MOL
REMARK 927      BINDING AFFINITY PREDICTED BY RF-SCORE:    0.00 PKD
ROOT
HETATM    1  C   UNL     1      -9.590  13.746  68.453  1.00  0.00    -0.206 C  
HETATM    2  C   UNL     1     -10.648  12.638  68.460  1.00  0.00    -0.243 C  
HETATM    3  C   UNL     1     -12.091  13.128  68.333  1.00  0.00    -0.216 C  
ENDROOT
BRANCH   2   4
HETATM    4  N   UNL     1     -10.348  11.505  67.575  1.00  0.00    -0.190 NA 
HETATM    5  C   UNL     1     -10.112  10.179  67.927  1.00  0.00    -0.176 A  
HETATM    6  C   UNL     1     -10.068  11.427  63.432  1.00  0.00    -0.444 A  
HETATM    7  C   UNL     1     -10.012   9.432  66.741  1.00  0.00    -0.305 A  
HETATM    8  C   UNL     1     -10.187  12.680  64.010  1.00  0.00    -0.363 A  
HETATM    9  C   UNL     1     -10.243  11.654  66.198  1.00  0.00    -0.226 A  
HETATM   10  C   UNL     1     -10.089  10.376  65.648  1.00  0.00    -0.337 A  
HETATM   11  C   UNL     1     -10.036  10.279  64.235  1.00  0.00    -0.191 A  
HETATM   12  C   UNL     1     -10.289  12.811  65.394  1.00  0.00    -0.310 A  
BRANCH   5  13
HETATM   13  C   UNL     1     -10.080   9.812  69.302  1.00  0.00    -0.207 C  
HETATM   14  C   UNL     1     -11.159   9.327  69.939  1.00  0.00    -0.200 C  
BRANCH  14  15
HETATM   15  C   UNL     1     -11.153   8.876  71.373  1.00  0.00    -0.306 C  
HETATM   16  H   UNL     1     -12.000   9.489  72.985  1.00  0.00     0.000 HD 
HETATM   17  O   UNL     1     -12.004   9.775  72.078  1.00  0.00    -0.297 OA 
BRANCH  15  18
HETATM   18  C   UNL     1      -9.734   8.877  71.961  1.00  0.00    -0.304 C  
BRANCH  18  19
HETATM   19  C   UNL     1      -9.102   7.475  72.044  1.00  0.00    -0.129 C  
HETATM   20  O   UNL     1      -8.083   7.450  73.056  1.00  0.00    -0.098 OA 
HETATM   21  H   UNL     1      -7.693   6.585  73.107  1.00  0.00     0.000 HD 
BRANCH  19  22
HETATM   22  C   UNL     1      -8.482   7.026  70.722  1.00  0.00    -0.135 C  
HETATM   23  C   UNL     1      -7.210   7.745  70.334  1.00  0.00    -0.058 C  
HETATM   24  O   UNL     1      -6.388   8.043  71.364  1.00  0.00    -0.034 OA 
HETATM   25  O   UNL     1      -6.902   7.965  69.172  1.00  0.00    -0.050 OA 
ENDBRANCH  19  22
ENDBRANCH  18  19
ENDBRANCH  15  18
ENDBRANCH  14  15
ENDBRANCH   5  13
BRANCH   7  26
HETATM   26  C   UNL     1      -9.787   7.971  66.696  1.00  0.00    -0.322 A  
HETATM   27  C   UNL     1     -10.603   5.689  67.057  1.00  0.00    -0.358 A  
HETATM   28  C   UNL     1      -8.439   6.027  66.061  1.00  0.00    -0.139 A  
HETATM   29  C   UNL     1      -9.445   5.178  66.494  1.00  0.00    -0.148 A  
HETATM   30  C   UNL     1     -10.779   7.076  67.138  1.00  0.00    -0.433 A  
HETATM   31  C   UNL     1      -8.599   7.412  66.191  1.00  0.00    -0.154 A  
HETATM   32  F   UNL     1      -9.299   3.854  66.361  1.00  0.00    -0.139 F  
ENDBRANCH   7  26
ENDBRANCH   2   4
TORSDOF 7
ENDMDL
MODEL      124
REMARK 921   NORMALIZED FREE ENERGY PREDICTED BY IDOCK:   -4.88 KCAL/MOL
REMARK 922        TOTAL FREE ENERGY PREDICTED BY IDOCK:   -8.58 KCAL/MOL
REMARK 923 INTER-LIGAND FREE ENERGY PREDICTED BY IDOCK:   -7.16 KCAL/MOL
REMARK 924 INTRA-LIGAND FREE ENERGY PREDICTED BY IDOCK:   -1.42 KCAL/MOL
REMARK 927      BINDING AFFINITY PREDICTED BY RF-SCORE:    0.00 PKD
ROOT
HETATM    1  C   UNL     1      -9.461   3.630  67.802  1.00  0.00    -0.231 C  
HETATM    2  C   UNL     1      -8.743   3.909  69.126  1.00  0.00    -0.085 C  
HETATM    3  C   UNL     1      -7.333   4.485  68.984  1.00  0.00    -0.056 C  
ENDROOT
BRANCH   2   4
HETATM    4  N   UNL     1      -9.555   4.622  70.121  1.00  0.00    -0.176 NA 
HETATM    5  C   UNL     1     -10.075   5.910  70.043  1.00  0.00    -0.198 A  
HETATM    6  C   UNL     1     -10.929   3.292  73.807  1.00  0.00    -0.310 A  
HETATM    7  C   UNL     1     -10.899   6.109  71.162  1.00  0.00    -0.328 A  
HETATM    8  C   UNL     1     -10.030   2.462  73.159  1.00  0.00    -0.182 A  
HETATM    9  C   UNL     1      -9.896   4.048  71.340  1.00  0.00    -0.179 A  
HETATM   10  C   UNL     1     -10.775   4.925  71.984  1.00  0.00    -0.161 A  
HETATM   11  C   UNL     1     -11.317   4.506  73.226  1.00  0.00    -0.364 A  
HETATM   12  C   UNL     1      -9.513   2.820  71.915  1.00  0.00    -0.200 A  
BRANCH   5  13
HETATM   13  C   UNL     1      -9.773   6.722  68.913  1.00  0.00    -0.137 C  
HETATM   14  C   UNL     1     -10.713   7.099  68.030  1.00  0.00    -0.232 C  
BRANCH  14  15
HETATM   15  C   UNL     1     -10.447   8.000  66.856  1.00  0.00    -0.317 C  
HETATM   16  H   UNL     1      -8.950   8.290  65.689  1.00  0.00     0.000 HD 
HETATM   17  O   UNL     1      -9.117   7.720  66.430  1.00  0.00    -0.160 OA 
BRANCH  15  18
HETATM   18  C   UNL     1     -10.610   9.481  67.232  1.00  0.00    -0.317 C  
BRANCH  18  19
HETATM   19  C   UNL     1      -9.857   9.875  68.516  1.00  0.00    -0.156 C  
HETATM   20  O   UNL     1     -10.353  11.129  69.015  1.00  0.00    -0.210 OA 
HETATM   21  H   UNL     1      -9.888  11.372  69.807  1.00  0.00     0.000 HD 
BRANCH  19  22
HETATM   22  C   UNL     1      -8.350  10.001  68.305  1.00  0.00    -0.110 C  
HETATM   23  C   UNL     1      -7.556  10.349  69.544  1.00  0.00    -0.156 C  
HETATM   24  O   UNL     1      -8.002   9.779  70.684  1.00  0.00    -0.272 OA 
HETATM   25  O   UNL     1      -6.537  11.024  69.509  1.00  0.00    -0.089 OA 
ENDBRANCH  19  22
ENDBRANCH  18  19
ENDBRANCH  15  18
ENDBRANCH  14  15
ENDBRANCH   5  13
BRANCH   7  26
HETATM   26  C   UNL     1     -11.656   7.352  71.428  1.00  0.00    -0.303 A  
HETATM   27  C   UNL     1     -11.690   9.769  71.823  1.00  0.00    -0.275 A  
HETATM   28  C   UNL     1     -13.769   8.575  71.627  1.00  0.00    -0.411 A  
HETATM   29  C   UNL     1     -13.075   9.761  71.797  1.00  0.00    -0.431 A  
HETATM   30  C   UNL     1     -10.988   8.574  71.620  1.00  0.00    -0.362 A  
HETATM   31  C   UNL     1     -13.062   7.376  71.474  1.00  0.00    -0.424 A  
HETATM   32  F   UNL     1     -13.748  10.911  71.932  1.00  0.00    -0.335 F  
ENDBRANCH   7  26
ENDBRANCH   2   4
TORSDOF 7
ENDMDL
MODEL      125
REMARK 921   NORMALIZED FREE ENERGY PREDICTED BY IDOCK:   -4.86 KCAL/MOL
REMARK 922        TOTAL FREE ENERGY PREDICTED BY IDOCK:   -8.55 KCAL/MOL
REMARK 923 INTER-LIGAND FREE ENERGY PREDICTED BY IDOCK:   -6.55 KCAL/MOL
REMARK 924 INTRA-LIGAND FREE ENERGY PREDICTED BY IDOCK:   -2.00 KCAL/MOL
REMARK 927      BINDING AFFINITY PREDICTED BY RF-SCORE:    0.00 PKD
ROOT
HETATM    1  C   UNL     1     -13.379   7.113  71.323  1.00  0.00    -0.321 C  
HETATM    2  C   UNL     1     -11.923   7.209  71.790  1.00  0.00    -0.313 C  
HETATM    3  C   UNL     1     -11.404   5.979  72.536  1.00  0.00    -0.344 C  
ENDROOT
BRANCH   2   4
HETATM    4  N   UNL     1     -10.986   7.695  70.768  1.00  0.00    -0.247 NA 
HETATM    5  C   UNL     1     -10.589   9.006  70.520  1.00  0.00    -0.227 A  
HETATM    6  C   UNL     1      -8.821   5.527  67.965  1.00  0.00    -0.105 A  
HETATM    7  C   UNL     1      -9.579   8.971  69.546  1.00  0.00    -0.165 A  
HETATM    8  C   UNL     1      -9.766   4.815  68.686  1.00  0.00    -0.223 A  
HETATM    9  C   UNL     1     -10.372   6.837  69.865  1.00  0.00    -0.203 A  
HETATM   10  C   UNL     1      -9.451   7.591  69.130  1.00  0.00    -0.150 A  
HETATM   11  C   UNL     1      -8.646   6.899  68.190  1.00  0.00    -0.123 A  
HETATM   12  C   UNL     1     -10.542   5.454  69.651  1.00  0.00    -0.328 A  
BRANCH   5  13
HETATM   13  C   UNL     1     -11.167  10.069  71.271  1.00  0.00    -0.270 C  
HETATM   14  C   UNL     1     -12.011  10.958  70.721  1.00  0.00    -0.449 C  
BRANCH  14  15
HETATM   15  C   UNL     1     -12.684  12.060  71.490  1.00  0.00    -0.255 C  
HETATM   16  H   UNL     1     -14.205  12.157  72.660  1.00  0.00     0.000 HD 
HETATM   17  O   UNL     1     -13.780  11.459  72.175  1.00  0.00    -0.176 OA 
BRANCH  15  18
HETATM   18  C   UNL     1     -13.160  13.188  70.562  1.00  0.00     0.241 C  
BRANCH  18  19
HETATM   19  C   UNL     1     -12.136  14.327  70.405  1.00  0.00    -0.339 C  
HETATM   20  O   UNL     1     -12.807  15.557  70.083  1.00  0.00    -0.617 OA 
HETATM   21  H   UNL     1     -12.175  16.259  69.986  1.00  0.00     0.000 HD 
BRANCH  19  22
HETATM   22  C   UNL     1     -11.099  14.045  69.319  1.00  0.00    -0.271 C  
HETATM   23  C   UNL     1     -10.319  15.253  68.849  1.00  0.00    -0.243 C  
HETATM   24  O   UNL     1     -10.014  16.145  69.815  1.00  0.00    -0.230 OA 
HETATM   25  O   UNL     1      -9.918  15.374  67.700  1.00  0.00    -0.224 OA 
ENDBRANCH  19  22
ENDBRANCH  18  19
ENDBRANCH  15  18
ENDBRANCH  14  15
ENDBRANCH   5  13
BRANCH   7  26
HETATM   26  C   UNL     1      -8.878  10.168  69.030  1.00  0.00    -0.166 A  
HETATM   27  C   UNL     1      -6.961  11.691  69.091  1.00  0.00    -0.105 A  
HETATM   28  C   UNL     1      -8.652  11.986  67.405  1.00  0.00    -0.171 A  
HETATM   29  C   UNL     1      -7.450  12.362  67.982  1.00  0.00    -0.114 A  
HETATM   30  C   UNL     1      -7.663  10.590  69.598  1.00  0.00    -0.119 A  
HETATM   31  C   UNL     1      -9.374  10.916  67.947  1.00  0.00    -0.159 A  
HETATM   32  F   UNL     1      -6.752  13.378  67.459  1.00  0.00    -0.135 F  
ENDBRANCH   7  26
ENDBRANCH   2   4
TORSDOF 7
ENDMDL
MODEL      126
REMARK 921   NORMALIZED FREE ENERGY PREDICTED BY IDOCK:   -4.85 KCAL/MOL
REMARK 922        TOTAL FREE ENERGY PREDICTED BY IDOCK:   -8.54 KCAL/MOL
REMARK 923 INTER-LIGAND FREE ENERGY PREDICTED BY IDOCK:   -7.24 KCAL/MOL
REMARK 924 INTRA-LIGAND FREE ENERGY PREDICTED BY IDOCK:   -1.30 KCAL/MOL
REMARK 927      BINDING AFFINITY PREDICTED BY RF-SCORE:    0.00 PKD
ROOT
HETATM    1  C   UNL     1     -12.014  14.746  72.746  1.00  0.00    -0.244 C  
HETATM    2  C   UNL     1     -13.075  13.922  72.008  1.00  0.00    -0.393 C  
HETATM    3  C   UNL     1     -14.241  14.734  71.443  1.00  0.00    -0.514 C  
ENDROOT
BRANCH   2   4
HETATM    4  N   UNL     1     -12.533  12.953  71.047  1.00  0.00    -0.348 NA 
HETATM    5  C   UNL     1     -11.870  13.208  69.850  1.00  0.00    -0.308 A  
HETATM    6  C   UNL     1     -12.524   8.805  71.245  1.00  0.00    -0.301 A  
HETATM    7  C   UNL     1     -11.414  11.980  69.342  1.00  0.00    -0.361 A  
HETATM    8  C   UNL     1     -13.268   9.457  72.214  1.00  0.00    -0.528 A  
HETATM    9  C   UNL     1     -12.653  11.582  71.238  1.00  0.00    -0.347 A  
HETATM   10  C   UNL     1     -11.921  10.952  70.226  1.00  0.00    -0.448 A  
HETATM   11  C   UNL     1     -11.840   9.537  70.266  1.00  0.00    -0.109 A  
HETATM   12  C   UNL     1     -13.332  10.850  72.232  1.00  0.00    -0.113 A  
BRANCH   5  13
HETATM   13  C   UNL     1     -11.714  14.551  69.405  1.00  0.00    -0.361 C  
HETATM   14  C   UNL     1     -10.512  15.072  69.108  1.00  0.00    -0.247 C  
BRANCH  14  15
HETATM   15  C   UNL     1     -10.309  16.466  68.583  1.00  0.00    -0.273 C  
HETATM   16  H   UNL     1     -11.462  17.969  68.262  1.00  0.00     0.000 HD 
HETATM   17  O   UNL     1     -11.591  17.088  68.594  1.00  0.00     0.103 OA 
BRANCH  15  18
HETATM   18  C   UNL     1      -9.708  16.456  67.169  1.00  0.00    -0.241 C  
BRANCH  18  19
HETATM   19  C   UNL     1      -8.367  17.207  67.067  1.00  0.00    -0.207 C  
HETATM   20  O   UNL     1      -7.457  16.483  66.223  1.00  0.00    -0.237 OA 
HETATM   21  H   UNL     1      -6.630  16.946  66.160  1.00  0.00     0.000 HD 
BRANCH  19  22
HETATM   22  C   UNL     1      -7.702  17.419  68.426  1.00  0.00    -0.258 C  
HETATM   23  C   UNL     1      -7.104  16.176  69.047  1.00  0.00    -0.187 C  
HETATM   24  O   UNL     1      -6.527  15.324  68.172  1.00  0.00    -0.104 OA 
HETATM   25  O   UNL     1      -7.065  15.995  70.255  1.00  0.00     0.322 OA 
ENDBRANCH  19  22
ENDBRANCH  18  19
ENDBRANCH  15  18
ENDBRANCH  14  15
ENDBRANCH   5  13
BRANCH   7  26
HETATM   26  C   UNL     1     -10.639  11.834  68.091  1.00  0.00    -0.230 A  
HETATM   27  C   UNL     1      -8.495  11.498  66.955  1.00  0.00    -0.165 A  
HETATM   28  C   UNL     1     -10.521  11.571  65.659  1.00  0.00    -0.317 A  
HETATM   29  C   UNL     1      -9.147  11.415  65.735  1.00  0.00    -0.184 A  
HETATM   30  C   UNL     1      -9.240  11.687  68.125  1.00  0.00    -0.184 A  
HETATM   31  C   UNL     1     -11.256  11.809  66.827  1.00  0.00    -0.388 A  
HETATM   32  F   UNL     1      -8.443  11.176  64.621  1.00  0.00    -0.071 F  
ENDBRANCH   7  26
ENDBRANCH   2   4
TORSDOF 7
ENDMDL
MODEL      127
REMARK 921   NORMALIZED FREE ENERGY PREDICTED BY IDOCK:   -4.83 KCAL/MOL
REMARK 922        TOTAL FREE ENERGY PREDICTED BY IDOCK:   -8.51 KCAL/MOL
REMARK 923 INTER-LIGAND FREE ENERGY PREDICTED BY IDOCK:   -7.78 KCAL/MOL
REMARK 924 INTRA-LIGAND FREE ENERGY PREDICTED BY IDOCK:   -0.73 KCAL/MOL
REMARK 927      BINDING AFFINITY PREDICTED BY RF-SCORE:    0.00 PKD
ROOT
HETATM    1  C   UNL     1      -7.719   9.715  66.092  1.00  0.00    -0.102 C  
HETATM    2  C   UNL     1      -7.107   9.455  67.472  1.00  0.00    -0.078 C  
HETATM    3  C   UNL     1      -6.362  10.644  68.079  1.00  0.00    -0.058 C  
ENDROOT
BRANCH   2   4
HETATM    4  N   UNL     1      -8.011   8.798  68.426  1.00  0.00    -0.108 NA 
HETATM    5  C   UNL     1      -9.126   9.335  69.062  1.00  0.00    -0.147 A  
HETATM    6  C   UNL     1      -7.934   4.892  69.833  1.00  0.00    -0.069 A  
HETATM    7  C   UNL     1      -9.757   8.299  69.769  1.00  0.00    -0.180 A  
HETATM    8  C   UNL     1      -6.844   5.286  69.075  1.00  0.00    -0.054 A  
HETATM    9  C   UNL     1      -7.821   7.484  68.835  1.00  0.00    -0.124 A  
HETATM   10  C   UNL     1      -8.919   7.129  69.626  1.00  0.00    -0.141 A  
HETATM   11  C   UNL     1      -8.974   5.792  70.097  1.00  0.00    -0.148 A  
HETATM   12  C   UNL     1      -6.778   6.578  68.556  1.00  0.00    -0.068 A  
BRANCH   5  13
HETATM   13  C   UNL     1      -9.459  10.705  68.860  1.00  0.00    -0.199 C  
HETATM   14  C   UNL     1     -10.323  11.099  67.909  1.00  0.00    -0.211 C  
BRANCH  14  15
HETATM   15  C   UNL     1     -10.743  12.527  67.699  1.00  0.00    -0.218 C  
HETATM   16  H   UNL     1     -11.453  13.906  68.832  1.00  0.00     0.000 HD 
HETATM   17  O   UNL     1     -11.188  13.004  68.965  1.00  0.00    -0.254 OA 
BRANCH  15  18
HETATM   18  C   UNL     1     -11.852  12.641  66.642  1.00  0.00    -0.449 C  
BRANCH  18  19
HETATM   19  C   UNL     1     -11.360  12.386  65.205  1.00  0.00    -0.332 C  
HETATM   20  O   UNL     1      -9.962  12.701  65.097  1.00  0.00    -0.383 OA 
HETATM   21  H   UNL     1      -9.659  12.544  64.211  1.00  0.00     0.000 HD 
BRANCH  19  22
HETATM   22  C   UNL     1     -12.121  13.206  64.164  1.00  0.00    -0.496 C  
HETATM   23  C   UNL     1     -12.039  14.705  64.344  1.00  0.00    -0.462 C  
HETATM   24  O   UNL     1     -10.844  15.162  64.775  1.00  0.00    -0.403 OA 
HETATM   25  O   UNL     1     -12.953  15.458  64.041  1.00  0.00    -0.443 OA 
ENDBRANCH  19  22
ENDBRANCH  18  19
ENDBRANCH  15  18
ENDBRANCH  14  15
ENDBRANCH   5  13
BRANCH   7  26
HETATM   26  C   UNL     1     -10.998   8.465  70.558  1.00  0.00    -0.258 A  
HETATM   27  C   UNL     1     -13.004   7.500  71.579  1.00  0.00    -0.400 A  
HETATM   28  C   UNL     1     -12.489   9.821  71.949  1.00  0.00    -0.451 A  
HETATM   29  C   UNL     1     -13.297   8.718  72.172  1.00  0.00    -0.423 A  
HETATM   30  C   UNL     1     -11.851   7.372  70.794  1.00  0.00    -0.288 A  
HETATM   31  C   UNL     1     -11.366   9.700  71.122  1.00  0.00    -0.456 A  
HETATM   32  F   UNL     1     -14.366   8.828  72.970  1.00  0.00    -0.374 F  
ENDBRANCH   7  26
ENDBRANCH   2   4
TORSDOF 7
ENDMDL
MODEL      128
REMARK 921   NORMALIZED FREE ENERGY PREDICTED BY IDOCK:   -4.83 KCAL/MOL
REMARK 922        TOTAL FREE ENERGY PREDICTED BY IDOCK:   -8.51 KCAL/MOL
REMARK 923 INTER-LIGAND FREE ENERGY PREDICTED BY IDOCK:   -6.35 KCAL/MOL
REMARK 924 INTRA-LIGAND FREE ENERGY PREDICTED BY IDOCK:   -2.16 KCAL/MOL
REMARK 927      BINDING AFFINITY PREDICTED BY RF-SCORE:    0.00 PKD
ROOT
HETATM    1  C   UNL     1     -11.207  13.572  66.860  1.00  0.00    -0.329 C  
HETATM    2  C   UNL     1     -10.100  12.948  67.716  1.00  0.00    -0.229 C  
HETATM    3  C   UNL     1      -9.175  13.955  68.402  1.00  0.00    -0.194 C  
ENDROOT
BRANCH   2   4
HETATM    4  N   UNL     1     -10.554  11.882  68.617  1.00  0.00    -0.230 NA 
HETATM    5  C   UNL     1     -10.160  10.547  68.637  1.00  0.00    -0.180 A  
HETATM    6  C   UNL     1     -13.253  12.096  71.766  1.00  0.00    -0.423 A  
HETATM    7  C   UNL     1     -10.752   9.942  69.758  1.00  0.00    -0.298 A  
HETATM    8  C   UNL     1     -13.152  13.228  70.974  1.00  0.00    -0.153 A  
HETATM    9  C   UNL     1     -11.508  12.107  69.602  1.00  0.00    -0.238 A  
HETATM   10  C   UNL     1     -11.611  10.936  70.361  1.00  0.00    -0.418 A  
HETATM   11  C   UNL     1     -12.482  10.963  71.481  1.00  0.00    -0.419 A  
HETATM   12  C   UNL     1     -12.273  13.254  69.893  1.00  0.00    -0.313 A  
BRANCH   5  13
HETATM   13  C   UNL     1      -9.252  10.068  67.651  1.00  0.00    -0.148 C  
HETATM   14  C   UNL     1      -9.631   9.219  66.681  1.00  0.00    -0.263 C  
BRANCH  14  15
HETATM   15  C   UNL     1      -8.718   8.733  65.589  1.00  0.00    -0.184 C  
HETATM   16  H   UNL     1      -8.526   9.120  63.718  1.00  0.00     0.000 HD 
HETATM   17  O   UNL     1      -9.103   9.427  64.407  1.00  0.00    -0.217 OA 
BRANCH  15  18
HETATM   18  C   UNL     1      -8.822   7.212  65.400  1.00  0.00     0.080 C  
BRANCH  18  19
HETATM   19  C   UNL     1      -8.495   6.410  66.673  1.00  0.00    -0.115 C  
HETATM   20  O   UNL     1      -7.170   5.861  66.586  1.00  0.00    -0.071 OA 
HETATM   21  H   UNL     1      -6.969   5.366  67.372  1.00  0.00     0.000 HD 
BRANCH  19  22
HETATM   22  C   UNL     1      -9.477   5.267  66.922  1.00  0.00    -0.138 C  
HETATM   23  C   UNL     1      -8.925   4.114  67.730  1.00  0.00    -0.121 C  
HETATM   24  O   UNL     1      -8.082   4.467  68.724  1.00  0.00    -0.076 OA 
HETATM   25  O   UNL     1      -9.280   2.956  67.558  1.00  0.00    -0.172 OA 
ENDBRANCH  19  22
ENDBRANCH  18  19
ENDBRANCH  15  18
ENDBRANCH  14  15
ENDBRANCH   5  13
BRANCH   7  26
HETATM   26  C   UNL     1     -10.554   8.527  70.140  1.00  0.00    -0.238 A  
HETATM   27  C   UNL     1      -9.534   6.851  71.609  1.00  0.00    -0.157 A  
HETATM   28  C   UNL     1     -11.103   6.149  69.925  1.00  0.00    -0.481 A  
HETATM   29  C   UNL     1     -10.261   5.851  70.983  1.00  0.00    -0.211 A  
HETATM   30  C   UNL     1      -9.697   8.181  71.201  1.00  0.00    -0.200 A  
HETATM   31  C   UNL     1     -11.223   7.474  69.488  1.00  0.00     0.027 A  
HETATM   32  F   UNL     1     -10.153   4.586  71.410  1.00  0.00    -0.238 F  
ENDBRANCH   7  26
ENDBRANCH   2   4
TORSDOF 7
ENDMDL
MODEL      129
REMARK 921   NORMALIZED FREE ENERGY PREDICTED BY IDOCK:   -4.81 KCAL/MOL
REMARK 922        TOTAL FREE ENERGY PREDICTED BY IDOCK:   -8.48 KCAL/MOL
REMARK 923 INTER-LIGAND FREE ENERGY PREDICTED BY IDOCK:   -6.69 KCAL/MOL
REMARK 924 INTRA-LIGAND FREE ENERGY PREDICTED BY IDOCK:   -1.78 KCAL/MOL
REMARK 927      BINDING AFFINITY PREDICTED BY RF-SCORE:    0.00 PKD
ROOT
HETATM    1  C   UNL     1      -9.988  10.155  66.075  1.00  0.00    -0.322 C  
HETATM    2  C   UNL     1     -10.910  11.146  66.792  1.00  0.00    -0.268 C  
HETATM    3  C   UNL     1     -11.332  10.727  68.201  1.00  0.00    -0.377 C  
ENDROOT
BRANCH   2   4
HETATM    4  N   UNL     1     -10.473  12.547  66.719  1.00  0.00    -0.225 NA 
HETATM    5  C   UNL     1      -9.500  13.185  67.482  1.00  0.00    -0.212 A  
HETATM    6  C   UNL     1     -11.759  15.552  64.158  1.00  0.00    -0.093 A  
HETATM    7  C   UNL     1      -9.328  14.479  66.963  1.00  0.00    -0.249 A  
HETATM    8  C   UNL     1     -12.480  14.370  64.117  1.00  0.00    -0.236 A  
HETATM    9  C   UNL     1     -11.041  13.449  65.828  1.00  0.00    -0.282 A  
HETATM   10  C   UNL     1     -10.314  14.641  65.917  1.00  0.00    -0.334 A  
HETATM   11  C   UNL     1     -10.674  15.690  65.034  1.00  0.00    -0.458 A  
HETATM   12  C   UNL     1     -12.125  13.302  64.939  1.00  0.00    -0.440 A  
BRANCH   5  13
HETATM   13  C   UNL     1      -8.847  12.472  68.527  1.00  0.00    -0.046 C  
HETATM   14  C   UNL     1      -7.691  11.816  68.332  1.00  0.00    -0.131 C  
BRANCH  14  15
HETATM   15  C   UNL     1      -6.941  11.098  69.419  1.00  0.00    -0.124 C  
HETATM   16  H   UNL     1      -5.083  10.851  69.841  1.00  0.00     0.000 HD 
HETATM   17  O   UNL     1      -5.557  11.305  69.154  1.00  0.00    -0.041 OA 
BRANCH  15  18
HETATM   18  C   UNL     1      -7.283   9.601  69.448  1.00  0.00    -0.071 C  
BRANCH  18  19
HETATM   19  C   UNL     1      -8.580   9.282  70.215  1.00  0.00    -0.210 C  
HETATM   20  O   UNL     1      -8.300   9.111  71.614  1.00  0.00    -0.339 OA 
HETATM   21  H   UNL     1      -9.100   8.915  72.086  1.00  0.00     0.000 HD 
BRANCH  19  22
HETATM   22  C   UNL     1      -9.275   8.021  69.704  1.00  0.00    -0.152 C  
HETATM   23  C   UNL     1     -10.457   7.563  70.529  1.00  0.00    -0.219 C  
HETATM   24  O   UNL     1     -11.217   8.557  71.035  1.00  0.00    -0.253 OA 
HETATM   25  O   UNL     1     -10.757   6.385  70.657  1.00  0.00    -0.230 OA 
ENDBRANCH  19  22
ENDBRANCH  18  19
ENDBRANCH  15  18
ENDBRANCH  14  15
ENDBRANCH   5  13
BRANCH   7  26
HETATM   26  C   UNL     1      -8.359  15.464  67.490  1.00  0.00    -0.190 A  
HETATM   27  C   UNL     1      -7.897  17.546  68.695  1.00  0.00    -0.272 A  
HETATM   28  C   UNL     1      -6.063  16.166  67.974  1.00  0.00    -0.131 A  
HETATM   29  C   UNL     1      -6.536  17.292  68.627  1.00  0.00    -0.186 A  
HETATM   30  C   UNL     1      -8.800  16.627  68.147  1.00  0.00    -0.206 A  
HETATM   31  C   UNL     1      -6.968  15.277  67.384  1.00  0.00    -0.212 A  
HETATM   32  F   UNL     1      -5.673  18.139  69.202  1.00  0.00    -0.185 F  
ENDBRANCH   7  26
ENDBRANCH   2   4
TORSDOF 7
ENDMDL
MODEL      130
REMARK 921   NORMALIZED FREE ENERGY PREDICTED BY IDOCK:   -4.78 KCAL/MOL
REMARK 922        TOTAL FREE ENERGY PREDICTED BY IDOCK:   -8.44 KCAL/MOL
REMARK 923 INTER-LIGAND FREE ENERGY PREDICTED BY IDOCK:   -7.21 KCAL/MOL
REMARK 924 INTRA-LIGAND FREE ENERGY PREDICTED BY IDOCK:   -1.23 KCAL/MOL
REMARK 927      BINDING AFFINITY PREDICTED BY RF-SCORE:    0.00 PKD
ROOT
HETATM    1  C   UNL     1      -8.646   9.331  70.704  1.00  0.00    -0.270 C  
HETATM    2  C   UNL     1      -7.521  10.013  69.918  1.00  0.00    -0.167 C  
HETATM    3  C   UNL     1      -6.369   9.092  69.515  1.00  0.00    -0.043 C  
ENDROOT
BRANCH   2   4
HETATM    4  N   UNL     1      -7.980  10.870  68.817  1.00  0.00    -0.132 NA 
HETATM    5  C   UNL     1      -8.963  10.600  67.870  1.00  0.00    -0.138 A  
HETATM    6  C   UNL     1      -6.743  14.701  67.798  1.00  0.00    -0.194 A  
HETATM    7  C   UNL     1      -9.157  11.764  67.108  1.00  0.00    -0.175 A  
HETATM    8  C   UNL     1      -6.003  14.065  68.782  1.00  0.00    -0.085 A  
HETATM    9  C   UNL     1      -7.427  12.122  68.579  1.00  0.00    -0.117 A  
HETATM   10  C   UNL     1      -8.173  12.723  67.560  1.00  0.00    -0.179 A  
HETATM   11  C   UNL     1      -7.830  14.051  67.199  1.00  0.00    -0.049 A  
HETATM   12  C   UNL     1      -6.341  12.777  69.193  1.00  0.00    -0.106 A  
BRANCH   5  13
HETATM   13  C   UNL     1      -9.606   9.329  67.866  1.00  0.00    -0.163 C  
HETATM   14  C   UNL     1      -9.649   8.552  66.771  1.00  0.00    -0.273 C  
BRANCH  14  15
HETATM   15  C   UNL     1     -10.268   7.182  66.740  1.00  0.00    -0.219 C  
HETATM   16  H   UNL     1     -11.004   6.003  68.066  1.00  0.00     0.000 HD 
HETATM   17  O   UNL     1     -10.613   6.868  68.086  1.00  0.00    -0.193 OA 
BRANCH  15  18
HETATM   18  C   UNL     1      -9.304   6.139  66.156  1.00  0.00    -0.128 C  
BRANCH  18  19
HETATM   19  C   UNL     1      -9.957   4.765  65.916  1.00  0.00    -0.228 C  
HETATM   20  O   UNL     1     -11.366   4.920  65.682  1.00  0.00    -0.897 OA 
HETATM   21  H   UNL     1     -11.769   4.073  65.534  1.00  0.00     0.000 HD 
BRANCH  19  22
HETATM   22  C   UNL     1      -9.765   3.805  67.089  1.00  0.00    -0.145 C  
HETATM   23  C   UNL     1      -8.932   2.580  66.784  1.00  0.00    -0.131 C  
HETATM   24  O   UNL     1      -7.893   2.792  65.948  1.00  0.00    -0.079 OA 
HETATM   25  O   UNL     1      -9.127   1.498  67.318  1.00  0.00    -0.120 OA 
ENDBRANCH  19  22
ENDBRANCH  18  19
ENDBRANCH  15  18
ENDBRANCH  14  15
ENDBRANCH   5  13
BRANCH   7  26
HETATM   26  C   UNL     1     -10.142  11.886  66.011  1.00  0.00    -0.261 A  
HETATM   27  C   UNL     1     -10.808  11.424  63.699  1.00  0.00    -0.459 A  
HETATM   28  C   UNL     1     -12.355  12.523  65.178  1.00  0.00    -0.496 A  
HETATM   29  C   UNL     1     -12.054  11.981  63.940  1.00  0.00    -0.457 A  
HETATM   30  C   UNL     1      -9.868  11.361  64.736  1.00  0.00    -0.302 A  
HETATM   31  C   UNL     1     -11.393  12.503  66.195  1.00  0.00    -0.388 A  
HETATM   32  F   UNL     1     -12.976  11.989  62.968  1.00  0.00    -0.618 F  
ENDBRANCH   7  26
ENDBRANCH   2   4
TORSDOF 7
ENDMDL
MODEL      131
REMARK 921   NORMALIZED FREE ENERGY PREDICTED BY IDOCK:   -4.74 KCAL/MOL
REMARK 922        TOTAL FREE ENERGY PREDICTED BY IDOCK:   -8.38 KCAL/MOL
REMARK 923 INTER-LIGAND FREE ENERGY PREDICTED BY IDOCK:   -6.92 KCAL/MOL
REMARK 924 INTRA-LIGAND FREE ENERGY PREDICTED BY IDOCK:   -1.46 KCAL/MOL
REMARK 927      BINDING AFFINITY PREDICTED BY RF-SCORE:    0.00 PKD
ROOT
HETATM    1  C   UNL     1      -5.845   6.665  67.553  1.00  0.00    -0.016 C  
HETATM    2  C   UNL     1      -5.885   7.831  68.546  1.00  0.00    -0.031 C  
HETATM    3  C   UNL     1      -5.773   9.219  67.913  1.00  0.00    -0.038 C  
ENDROOT
BRANCH   2   4
HETATM    4  N   UNL     1      -6.958   7.743  69.546  1.00  0.00    -0.057 NA 
HETATM    5  C   UNL     1      -8.270   8.193  69.440  1.00  0.00    -0.121 A  
HETATM    6  C   UNL     1      -6.866   6.042  73.333  1.00  0.00    -0.080 A  
HETATM    7  C   UNL     1      -8.964   7.765  70.584  1.00  0.00    -0.145 A  
HETATM    8  C   UNL     1      -5.647   6.138  72.680  1.00  0.00    -0.036 A  
HETATM    9  C   UNL     1      -6.752   7.179  70.799  1.00  0.00    -0.052 A  
HETATM   10  C   UNL     1      -7.992   7.128  71.445  1.00  0.00    -0.102 A  
HETATM   11  C   UNL     1      -8.034   6.514  72.722  1.00  0.00    -0.102 A  
HETATM   12  C   UNL     1      -5.575   6.693  71.404  1.00  0.00    -0.028 A  
BRANCH   5  13
HETATM   13  C   UNL     1      -8.682   8.890  68.268  1.00  0.00    -0.134 C  
HETATM   14  C   UNL     1      -9.703   8.466  67.505  1.00  0.00    -0.209 C  
BRANCH  14  15
HETATM   15  C   UNL     1     -10.204   9.201  66.293  1.00  0.00    -0.187 C  
HETATM   16  H   UNL     1      -9.450   9.670  64.590  1.00  0.00     0.000 HD 
HETATM   17  O   UNL     1      -9.132   9.205  65.355  1.00  0.00    -0.207 OA 
BRANCH  15  18
HETATM   18  C   UNL     1     -10.643  10.632  66.641  1.00  0.00    -0.276 C  
BRANCH  18  19
HETATM   19  C   UNL     1     -10.722  11.564  65.418  1.00  0.00    -0.278 C  
HETATM   20  O   UNL     1      -9.466  12.236  65.225  1.00  0.00    -0.434 OA 
HETATM   21  H   UNL     1      -9.515  12.811  64.471  1.00  0.00     0.000 HD 
BRANCH  19  22
HETATM   22  C   UNL     1     -11.819  12.619  65.547  1.00  0.00    -0.479 C  
HETATM   23  C   UNL     1     -12.054  13.455  64.309  1.00  0.00    -0.424 C  
HETATM   24  O   UNL     1     -11.936  12.787  63.141  1.00  0.00    -0.504 OA 
HETATM   25  O   UNL     1     -12.408  14.624  64.357  1.00  0.00    -0.553 OA 
ENDBRANCH  19  22
ENDBRANCH  18  19
ENDBRANCH  15  18
ENDBRANCH  14  15
ENDBRANCH   5  13
BRANCH   7  26
HETATM   26  C   UNL     1     -10.399   8.025  70.832  1.00  0.00    -0.221 A  
HETATM   27  C   UNL     1     -12.673   7.188  71.191  1.00  0.00    -0.363 A  
HETATM   28  C   UNL     1     -12.242   9.549  71.360  1.00  0.00    -0.455 A  
HETATM   29  C   UNL     1     -13.116   8.477  71.441  1.00  0.00    -0.230 A  
HETATM   30  C   UNL     1     -11.320   6.965  70.908  1.00  0.00    -0.348 A  
HETATM   31  C   UNL     1     -10.901   9.325  71.027  1.00  0.00    -0.385 A  
HETATM   32  F   UNL     1     -14.396   8.687  71.770  1.00  0.00    -0.422 F  
ENDBRANCH   7  26
ENDBRANCH   2   4
TORSDOF 7
ENDMDL
MODEL      132
REMARK 921   NORMALIZED FREE ENERGY PREDICTED BY IDOCK:   -4.74 KCAL/MOL
REMARK 922        TOTAL FREE ENERGY PREDICTED BY IDOCK:   -8.38 KCAL/MOL
REMARK 923 INTER-LIGAND FREE ENERGY PREDICTED BY IDOCK:   -7.10 KCAL/MOL
REMARK 924 INTRA-LIGAND FREE ENERGY PREDICTED BY IDOCK:   -1.28 KCAL/MOL
REMARK 927      BINDING AFFINITY PREDICTED BY RF-SCORE:    0.00 PKD
ROOT
HETATM    1  C   UNL     1      -9.959  19.872  67.990  1.00  0.00    -0.556 C  
HETATM    2  C   UNL     1      -8.885  19.217  67.115  1.00  0.00    -0.288 C  
HETATM    3  C   UNL     1      -8.057  20.191  66.276  1.00  0.00    -0.268 C  
ENDROOT
BRANCH   2   4
HETATM    4  N   UNL     1      -8.063  18.215  67.808  1.00  0.00    -0.235 NA 
HETATM    5  C   UNL     1      -8.046  16.837  67.619  1.00  0.00    -0.177 A  
HETATM    6  C   UNL     1      -5.177  18.781  70.740  1.00  0.00    -0.255 A  
HETATM    7  C   UNL     1      -7.005  16.309  68.400  1.00  0.00    -0.135 A  
HETATM    8  C   UNL     1      -5.922  19.898  70.397  1.00  0.00    -0.358 A  
HETATM    9  C   UNL     1      -7.166  18.565  68.810  1.00  0.00    -0.296 A  
HETATM   10  C   UNL     1      -6.455  17.412  69.158  1.00  0.00    -0.239 A  
HETATM   11  C   UNL     1      -5.423  17.550  70.120  1.00  0.00    -0.243 A  
HETATM   12  C   UNL     1      -6.914  19.809  69.422  1.00  0.00    -0.336 A  
BRANCH   5  13
HETATM   13  C   UNL     1      -8.956  16.243  66.698  1.00  0.00    -0.283 C  
HETATM   14  C   UNL     1      -9.380  14.975  66.829  1.00  0.00    -0.271 C  
BRANCH  14  15
HETATM   15  C   UNL     1     -10.382  14.328  65.913  1.00  0.00    -0.314 C  
HETATM   16  H   UNL     1     -11.178  14.805  64.231  1.00  0.00     0.000 HD 
HETATM   17  O   UNL     1     -10.546  15.214  64.810  1.00  0.00    -0.398 OA 
BRANCH  15  18
HETATM   18  C   UNL     1     -11.719  14.074  66.625  1.00  0.00    -0.420 C  
BRANCH  18  19
HETATM   19  C   UNL     1     -11.584  13.930  68.152  1.00  0.00    -0.335 C  
HETATM   20  O   UNL     1     -11.960  12.604  68.560  1.00  0.00    -0.305 OA 
HETATM   21  H   UNL     1     -11.877  12.515  69.502  1.00  0.00     0.000 HD 
BRANCH  19  22
HETATM   22  C   UNL     1     -12.442  14.933  68.921  1.00  0.00     0.105 C  
HETATM   23  C   UNL     1     -11.800  15.504  70.165  1.00  0.00    -0.356 C  
HETATM   24  O   UNL     1     -10.473  15.733  70.067  1.00  0.00    -0.295 OA 
HETATM   25  O   UNL     1     -12.443  15.818  71.156  1.00  0.00    -0.423 OA 
ENDBRANCH  19  22
ENDBRANCH  18  19
ENDBRANCH  15  18
ENDBRANCH  14  15
ENDBRANCH   5  13
BRANCH   7  26
HETATM   26  C   UNL     1      -6.648  14.875  68.450  1.00  0.00    -0.103 A  
HETATM   27  C   UNL     1      -7.232  12.564  69.019  1.00  0.00     0.002 A  
HETATM   28  C   UNL     1      -5.154  13.015  67.892  1.00  0.00    -0.106 A  
HETATM   29  C   UNL     1      -6.057  12.117  68.436  1.00  0.00    -0.051 A  
HETATM   30  C   UNL     1      -7.531  13.933  69.007  1.00  0.00    -0.032 A  
HETATM   31  C   UNL     1      -5.436  14.386  67.928  1.00  0.00    -0.088 A  
HETATM   32  F   UNL     1      -5.795  10.804  68.394  1.00  0.00    -0.044 F  
ENDBRANCH   7  26
ENDBRANCH   2   4
TORSDOF 7
ENDMDL
MODEL      133
REMARK 921   NORMALIZED FREE ENERGY PREDICTED BY IDOCK:   -4.73 KCAL/MOL
REMARK 922        TOTAL FREE ENERGY PREDICTED BY IDOCK:   -8.37 KCAL/MOL
REMARK 923 INTER-LIGAND FREE ENERGY PREDICTED BY IDOCK:   -6.46 KCAL/MOL
REMARK 924 INTRA-LIGAND FREE ENERGY PREDICTED BY IDOCK:   -1.91 KCAL/MOL
REMARK 927      BINDING AFFINITY PREDICTED BY RF-SCORE:    0.00 PKD
ROOT
HETATM    1  C   UNL     1      -9.600   9.541  70.363  1.00  0.00    -0.326 C  
HETATM    2  C   UNL     1      -8.500   8.923  69.494  1.00  0.00    -0.128 C  
HETATM    3  C   UNL     1      -7.111   8.901  70.133  1.00  0.00    -0.048 C  
ENDROOT
BRANCH   2   4
HETATM    4  N   UNL     1      -8.863   7.643  68.870  1.00  0.00    -0.135 NA 
HETATM    5  C   UNL     1      -8.949   7.342  67.514  1.00  0.00    -0.126 A  
HETATM    6  C   UNL     1      -9.811   4.030  70.683  1.00  0.00    -0.229 A  
HETATM    7  C   UNL     1      -9.191   5.964  67.396  1.00  0.00    -0.108 A  
HETATM    8  C   UNL     1      -9.684   5.119  71.529  1.00  0.00    -0.221 A  
HETATM    9  C   UNL     1      -9.203   6.527  69.624  1.00  0.00    -0.143 A  
HETATM   10  C   UNL     1      -9.357   5.455  68.739  1.00  0.00    -0.159 A  
HETATM   11  C   UNL     1      -9.634   4.183  69.302  1.00  0.00    -0.256 A  
HETATM   12  C   UNL     1      -9.367   6.375  71.016  1.00  0.00    -0.171 A  
BRANCH   5  13
HETATM   13  C   UNL     1      -8.731   8.368  66.551  1.00  0.00    -0.151 C  
HETATM   14  C   UNL     1      -9.736   9.104  66.049  1.00  0.00    -0.358 C  
BRANCH  14  15
HETATM   15  C   UNL     1      -9.543  10.232  65.074  1.00  0.00    -0.285 C  
HETATM   16  H   UNL     1      -8.058  10.889  64.047  1.00  0.00     0.000 HD 
HETATM   17  O   UNL     1      -8.180  10.176  64.663  1.00  0.00    -0.155 OA 
BRANCH  15  18
HETATM   18  C   UNL     1      -9.878  11.591  65.706  1.00  0.00    -0.266 C  
BRANCH  18  19
HETATM   19  C   UNL     1     -10.968  11.512  66.790  1.00  0.00    -0.294 C  
HETATM   20  O   UNL     1     -12.207  12.041  66.288  1.00  0.00    -0.548 OA 
HETATM   21  H   UNL     1     -12.879  11.992  66.957  1.00  0.00     0.000 HD 
BRANCH  19  22
HETATM   22  C   UNL     1     -10.597  12.275  68.061  1.00  0.00    -0.235 C  
HETATM   23  C   UNL     1     -11.692  12.359  69.100  1.00  0.00    -0.322 C  
HETATM   24  O   UNL     1     -12.455  11.250  69.215  1.00  0.00    -0.331 OA 
HETATM   25  O   UNL     1     -11.826  13.320  69.844  1.00  0.00    -0.312 OA 
ENDBRANCH  19  22
ENDBRANCH  18  19
ENDBRANCH  15  18
ENDBRANCH  14  15
ENDBRANCH   5  13
BRANCH   7  26
HETATM   26  C   UNL     1      -9.321   5.250  66.107  1.00  0.00    -0.164 A  
HETATM   27  C   UNL     1     -10.653   3.897  64.558  1.00  0.00    -0.201 A  
HETATM   28  C   UNL     1      -8.479   4.673  63.880  1.00  0.00    -0.126 A  
HETATM   29  C   UNL     1      -9.654   3.995  63.603  1.00  0.00    -0.156 A  
HETATM   30  C   UNL     1     -10.493   4.538  65.793  1.00  0.00    -0.268 A  
HETATM   31  C   UNL     1      -8.303   5.269  65.135  1.00  0.00    -0.145 A  
HETATM   32  F   UNL     1      -9.829   3.433  62.400  1.00  0.00    -0.095 F  
ENDBRANCH   7  26
ENDBRANCH   2   4
TORSDOF 7
ENDMDL
MODEL      134
REMARK 921   NORMALIZED FREE ENERGY PREDICTED BY IDOCK:   -4.72 KCAL/MOL
REMARK 922        TOTAL FREE ENERGY PREDICTED BY IDOCK:   -8.36 KCAL/MOL
REMARK 923 INTER-LIGAND FREE ENERGY PREDICTED BY IDOCK:   -8.04 KCAL/MOL
REMARK 924 INTRA-LIGAND FREE ENERGY PREDICTED BY IDOCK:   -0.32 KCAL/MOL
REMARK 927      BINDING AFFINITY PREDICTED BY RF-SCORE:    0.00 PKD
ROOT
HETATM    1  C   UNL     1     -10.126  11.117  64.828  1.00  0.00    -0.351 C  
HETATM    2  C   UNL     1     -11.023  12.197  65.440  1.00  0.00    -0.302 C  
HETATM    3  C   UNL     1     -12.310  12.480  64.663  1.00  0.00    -0.547 C  
ENDROOT
BRANCH   2   4
HETATM    4  N   UNL     1     -11.246  12.057  66.885  1.00  0.00    -0.301 NA 
HETATM    5  C   UNL     1     -11.251  10.891  67.645  1.00  0.00    -0.309 A  
HETATM    6  C   UNL     1     -11.938  15.012  69.720  1.00  0.00    -0.366 A  
HETATM    7  C   UNL     1     -11.364  11.260  68.996  1.00  0.00    -0.344 A  
HETATM    8  C   UNL     1     -11.942  15.425  68.398  1.00  0.00    -0.156 A  
HETATM    9  C   UNL     1     -11.514  13.152  67.698  1.00  0.00    -0.324 A  
HETATM   10  C   UNL     1     -11.537  12.696  69.020  1.00  0.00    -0.367 A  
HETATM   11  C   UNL     1     -11.721  13.665  70.039  1.00  0.00    -0.319 A  
HETATM   12  C   UNL     1     -11.719  14.508  67.373  1.00  0.00    -0.425 A  
BRANCH   5  13
HETATM   13  C   UNL     1     -11.087   9.632  67.001  1.00  0.00     0.153 C  
HETATM   14  C   UNL     1     -10.090   8.790  67.318  1.00  0.00    -0.301 C  
BRANCH  14  15
HETATM   15  C   UNL     1      -9.914   7.429  66.703  1.00  0.00    -0.191 C  
HETATM   16  H   UNL     1      -9.580   5.668  67.393  1.00  0.00     0.000 HD 
HETATM   17  O   UNL     1      -9.691   6.527  67.782  1.00  0.00    -0.121 OA 
BRANCH  15  18
HETATM   18  C   UNL     1      -8.744   7.405  65.708  1.00  0.00    -0.132 C  
BRANCH  18  19
HETATM   19  C   UNL     1      -7.401   7.831  66.329  1.00  0.00    -0.079 C  
HETATM   20  O   UNL     1      -7.113   7.027  67.486  1.00  0.00    -0.079 OA 
HETATM   21  H   UNL     1      -6.285   7.290  67.869  1.00  0.00     0.000 HD 
BRANCH  19  22
HETATM   22  C   UNL     1      -7.379   9.301  66.745  1.00  0.00    -0.086 C  
HETATM   23  C   UNL     1      -6.577  10.210  65.841  1.00  0.00    -0.105 C  
HETATM   24  O   UNL     1      -6.650   9.914  64.526  1.00  0.00    -0.111 OA 
HETATM   25  O   UNL     1      -5.978  11.192  66.255  1.00  0.00    -0.137 OA 
ENDBRANCH  19  22
ENDBRANCH  18  19
ENDBRANCH  15  18
ENDBRANCH  14  15
ENDBRANCH   5  13
BRANCH   7  26
HETATM   26  C   UNL     1     -11.379  10.300  70.121  1.00  0.00    -0.388 A  
HETATM   27  C   UNL     1     -10.178   8.818  71.658  1.00  0.00    -0.394 A  
HETATM   28  C   UNL     1     -12.546   9.142  71.937  1.00  0.00    -0.463 A  
HETATM   29  C   UNL     1     -11.353   8.573  72.351  1.00  0.00    -0.342 A  
HETATM   30  C   UNL     1     -10.191   9.691  70.563  1.00  0.00    -0.351 A  
HETATM   31  C   UNL     1     -12.561   9.974  70.811  1.00  0.00    -0.372 A  
HETATM   32  F   UNL     1     -11.333   7.786  73.434  1.00  0.00    -0.426 F  
ENDBRANCH   7  26
ENDBRANCH   2   4
TORSDOF 7
ENDMDL
MODEL      135
REMARK 921   NORMALIZED FREE ENERGY PREDICTED BY IDOCK:   -4.72 KCAL/MOL
REMARK 922        TOTAL FREE ENERGY PREDICTED BY IDOCK:   -8.35 KCAL/MOL
REMARK 923 INTER-LIGAND FREE ENERGY PREDICTED BY IDOCK:   -6.70 KCAL/MOL
REMARK 924 INTRA-LIGAND FREE ENERGY PREDICTED BY IDOCK:   -1.65 KCAL/MOL
REMARK 927      BINDING AFFINITY PREDICTED BY RF-SCORE:    0.00 PKD
ROOT
HETATM    1  C   UNL     1     -10.757   7.735  67.090  1.00  0.00    -0.337 C  
HETATM    2  C   UNL     1     -10.351   8.483  68.364  1.00  0.00    -0.202 C  
HETATM    3  C   UNL     1     -10.437   7.657  69.649  1.00  0.00    -0.235 C  
ENDROOT
BRANCH   2   4
HETATM    4  N   UNL     1      -9.097   9.240  68.253  1.00  0.00    -0.129 NA 
HETATM    5  C   UNL     1      -8.882  10.590  68.516  1.00  0.00    -0.144 A  
HETATM    6  C   UNL     1      -5.323   7.897  67.160  1.00  0.00    -0.032 A  
HETATM    7  C   UNL     1      -7.503  10.833  68.408  1.00  0.00    -0.095 A  
HETATM    8  C   UNL     1      -6.359   6.991  67.003  1.00  0.00    -0.048 A  
HETATM    9  C   UNL     1      -7.916   8.648  67.824  1.00  0.00    -0.107 A  
HETATM   10  C   UNL     1      -6.897   9.597  67.962  1.00  0.00    -0.073 A  
HETATM   11  C   UNL     1      -5.577   9.184  67.651  1.00  0.00    -0.038 A  
HETATM   12  C   UNL     1      -7.663   7.348  67.343  1.00  0.00    -0.114 A  
BRANCH   5  13
HETATM   13  C   UNL     1      -9.980  11.418  68.884  1.00  0.00    -0.146 C  
HETATM   14  C   UNL     1     -10.465  12.369  68.068  1.00  0.00    -0.227 C  
BRANCH  14  15
HETATM   15  C   UNL     1     -11.656  13.226  68.395  1.00  0.00    -0.337 C  
HETATM   16  H   UNL     1     -12.862  14.310  67.366  1.00  0.00     0.000 HD 
HETATM   17  O   UNL     1     -12.110  13.769  67.159  1.00  0.00    -0.398 OA 
BRANCH  15  18
HETATM   18  C   UNL     1     -11.295  14.339  69.391  1.00  0.00    -0.325 C  
BRANCH  18  19
HETATM   19  C   UNL     1     -12.458  14.732  70.321  1.00  0.00    -0.340 C  
HETATM   20  O   UNL     1     -13.023  15.987  69.905  1.00  0.00    -0.585 OA 
HETATM   21  H   UNL     1     -13.740  16.229  70.478  1.00  0.00     0.000 HD 
BRANCH  19  22
HETATM   22  C   UNL     1     -12.033  14.855  71.783  1.00  0.00    -0.435 C  
HETATM   23  C   UNL     1     -12.907  15.751  72.631  1.00  0.00    -0.461 C  
HETATM   24  O   UNL     1     -14.226  15.694  72.346  1.00  0.00    -0.551 OA 
HETATM   25  O   UNL     1     -12.470  16.411  73.562  1.00  0.00    -0.484 OA 
ENDBRANCH  19  22
ENDBRANCH  18  19
ENDBRANCH  15  18
ENDBRANCH  14  15
ENDBRANCH   5  13
BRANCH   7  26
HETATM   26  C   UNL     1      -6.870  12.149  68.641  1.00  0.00    -0.089 A  
HETATM   27  C   UNL     1      -6.368  14.424  67.882  1.00  0.00    -0.173 A  
HETATM   28  C   UNL     1      -5.712  13.745  70.095  1.00  0.00    -0.133 A  
HETATM   29  C   UNL     1      -5.794  14.714  69.109  1.00  0.00    -0.099 A  
HETATM   30  C   UNL     1      -6.919  13.155  67.660  1.00  0.00    -0.156 A  
HETATM   31  C   UNL     1      -6.219  12.463  69.849  1.00  0.00    -0.102 A  
HETATM   32  F   UNL     1      -5.319  15.944  69.345  1.00  0.00    -0.107 F  
ENDBRANCH   7  26
ENDBRANCH   2   4
TORSDOF 7
ENDMDL
MODEL      136
REMARK 921   NORMALIZED FREE ENERGY PREDICTED BY IDOCK:   -4.70 KCAL/MOL
REMARK 922        TOTAL FREE ENERGY PREDICTED BY IDOCK:   -8.33 KCAL/MOL
REMARK 923 INTER-LIGAND FREE ENERGY PREDICTED BY IDOCK:   -6.86 KCAL/MOL
REMARK 924 INTRA-LIGAND FREE ENERGY PREDICTED BY IDOCK:   -1.47 KCAL/MOL
REMARK 927      BINDING AFFINITY PREDICTED BY RF-SCORE:    0.00 PKD
ROOT
HETATM    1  C   UNL     1      -8.806   5.382  67.426  1.00  0.00    -0.105 C  
HETATM    2  C   UNL     1      -9.680   6.593  67.082  1.00  0.00    -0.142 C  
HETATM    3  C   UNL     1     -11.172   6.289  66.940  1.00  0.00    -0.194 C  
ENDROOT
BRANCH   2   4
HETATM    4  N   UNL     1      -9.413   7.787  67.894  1.00  0.00    -0.143 NA 
HETATM    5  C   UNL     1      -8.817   8.981  67.497  1.00  0.00    -0.123 A  
HETATM    6  C   UNL     1     -10.304   8.481  71.890  1.00  0.00    -0.378 A  
HETATM    7  C   UNL     1      -8.903   9.881  68.573  1.00  0.00    -0.122 A  
HETATM    8  C   UNL     1     -10.512   7.188  71.437  1.00  0.00    -0.220 A  
HETATM    9  C   UNL     1      -9.734   7.845  69.245  1.00  0.00    -0.159 A  
HETATM   10  C   UNL     1      -9.480   9.150  69.680  1.00  0.00    -0.178 A  
HETATM   11  C   UNL     1      -9.809   9.463  71.024  1.00  0.00    -0.317 A  
HETATM   12  C   UNL     1     -10.244   6.857  70.110  1.00  0.00    -0.208 A  
BRANCH   5  13
HETATM   13  C   UNL     1      -8.323   9.112  66.169  1.00  0.00    -0.123 C  
HETATM   14  C   UNL     1      -9.051   9.667  65.186  1.00  0.00    -0.279 C  
BRANCH  14  15
HETATM   15  C   UNL     1      -8.547   9.875  63.784  1.00  0.00    -0.199 C  
HETATM   16  H   UNL     1      -7.160  10.942  62.993  1.00  0.00     0.000 HD 
HETATM   17  O   UNL     1      -7.478  10.811  63.879  1.00  0.00     0.133 OA 
BRANCH  15  18
HETATM   18  C   UNL     1      -9.656  10.390  62.855  1.00  0.00    -0.331 C  
BRANCH  18  19
HETATM   19  C   UNL     1     -10.383  11.635  63.396  1.00  0.00    -0.435 C  
HETATM   20  O   UNL     1      -9.434  12.675  63.686  1.00  0.00    -0.562 OA 
HETATM   21  H   UNL     1      -9.883  13.443  64.020  1.00  0.00     0.000 HD 
BRANCH  19  22
HETATM   22  C   UNL     1     -11.187  11.348  64.663  1.00  0.00    -0.220 C  
HETATM   23  C   UNL     1     -12.011  12.508  65.174  1.00  0.00    -0.434 C  
HETATM   24  O   UNL     1     -12.573  13.274  64.215  1.00  0.00    -0.617 OA 
HETATM   25  O   UNL     1     -12.229  12.690  66.364  1.00  0.00    -0.550 OA 
ENDBRANCH  19  22
ENDBRANCH  18  19
ENDBRANCH  15  18
ENDBRANCH  14  15
ENDBRANCH   5  13
BRANCH   7  26
HETATM   26  C   UNL     1      -8.402  11.272  68.535  1.00  0.00    -0.155 A  
HETATM   27  C   UNL     1      -6.591  12.883  68.895  1.00  0.00    -0.095 A  
HETATM   28  C   UNL     1      -8.661  13.629  67.922  1.00  0.00    -0.184 A  
HETATM   29  C   UNL     1      -7.369  13.890  68.346  1.00  0.00    -0.115 A  
HETATM   30  C   UNL     1      -7.100  11.580  68.970  1.00  0.00    -0.115 A  
HETATM   31  C   UNL     1      -9.182  12.335  68.045  1.00  0.00    -0.195 A  
HETATM   32  F   UNL     1      -6.864  15.124  68.219  1.00  0.00    -0.097 F  
ENDBRANCH   7  26
ENDBRANCH   2   4
TORSDOF 7
ENDMDL
MODEL      137
REMARK 921   NORMALIZED FREE ENERGY PREDICTED BY IDOCK:   -4.69 KCAL/MOL
REMARK 922        TOTAL FREE ENERGY PREDICTED BY IDOCK:   -8.31 KCAL/MOL
REMARK 923 INTER-LIGAND FREE ENERGY PREDICTED BY IDOCK:   -6.65 KCAL/MOL
REMARK 924 INTRA-LIGAND FREE ENERGY PREDICTED BY IDOCK:   -1.66 KCAL/MOL
REMARK 927      BINDING AFFINITY PREDICTED BY RF-SCORE:    0.00 PKD
ROOT
HETATM    1  C   UNL     1     -11.269   8.836  71.822  1.00  0.00    -0.410 C  
HETATM    2  C   UNL     1      -9.885   8.440  71.298  1.00  0.00    -0.198 C  
HETATM    3  C   UNL     1      -8.763   8.505  72.335  1.00  0.00    -0.242 C  
ENDROOT
BRANCH   2   4
HETATM    4  N   UNL     1      -9.864   7.201  70.509  1.00  0.00    -0.180 NA 
HETATM    5  C   UNL     1      -9.735   7.063  69.130  1.00  0.00    -0.156 A  
HETATM    6  C   UNL     1     -10.096   3.267  71.816  1.00  0.00    -0.125 A  
HETATM    7  C   UNL     1      -9.625   5.692  68.845  1.00  0.00    -0.168 A  
HETATM    8  C   UNL     1     -10.322   4.240  72.775  1.00  0.00    -0.243 A  
HETATM    9  C   UNL     1     -10.001   5.950  71.098  1.00  0.00    -0.189 A  
HETATM   10  C   UNL     1      -9.801   4.992  70.099  1.00  0.00    -0.303 A  
HETATM   11  C   UNL     1      -9.821   3.630  70.492  1.00  0.00    -0.111 A  
HETATM   12  C   UNL     1     -10.266   5.590  72.435  1.00  0.00    -0.238 A  
BRANCH   5  13
HETATM   13  C   UNL     1      -9.672   8.225  68.310  1.00  0.00    -0.173 C  
HETATM   14  C   UNL     1     -10.775   8.820  67.825  1.00  0.00    -0.193 C  
BRANCH  14  15
HETATM   15  C   UNL     1     -10.756  10.078  67.002  1.00  0.00    -0.178 C  
HETATM   16  H   UNL     1      -9.458  10.933  65.873  1.00  0.00     0.000 HD 
HETATM   17  O   UNL     1      -9.470  10.138  66.393  1.00  0.00    -0.164 OA 
BRANCH  15  18
HETATM   18  C   UNL     1     -11.020  11.322  67.864  1.00  0.00    -0.302 C  
BRANCH  18  19
HETATM   19  C   UNL     1     -11.603  12.506  67.071  1.00  0.00    -0.368 C  
HETATM   20  O   UNL     1     -11.778  12.141  65.692  1.00  0.00    -0.375 OA 
HETATM   21  H   UNL     1     -12.137  12.872  65.203  1.00  0.00     0.000 HD 
BRANCH  19  22
HETATM   22  C   UNL     1     -10.722  13.752  67.134  1.00  0.00    -0.283 C  
HETATM   23  C   UNL     1     -11.250  14.867  68.009  1.00  0.00    -0.308 C  
HETATM   24  O   UNL     1     -11.871  14.460  69.137  1.00  0.00    -0.291 OA 
HETATM   25  O   UNL     1     -11.056  16.049  67.763  1.00  0.00    -0.327 OA 
ENDBRANCH  19  22
ENDBRANCH  18  19
ENDBRANCH  15  18
ENDBRANCH  14  15
ENDBRANCH   5  13
BRANCH   7  26
HETATM   26  C   UNL     1      -9.447   5.137  67.486  1.00  0.00    -0.146 A  
HETATM   27  C   UNL     1      -8.029   4.050  65.810  1.00  0.00    -0.097 A  
HETATM   28  C   UNL     1     -10.348   4.454  65.312  1.00  0.00    -0.220 A  
HETATM   29  C   UNL     1      -9.111   3.946  64.951  1.00  0.00    -0.141 A  
HETATM   30  C   UNL     1      -8.203   4.624  67.075  1.00  0.00    -0.106 A  
HETATM   31  C   UNL     1     -10.504   5.072  66.559  1.00  0.00    -0.325 A  
HETATM   32  F   UNL     1      -8.961   3.345  63.764  1.00  0.00    -0.093 F  
ENDBRANCH   7  26
ENDBRANCH   2   4
TORSDOF 7
ENDMDL
MODEL      138
REMARK 921   NORMALIZED FREE ENERGY PREDICTED BY IDOCK:   -4.64 KCAL/MOL
REMARK 922        TOTAL FREE ENERGY PREDICTED BY IDOCK:   -8.24 KCAL/MOL
REMARK 923 INTER-LIGAND FREE ENERGY PREDICTED BY IDOCK:   -7.26 KCAL/MOL
REMARK 924 INTRA-LIGAND FREE ENERGY PREDICTED BY IDOCK:   -0.98 KCAL/MOL
REMARK 927      BINDING AFFINITY PREDICTED BY RF-SCORE:    0.00 PKD
ROOT
HETATM    1  C   UNL     1     -11.949   7.161  70.839  1.00  0.00    -0.375 C  
HETATM    2  C   UNL     1     -11.094   8.383  70.489  1.00  0.00    -0.252 C  
HETATM    3  C   UNL     1     -10.299   8.968  71.657  1.00  0.00    -0.420 C  
ENDROOT
BRANCH   2   4
HETATM    4  N   UNL     1     -10.292   8.234  69.267  1.00  0.00    -0.216 NA 
HETATM    5  C   UNL     1     -10.328   9.014  68.115  1.00  0.00    -0.214 A  
HETATM    6  C   UNL     1      -7.321   5.460  68.415  1.00  0.00    -0.072 A  
HETATM    7  C   UNL     1      -9.288   8.585  67.274  1.00  0.00    -0.184 A  
HETATM    8  C   UNL     1      -8.034   5.247  69.583  1.00  0.00    -0.084 A  
HETATM    9  C   UNL     1      -9.360   7.214  69.118  1.00  0.00    -0.141 A  
HETATM   10  C   UNL     1      -8.683   7.438  67.915  1.00  0.00    -0.123 A  
HETATM   11  C   UNL     1      -7.624   6.552  67.591  1.00  0.00    -0.105 A  
HETATM   12  C   UNL     1      -9.051   6.124  69.957  1.00  0.00    -0.151 A  
BRANCH   5  13
HETATM   13  C   UNL     1     -11.279  10.068  68.009  1.00  0.00    -0.190 C  
HETATM   14  C   UNL     1     -10.943  11.356  68.193  1.00  0.00    -0.284 C  
BRANCH  14  15
HETATM   15  C   UNL     1     -11.903  12.503  68.036  1.00  0.00    -0.325 C  
HETATM   16  H   UNL     1     -12.332  13.720  66.613  1.00  0.00     0.000 HD 
HETATM   17  O   UNL     1     -11.725  12.995  66.712  1.00  0.00    -0.344 OA 
BRANCH  15  18
HETATM   18  C   UNL     1     -11.646  13.602  69.078  1.00  0.00    -0.356 C  
BRANCH  18  19
HETATM   19  C   UNL     1     -10.694  14.706  68.583  1.00  0.00    -0.250 C  
HETATM   20  O   UNL     1      -9.486  14.705  69.362  1.00  0.00    -0.401 OA 
HETATM   21  H   UNL     1      -8.899  15.386  69.056  1.00  0.00     0.000 HD 
BRANCH  19  22
HETATM   22  C   UNL     1     -11.314  16.100  68.656  1.00  0.00    -0.365 C  
HETATM   23  C   UNL     1     -10.744  17.107  67.682  1.00  0.00    -0.302 C  
HETATM   24  O   UNL     1     -10.423  16.607  66.469  1.00  0.00    -0.302 OA 
HETATM   25  O   UNL     1     -10.659  18.299  67.937  1.00  0.00    -0.405 OA 
ENDBRANCH  19  22
ENDBRANCH  18  19
ENDBRANCH  15  18
ENDBRANCH  14  15
ENDBRANCH   5  13
BRANCH   7  26
HETATM   26  C   UNL     1      -8.980   9.187  65.959  1.00  0.00    -0.221 A  
HETATM   27  C   UNL     1      -9.703  10.434  63.978  1.00  0.00    -0.373 A  
HETATM   28  C   UNL     1      -7.383   9.841  64.220  1.00  0.00    -0.129 A  
HETATM   29  C   UNL     1      -8.398  10.464  63.512  1.00  0.00    -0.154 A  
HETATM   30  C   UNL     1      -9.985   9.816  65.202  1.00  0.00    -0.197 A  
HETATM   31  C   UNL     1      -7.680   9.182  65.419  1.00  0.00    -0.098 A  
HETATM   32  F   UNL     1      -8.115  11.105  62.371  1.00  0.00    -0.231 F  
ENDBRANCH   7  26
ENDBRANCH   2   4
TORSDOF 7
ENDMDL
MODEL      139
REMARK 921   NORMALIZED FREE ENERGY PREDICTED BY IDOCK:   -4.64 KCAL/MOL
REMARK 922        TOTAL FREE ENERGY PREDICTED BY IDOCK:   -8.24 KCAL/MOL
REMARK 923 INTER-LIGAND FREE ENERGY PREDICTED BY IDOCK:   -5.91 KCAL/MOL
REMARK 924 INTRA-LIGAND FREE ENERGY PREDICTED BY IDOCK:   -2.33 KCAL/MOL
REMARK 927      BINDING AFFINITY PREDICTED BY RF-SCORE:    0.00 PKD
ROOT
HETATM    1  C   UNL     1     -12.362   9.048  71.618  1.00  0.00    -0.416 C  
HETATM    2  C   UNL     1     -10.950   9.392  71.130  1.00  0.00    -0.360 C  
HETATM    3  C   UNL     1      -9.823   8.963  72.071  1.00  0.00    -0.325 C  
ENDROOT
BRANCH   2   4
HETATM    4  N   UNL     1     -10.689   9.044  69.727  1.00  0.00    -0.228 NA 
HETATM    5  C   UNL     1     -10.243   7.831  69.211  1.00  0.00    -0.211 A  
HETATM    6  C   UNL     1     -11.157  11.380  66.326  1.00  0.00    -0.281 A  
HETATM    7  C   UNL     1     -10.275   7.923  67.810  1.00  0.00    -0.276 A  
HETATM    8  C   UNL     1     -11.312  12.033  67.538  1.00  0.00    -0.387 A  
HETATM    9  C   UNL     1     -10.852   9.963  68.698  1.00  0.00    -0.209 A  
HETATM   10  C   UNL     1     -10.656   9.282  67.492  1.00  0.00    -0.329 A  
HETATM   11  C   UNL     1     -10.849  10.014  66.293  1.00  0.00     0.100 A  
HETATM   12  C   UNL     1     -11.175  11.335  68.736  1.00  0.00    -0.311 A  
BRANCH   5  13
HETATM   13  C   UNL     1      -9.921   6.765  70.099  1.00  0.00    -0.191 C  
HETATM   14  C   UNL     1     -10.772   5.754  70.343  1.00  0.00    -0.372 C  
BRANCH  14  15
HETATM   15  C   UNL     1     -10.449   4.583  71.229  1.00  0.00     0.062 C  
HETATM   16  H   UNL     1     -10.474   4.278  73.125  1.00  0.00     0.000 HD 
HETATM   17  O   UNL     1     -10.678   5.018  72.566  1.00  0.00    -0.210 OA 
BRANCH  15  18
HETATM   18  C   UNL     1      -9.000   4.112  71.038  1.00  0.00    -0.163 C  
BRANCH  18  19
HETATM   19  C   UNL     1      -8.807   3.198  69.814  1.00  0.00    -0.088 C  
HETATM   20  O   UNL     1      -8.078   2.017  70.187  1.00  0.00    -0.042 OA 
HETATM   21  H   UNL     1      -7.959   1.454  69.431  1.00  0.00     0.000 HD 
BRANCH  19  22
HETATM   22  C   UNL     1      -8.060   3.886  68.673  1.00  0.00    -0.079 C  
HETATM   23  C   UNL     1      -7.584   2.966  67.572  1.00  0.00    -0.065 C  
HETATM   24  O   UNL     1      -8.426   1.953  67.272  1.00  0.00    -0.075 OA 
HETATM   25  O   UNL     1      -6.559   3.168  66.938  1.00  0.00    -0.036 OA 
ENDBRANCH  19  22
ENDBRANCH  18  19
ENDBRANCH  15  18
ENDBRANCH  14  15
ENDBRANCH   5  13
BRANCH   7  26
HETATM   26  C   UNL     1      -9.897   6.824  66.895  1.00  0.00    -0.229 A  
HETATM   27  C   UNL     1     -10.415   4.676  65.836  1.00  0.00    -0.305 A  
HETATM   28  C   UNL     1      -8.418   5.858  65.199  1.00  0.00    -0.130 A  
HETATM   29  C   UNL     1      -9.273   4.777  65.057  1.00  0.00    -0.133 A  
HETATM   30  C   UNL     1     -10.732   5.703  66.734  1.00  0.00    -0.358 A  
HETATM   31  C   UNL     1      -8.714   6.857  66.134  1.00  0.00    -0.153 A  
HETATM   32  F   UNL     1      -8.998   3.826  64.156  1.00  0.00    -0.111 F  
ENDBRANCH   7  26
ENDBRANCH   2   4
TORSDOF 7
ENDMDL
MODEL      140
REMARK 921   NORMALIZED FREE ENERGY PREDICTED BY IDOCK:   -4.63 KCAL/MOL
REMARK 922        TOTAL FREE ENERGY PREDICTED BY IDOCK:   -8.23 KCAL/MOL
REMARK 923 INTER-LIGAND FREE ENERGY PREDICTED BY IDOCK:   -7.07 KCAL/MOL
REMARK 924 INTRA-LIGAND FREE ENERGY PREDICTED BY IDOCK:   -1.16 KCAL/MOL
REMARK 927      BINDING AFFINITY PREDICTED BY RF-SCORE:    0.00 PKD
ROOT
HETATM    1  C   UNL     1      -8.336   5.824  64.849  1.00  0.00    -0.127 C  
HETATM    2  C   UNL     1      -7.518   5.843  66.144  1.00  0.00    -0.085 C  
HETATM    3  C   UNL     1      -6.354   6.835  66.155  1.00  0.00    -0.049 C  
ENDROOT
BRANCH   2   4
HETATM    4  N   UNL     1      -8.323   5.891  67.372  1.00  0.00    -0.105 NA 
HETATM    5  C   UNL     1      -9.018   6.973  67.902  1.00  0.00    -0.122 A  
HETATM    6  C   UNL     1      -9.151   2.847  70.072  1.00  0.00    -0.193 A  
HETATM    7  C   UNL     1      -9.753   6.512  69.006  1.00  0.00    -0.140 A  
HETATM    8  C   UNL     1      -8.212   2.554  69.097  1.00  0.00    -0.071 A  
HETATM    9  C   UNL     1      -8.466   4.785  68.202  1.00  0.00    -0.101 A  
HETATM   10  C   UNL     1      -9.392   5.124  69.194  1.00  0.00    -0.171 A  
HETATM   11  C   UNL     1      -9.753   4.110  70.118  1.00  0.00    -0.278 A  
HETATM   12  C   UNL     1      -7.867   3.511  68.144  1.00  0.00    -0.067 A  
BRANCH   5  13
HETATM   13  C   UNL     1      -8.937   8.243  67.262  1.00  0.00    -0.149 C  
HETATM   14  C   UNL     1      -9.831   8.638  66.341  1.00  0.00    -0.341 C  
BRANCH  14  15
HETATM   15  C   UNL     1      -9.814   9.990  65.682  1.00  0.00    -0.295 C  
HETATM   16  H   UNL     1      -8.432  11.184  65.087  1.00  0.00     0.000 HD 
HETATM   17  O   UNL     1      -8.442  10.330  65.503  1.00  0.00    -0.149 OA 
BRANCH  15  18
HETATM   18  C   UNL     1     -10.541  11.043  66.533  1.00  0.00    -0.310 C  
BRANCH  18  19
HETATM   19  C   UNL     1     -10.704  12.399  65.823  1.00  0.00    -0.267 C  
HETATM   20  O   UNL     1     -10.036  12.377  64.551  1.00  0.00    -0.436 OA 
HETATM   21  H   UNL     1     -10.137  13.214  64.113  1.00  0.00     0.000 HD 
BRANCH  19  22
HETATM   22  C   UNL     1     -10.151  13.566  66.639  1.00  0.00    -0.277 C  
HETATM   23  C   UNL     1     -11.191  14.527  67.169  1.00  0.00    -0.333 C  
HETATM   24  O   UNL     1     -12.347  13.953  67.567  1.00  0.00    -0.292 OA 
HETATM   25  O   UNL     1     -10.976  15.722  67.309  1.00  0.00    -0.316 OA 
ENDBRANCH  19  22
ENDBRANCH  18  19
ENDBRANCH  15  18
ENDBRANCH  14  15
ENDBRANCH   5  13
BRANCH   7  26
HETATM   26  C   UNL     1     -10.645   7.361  69.826  1.00  0.00    -0.245 A  
HETATM   27  C   UNL     1     -12.601   7.593  71.282  1.00  0.00    -0.316 A  
HETATM   28  C   UNL     1     -11.191   9.501  70.884  1.00  0.00    -0.411 A  
HETATM   29  C   UNL     1     -12.285   8.923  71.506  1.00  0.00    -0.327 A  
HETATM   30  C   UNL     1     -11.774   6.815  70.463  1.00  0.00    -0.430 A  
HETATM   31  C   UNL     1     -10.397   8.732  70.026  1.00  0.00    -0.213 A  
HETATM   32  F   UNL     1     -13.041   9.654  72.336  1.00  0.00    -0.458 F  
ENDBRANCH   7  26
ENDBRANCH   2   4
TORSDOF 7
ENDMDL
MODEL      141
REMARK 921   NORMALIZED FREE ENERGY PREDICTED BY IDOCK:   -4.61 KCAL/MOL
REMARK 922        TOTAL FREE ENERGY PREDICTED BY IDOCK:   -8.20 KCAL/MOL
REMARK 923 INTER-LIGAND FREE ENERGY PREDICTED BY IDOCK:   -6.68 KCAL/MOL
REMARK 924 INTRA-LIGAND FREE ENERGY PREDICTED BY IDOCK:   -1.51 KCAL/MOL
REMARK 927      BINDING AFFINITY PREDICTED BY RF-SCORE:    0.00 PKD
ROOT
HETATM    1  C   UNL     1      -6.069   9.122  64.824  1.00  0.00    -0.066 C  
HETATM    2  C   UNL     1      -7.594   9.053  64.955  1.00  0.00    -0.107 C  
HETATM    3  C   UNL     1      -8.328   8.613  63.688  1.00  0.00    -0.115 C  
ENDROOT
BRANCH   2   4
HETATM    4  N   UNL     1      -8.071   8.365  66.161  1.00  0.00    -0.102 NA 
HETATM    5  C   UNL     1      -8.739   8.910  67.254  1.00  0.00    -0.121 A  
HETATM    6  C   UNL     1      -7.841   4.334  67.133  1.00  0.00    -0.096 A  
HETATM    7  C   UNL     1      -9.119   7.851  68.096  1.00  0.00    -0.133 A  
HETATM    8  C   UNL     1      -7.143   4.727  66.003  1.00  0.00    -0.075 A  
HETATM    9  C   UNL     1      -7.873   7.004  66.359  1.00  0.00    -0.106 A  
HETATM   10  C   UNL     1      -8.560   6.646  67.524  1.00  0.00    -0.120 A  
HETATM   11  C   UNL     1      -8.560   5.274  67.883  1.00  0.00    -0.103 A  
HETATM   12  C   UNL     1      -7.160   6.059  65.594  1.00  0.00    -0.073 A  
BRANCH   5  13
HETATM   13  C   UNL     1      -8.969  10.314  67.308  1.00  0.00    -0.140 C  
HETATM   14  C   UNL     1     -10.167  10.854  67.028  1.00  0.00    -0.256 C  
BRANCH  14  15
HETATM   15  C   UNL     1     -10.467  12.324  67.127  1.00  0.00    -0.219 C  
HETATM   16  H   UNL     1      -9.534  13.847  67.834  1.00  0.00     0.000 HD 
HETATM   17  O   UNL     1      -9.344  12.918  67.772  1.00  0.00    -0.188 OA 
BRANCH  15  18
HETATM   18  C   UNL     1     -11.761  12.586  67.911  1.00  0.00    -0.416 C  
BRANCH  18  19
HETATM   19  C   UNL     1     -11.520  13.138  69.328  1.00  0.00    -0.291 C  
HETATM   20  O   UNL     1     -11.775  12.118  70.308  1.00  0.00    -0.497 OA 
HETATM   21  H   UNL     1     -11.626  12.459  71.182  1.00  0.00     0.000 HD 
BRANCH  19  22
HETATM   22  C   UNL     1     -12.397  14.347  69.650  1.00  0.00    -0.300 C  
HETATM   23  C   UNL     1     -11.758  15.380  70.551  1.00  0.00    -0.325 C  
HETATM   24  O   UNL     1     -10.438  15.578  70.343  1.00  0.00    -0.313 OA 
HETATM   25  O   UNL     1     -12.399  16.049  71.348  1.00  0.00    -0.440 OA 
ENDBRANCH  19  22
ENDBRANCH  18  19
ENDBRANCH  15  18
ENDBRANCH  14  15
ENDBRANCH   5  13
BRANCH   7  26
HETATM   26  C   UNL     1      -9.876   8.021  69.355  1.00  0.00    -0.181 A  
HETATM   27  C   UNL     1     -11.713   7.351  70.830  1.00  0.00    -0.325 A  
HETATM   28  C   UNL     1     -10.151   9.023  71.573  1.00  0.00    -0.409 A  
HETATM   29  C   UNL     1     -11.258   8.223  71.805  1.00  0.00    -0.283 A  
HETATM   30  C   UNL     1     -11.013   7.238  69.622  1.00  0.00    -0.204 A  
HETATM   31  C   UNL     1      -9.485   8.943  70.345  1.00  0.00    -0.227 A  
HETATM   32  F   UNL     1     -11.891   8.290  72.984  1.00  0.00    -0.452 F  
ENDBRANCH   7  26
ENDBRANCH   2   4
TORSDOF 7
ENDMDL
MODEL      142
REMARK 921   NORMALIZED FREE ENERGY PREDICTED BY IDOCK:   -4.56 KCAL/MOL
REMARK 922        TOTAL FREE ENERGY PREDICTED BY IDOCK:   -8.14 KCAL/MOL
REMARK 923 INTER-LIGAND FREE ENERGY PREDICTED BY IDOCK:   -7.33 KCAL/MOL
REMARK 924 INTRA-LIGAND FREE ENERGY PREDICTED BY IDOCK:   -0.81 KCAL/MOL
REMARK 927      BINDING AFFINITY PREDICTED BY RF-SCORE:    0.00 PKD
ROOT
HETATM    1  C   UNL     1     -10.825  10.914  64.996  1.00  0.00    -0.142 C  
HETATM    2  C   UNL     1      -9.666   9.915  64.922  1.00  0.00    -0.262 C  
HETATM    3  C   UNL     1      -8.324  10.517  64.504  1.00  0.00    -0.108 C  
ENDROOT
BRANCH   2   4
HETATM    4  N   UNL     1      -9.556   9.023  66.084  1.00  0.00    -0.254 NA 
HETATM    5  C   UNL     1     -10.040   9.227  67.373  1.00  0.00    -0.223 A  
HETATM    6  C   UNL     1      -7.807   5.265  66.336  1.00  0.00    -0.103 A  
HETATM    7  C   UNL     1      -9.823   8.047  68.104  1.00  0.00    -0.195 A  
HETATM    8  C   UNL     1      -7.602   5.952  65.151  1.00  0.00    -0.088 A  
HETATM    9  C   UNL     1      -8.891   7.805  66.017  1.00  0.00    -0.157 A  
HETATM   10  C   UNL     1      -9.087   7.152  67.238  1.00  0.00    -0.130 A  
HETATM   11  C   UNL     1      -8.555   5.844  67.369  1.00  0.00    -0.106 A  
HETATM   12  C   UNL     1      -8.150   7.221  64.970  1.00  0.00    -0.120 A  
BRANCH   5  13
HETATM   13  C   UNL     1     -10.680  10.457  67.697  1.00  0.00    -0.335 C  
HETATM   14  C   UNL     1     -10.071  11.411  68.421  1.00  0.00    -0.207 C  
BRANCH  14  15
HETATM   15  C   UNL     1     -10.690  12.744  68.738  1.00  0.00    -0.214 C  
HETATM   16  H   UNL     1     -12.486  13.369  69.006  1.00  0.00     0.000 HD 
HETATM   17  O   UNL     1     -12.096  12.527  68.805  1.00  0.00    -0.268 OA 
BRANCH  15  18
HETATM   18  C   UNL     1     -10.341  13.797  67.675  1.00  0.00    -0.239 C  
BRANCH  18  19
HETATM   19  C   UNL     1     -11.495  14.771  67.373  1.00  0.00    -0.363 C  
HETATM   20  O   UNL     1     -12.170  14.379  66.167  1.00  0.00    -0.403 OA 
HETATM   21  H   UNL     1     -12.882  14.980  65.980  1.00  0.00     0.000 HD 
BRANCH  19  22
HETATM   22  C   UNL     1     -11.025  16.216  67.217  1.00  0.00    -0.175 C  
HETATM   23  C   UNL     1     -10.043  16.452  66.092  1.00  0.00    -0.346 C  
HETATM   24  O   UNL     1     -10.268  15.724  64.977  1.00  0.00    -0.456 OA 
HETATM   25  O   UNL     1      -9.163  17.299  66.149  1.00  0.00    -0.413 OA 
ENDBRANCH  19  22
ENDBRANCH  18  19
ENDBRANCH  15  18
ENDBRANCH  14  15
ENDBRANCH   5  13
BRANCH   7  26
HETATM   26  C   UNL     1     -10.224   7.857  69.515  1.00  0.00    -0.208 A  
HETATM   27  C   UNL     1     -11.544   6.667  71.201  1.00  0.00    -0.384 A  
HETATM   28  C   UNL     1      -9.968   8.344  71.902  1.00  0.00    -0.331 A  
HETATM   29  C   UNL     1     -10.910   7.376  72.208  1.00  0.00    -0.247 A  
HETATM   30  C   UNL     1     -11.187   6.894  69.866  1.00  0.00    -0.334 A  
HETATM   31  C   UNL     1      -9.652   8.602  70.563  1.00  0.00    -0.210 A  
HETATM   32  F   UNL     1     -11.206   7.119  73.489  1.00  0.00    -0.311 F  
ENDBRANCH   7  26
ENDBRANCH   2   4
TORSDOF 7
ENDMDL
MODEL      143
REMARK 921   NORMALIZED FREE ENERGY PREDICTED BY IDOCK:   -4.56 KCAL/MOL
REMARK 922        TOTAL FREE ENERGY PREDICTED BY IDOCK:   -8.13 KCAL/MOL
REMARK 923 INTER-LIGAND FREE ENERGY PREDICTED BY IDOCK:   -6.60 KCAL/MOL
REMARK 924 INTRA-LIGAND FREE ENERGY PREDICTED BY IDOCK:   -1.53 KCAL/MOL
REMARK 927      BINDING AFFINITY PREDICTED BY RF-SCORE:    0.00 PKD
ROOT
HETATM    1  C   UNL     1     -10.473   8.645  67.139  1.00  0.00    -0.360 C  
HETATM    2  C   UNL     1      -9.028   8.924  66.713  1.00  0.00    -0.130 C  
HETATM    3  C   UNL     1      -8.811   9.024  65.202  1.00  0.00    -0.224 C  
ENDROOT
BRANCH   2   4
HETATM    4  N   UNL     1      -8.371  10.007  67.458  1.00  0.00    -0.118 NA 
HETATM    5  C   UNL     1      -8.471  11.379  67.247  1.00  0.00    -0.148 A  
HETATM    6  C   UNL     1      -5.833   9.757  70.736  1.00  0.00    -0.080 A  
HETATM    7  C   UNL     1      -7.783  12.024  68.288  1.00  0.00    -0.127 A  
HETATM    8  C   UNL     1      -6.160   8.556  70.127  1.00  0.00    -0.034 A  
HETATM    9  C   UNL     1      -7.504   9.753  68.513  1.00  0.00    -0.079 A  
HETATM   10  C   UNL     1      -7.166  10.985  69.084  1.00  0.00    -0.121 A  
HETATM   11  C   UNL     1      -6.340  10.963  70.236  1.00  0.00    -0.135 A  
HETATM   12  C   UNL     1      -7.007   8.536  69.020  1.00  0.00    -0.064 A  
BRANCH   5  13
HETATM   13  C   UNL     1      -9.240  11.868  66.153  1.00  0.00    -0.204 C  
HETATM   14  C   UNL     1     -10.548  12.152  66.267  1.00  0.00    -0.285 C  
BRANCH  14  15
HETATM   15  C   UNL     1     -11.382  12.722  65.153  1.00  0.00    -0.311 C  
HETATM   16  H   UNL     1     -10.994  13.588  63.483  1.00  0.00     0.000 HD 
HETATM   17  O   UNL     1     -10.466  13.228  64.187  1.00  0.00    -0.414 OA 
BRANCH  15  18
HETATM   18  C   UNL     1     -12.323  13.825  65.659  1.00  0.00    -0.517 C  
BRANCH  18  19
HETATM   19  C   UNL     1     -11.804  15.249  65.384  1.00  0.00     0.082 C  
HETATM   20  O   UNL     1     -11.675  15.465  63.969  1.00  0.00    -0.831 OA 
HETATM   21  H   UNL     1     -11.355  16.343  63.800  1.00  0.00     0.000 HD 
BRANCH  19  22
HETATM   22  C   UNL     1     -10.453  15.524  66.040  1.00  0.00    -0.335 C  
HETATM   23  C   UNL     1      -9.855  16.878  65.732  1.00  0.00    -0.137 C  
HETATM   24  O   UNL     1     -10.747  17.888  65.648  1.00  0.00    -0.521 OA 
HETATM   25  O   UNL     1      -8.649  17.066  65.652  1.00  0.00    -0.456 OA 
ENDBRANCH  19  22
ENDBRANCH  18  19
ENDBRANCH  15  18
ENDBRANCH  14  15
ENDBRANCH   5  13
BRANCH   7  26
HETATM   26  C   UNL     1      -7.681  13.493  68.433  1.00  0.00    -0.135 A  
HETATM   27  C   UNL     1      -6.471  15.583  68.024  1.00  0.00    -0.148 A  
HETATM   28  C   UNL     1      -8.632  15.655  69.081  1.00  0.00    -0.251 A  
HETATM   29  C   UNL     1      -7.521  16.305  68.570  1.00  0.00    -0.176 A  
HETATM   30  C   UNL     1      -6.562  14.188  67.940  1.00  0.00    -0.174 A  
HETATM   31  C   UNL     1      -8.695  14.257  69.039  1.00  0.00     0.060 A  
HETATM   32  F   UNL     1      -7.462  17.643  68.598  1.00  0.00    -0.231 F  
ENDBRANCH   7  26
ENDBRANCH   2   4
TORSDOF 7
ENDMDL
MODEL      144
REMARK 921   NORMALIZED FREE ENERGY PREDICTED BY IDOCK:   -4.44 KCAL/MOL
REMARK 922        TOTAL FREE ENERGY PREDICTED BY IDOCK:   -7.97 KCAL/MOL
REMARK 923 INTER-LIGAND FREE ENERGY PREDICTED BY IDOCK:   -6.73 KCAL/MOL
REMARK 924 INTRA-LIGAND FREE ENERGY PREDICTED BY IDOCK:   -1.24 KCAL/MOL
REMARK 927      BINDING AFFINITY PREDICTED BY RF-SCORE:    0.00 PKD
ROOT
HETATM    1  C   UNL     1     -12.727  12.942  65.073  1.00  0.00    -0.474 C  
HETATM    2  C   UNL     1     -11.573  11.952  64.887  1.00  0.00    -0.226 C  
HETATM    3  C   UNL     1     -11.019  11.871  63.463  1.00  0.00    -0.505 C  
ENDROOT
BRANCH   2   4
HETATM    4  N   UNL     1     -10.519  12.045  65.906  1.00  0.00    -0.247 NA 
HETATM    5  C   UNL     1     -10.014  11.032  66.715  1.00  0.00    -0.203 A  
HETATM    6  C   UNL     1      -8.268  15.344  67.043  1.00  0.00    -0.270 A  
HETATM    7  C   UNL     1      -8.926  11.557  67.432  1.00  0.00    -0.156 A  
HETATM    8  C   UNL     1      -9.318  15.595  66.175  1.00  0.00    -0.382 A  
HETATM    9  C   UNL     1      -9.887  13.246  66.204  1.00  0.00    -0.280 A  
HETATM   10  C   UNL     1      -8.856  12.965  67.107  1.00  0.00    -0.210 A  
HETATM   11  C   UNL     1      -8.021  14.043  67.496  1.00  0.00    -0.199 A  
HETATM   12  C   UNL     1     -10.132  14.552  65.735  1.00  0.00    -0.365 A  
BRANCH   5  13
HETATM   13  C   UNL     1     -10.582   9.727  66.645  1.00  0.00    -0.178 C  
HETATM   14  C   UNL     1      -9.824   8.619  66.595  1.00  0.00    -0.336 C  
BRANCH  14  15
HETATM   15  C   UNL     1     -10.383   7.223  66.576  1.00  0.00    -0.034 C  
HETATM   16  H   UNL     1     -11.142   6.055  67.899  1.00  0.00     0.000 HD 
HETATM   17  O   UNL     1     -10.790   6.937  67.911  1.00  0.00    -0.231 OA 
BRANCH  15  18
HETATM   18  C   UNL     1      -9.344   6.205  66.082  1.00  0.00    -0.128 C  
BRANCH  18  19
HETATM   19  C   UNL     1      -9.946   4.827  65.747  1.00  0.00    -0.207 C  
HETATM   20  O   UNL     1     -11.376   4.924  65.637  1.00  0.00    -0.897 OA 
HETATM   21  H   UNL     1     -11.746   4.074  65.431  1.00  0.00     0.000 HD 
BRANCH  19  22
HETATM   22  C   UNL     1      -9.612   3.766  66.794  1.00  0.00    -0.205 C  
HETATM   23  C   UNL     1      -8.760   2.621  66.295  1.00  0.00    -0.125 C  
HETATM   24  O   UNL     1      -7.807   2.967  65.402  1.00  0.00    -0.080 OA 
HETATM   25  O   UNL     1      -8.862   1.482  66.729  1.00  0.00    -0.110 OA 
ENDBRANCH  19  22
ENDBRANCH  18  19
ENDBRANCH  15  18
ENDBRANCH  14  15
ENDBRANCH   5  13
BRANCH   7  26
HETATM   26  C   UNL     1      -8.104  10.779  68.384  1.00  0.00    -0.127 A  
HETATM   27  C   UNL     1      -5.914   9.964  69.118  1.00  0.00    -0.034 A  
HETATM   28  C   UNL     1      -7.856   9.506  70.462  1.00  0.00    -0.182 A  
HETATM   29  C   UNL     1      -6.489   9.419  70.255  1.00  0.00    -0.064 A  
HETATM   30  C   UNL     1      -6.715  10.655  68.201  1.00  0.00    -0.064 A  
HETATM   31  C   UNL     1      -8.659  10.155  69.516  1.00  0.00    -0.177 A  
HETATM   32  F   UNL     1      -5.718   8.809  71.163  1.00  0.00    -0.032 F  
ENDBRANCH   7  26
ENDBRANCH   2   4
TORSDOF 7
ENDMDL
MODEL      145
REMARK 921   NORMALIZED FREE ENERGY PREDICTED BY IDOCK:   -4.42 KCAL/MOL
REMARK 922        TOTAL FREE ENERGY PREDICTED BY IDOCK:   -7.94 KCAL/MOL
REMARK 923 INTER-LIGAND FREE ENERGY PREDICTED BY IDOCK:   -6.04 KCAL/MOL
REMARK 924 INTRA-LIGAND FREE ENERGY PREDICTED BY IDOCK:   -1.89 KCAL/MOL
REMARK 927      BINDING AFFINITY PREDICTED BY RF-SCORE:    0.00 PKD
ROOT
HETATM    1  C   UNL     1     -10.957   5.796  66.785  1.00  0.00    -0.239 C  
HETATM    2  C   UNL     1     -10.675   6.694  67.994  1.00  0.00    -0.265 C  
HETATM    3  C   UNL     1     -10.845   6.015  69.354  1.00  0.00    -0.433 C  
ENDROOT
BRANCH   2   4
HETATM    4  N   UNL     1      -9.435   7.476  67.896  1.00  0.00    -0.141 NA 
HETATM    5  C   UNL     1      -9.261   8.841  68.106  1.00  0.00    -0.140 A  
HETATM    6  C   UNL     1      -5.592   6.178  67.005  1.00  0.00    -0.009 A  
HETATM    7  C   UNL     1      -7.884   9.112  68.039  1.00  0.00    -0.100 A  
HETATM    8  C   UNL     1      -6.601   5.241  66.851  1.00  0.00    -0.053 A  
HETATM    9  C   UNL     1      -8.225   6.895  67.538  1.00  0.00    -0.116 A  
HETATM   10  C   UNL     1      -7.234   7.873  67.672  1.00  0.00    -0.088 A  
HETATM   11  C   UNL     1      -5.894   7.479  67.428  1.00  0.00    -0.035 A  
HETATM   12  C   UNL     1      -7.925   5.581  67.126  1.00  0.00    -0.102 A  
BRANCH   5  13
HETATM   13  C   UNL     1     -10.391   9.657  68.395  1.00  0.00    -0.233 C  
HETATM   14  C   UNL     1     -10.783  10.651  67.581  1.00  0.00    -0.315 C  
BRANCH  14  15
HETATM   15  C   UNL     1     -12.001  11.500  67.821  1.00  0.00    -0.025 C  
HETATM   16  H   UNL     1     -12.737  13.069  66.994  1.00  0.00     0.000 HD 
HETATM   17  O   UNL     1     -11.968  12.533  66.842  1.00  0.00    -0.507 OA 
BRANCH  15  18
HETATM   18  C   UNL     1     -12.013  12.081  69.243  1.00  0.00    -0.329 C  
BRANCH  18  19
HETATM   19  C   UNL     1     -11.744  13.597  69.289  1.00  0.00    -0.325 C  
HETATM   20  O   UNL     1     -10.335  13.854  69.167  1.00  0.00    -0.402 OA 
HETATM   21  H   UNL     1     -10.169  14.789  69.195  1.00  0.00     0.000 HD 
BRANCH  19  22
HETATM   22  C   UNL     1     -12.244  14.249  70.577  1.00  0.00    -0.427 C  
HETATM   23  C   UNL     1     -11.615  15.585  70.904  1.00  0.00    -0.375 C  
HETATM   24  O   UNL     1     -11.367  16.374  69.837  1.00  0.00    -0.298 OA 
HETATM   25  O   UNL     1     -11.425  15.963  72.051  1.00  0.00    -0.401 OA 
ENDBRANCH  19  22
ENDBRANCH  18  19
ENDBRANCH  15  18
ENDBRANCH  14  15
ENDBRANCH   5  13
BRANCH   7  26
HETATM   26  C   UNL     1      -7.290  10.453  68.236  1.00  0.00    -0.088 A  
HETATM   27  C   UNL     1      -6.500  12.578  67.308  1.00  0.00    -0.124 A  
HETATM   28  C   UNL     1      -6.530  12.268  69.694  1.00  0.00    -0.073 A  
HETATM   29  C   UNL     1      -6.288  13.066  68.588  1.00  0.00    -0.083 A  
HETATM   30  C   UNL     1      -7.016  11.287  67.137  1.00  0.00    -0.114 A  
HETATM   31  C   UNL     1      -6.999  10.961  69.515  1.00  0.00    -0.131 A  
HETATM   32  F   UNL     1      -5.850  14.320  68.756  1.00  0.00    -0.076 F  
ENDBRANCH   7  26
ENDBRANCH   2   4
TORSDOF 7
ENDMDL
MODEL      146
REMARK 921   NORMALIZED FREE ENERGY PREDICTED BY IDOCK:   -4.42 KCAL/MOL
REMARK 922        TOTAL FREE ENERGY PREDICTED BY IDOCK:   -7.93 KCAL/MOL
REMARK 923 INTER-LIGAND FREE ENERGY PREDICTED BY IDOCK:   -6.74 KCAL/MOL
REMARK 924 INTRA-LIGAND FREE ENERGY PREDICTED BY IDOCK:   -1.19 KCAL/MOL
REMARK 927      BINDING AFFINITY PREDICTED BY RF-SCORE:    0.00 PKD
ROOT
HETATM    1  C   UNL     1     -11.199   7.917  72.761  1.00  0.00    -0.466 C  
HETATM    2  C   UNL     1     -11.986   8.001  71.449  1.00  0.00    -0.298 C  
HETATM    3  C   UNL     1     -13.498   8.160  71.616  1.00  0.00    -0.363 C  
ENDROOT
BRANCH   2   4
HETATM    4  N   UNL     1     -11.420   8.924  70.456  1.00  0.00    -0.238 NA 
HETATM    5  C   UNL     1     -10.534   8.636  69.422  1.00  0.00    -0.218 A  
HETATM    6  C   UNL     1     -12.105  12.992  69.982  1.00  0.00    -0.367 A  
HETATM    7  C   UNL     1     -10.385   9.799  68.649  1.00  0.00    -0.224 A  
HETATM    8  C   UNL     1     -12.641  12.415  71.121  1.00  0.00    -0.349 A  
HETATM    9  C   UNL     1     -11.716  10.281  70.460  1.00  0.00    -0.331 A  
HETATM   10  C   UNL     1     -11.133  10.841  69.318  1.00  0.00    -0.312 A  
HETATM   11  C   UNL     1     -11.371  12.217  69.075  1.00  0.00    -0.333 A  
HETATM   12  C   UNL     1     -12.466  11.054  71.369  1.00  0.00    -0.436 A  
BRANCH   5  13
HETATM   13  C   UNL     1     -10.021   7.315  69.284  1.00  0.00    -0.170 C  
HETATM   14  C   UNL     1      -8.746   7.075  68.937  1.00  0.00    -0.131 C  
BRANCH  14  15
HETATM   15  C   UNL     1      -8.150   5.698  68.834  1.00  0.00    -0.100 C  
HETATM   16  H   UNL     1      -6.682   4.932  67.861  1.00  0.00     0.000 HD 
HETATM   17  O   UNL     1      -7.058   5.802  67.925  1.00  0.00    -0.068 OA 
BRANCH  15  18
HETATM   18  C   UNL     1      -9.182   4.670  68.346  1.00  0.00    -0.170 C  
BRANCH  18  19
HETATM   19  C   UNL     1      -8.622   3.684  67.305  1.00  0.00    -0.108 C  
HETATM   20  O   UNL     1      -9.698   3.008  66.634  1.00  0.00    -0.412 OA 
HETATM   21  H   UNL     1      -9.352   2.399  65.992  1.00  0.00     0.000 HD 
BRANCH  19  22
HETATM   22  C   UNL     1      -7.701   2.632  67.921  1.00  0.00    -0.059 C  
HETATM   23  C   UNL     1      -8.280   1.887  69.103  1.00  0.00    -0.048 C  
HETATM   24  O   UNL     1      -9.599   1.614  69.013  1.00  0.00    -0.129 OA 
HETATM   25  O   UNL     1      -7.593   1.483  70.030  1.00  0.00    -0.036 OA 
ENDBRANCH  19  22
ENDBRANCH  18  19
ENDBRANCH  15  18
ENDBRANCH  14  15
ENDBRANCH   5  13
BRANCH   7  26
HETATM   26  C   UNL     1      -9.540   9.890  67.438  1.00  0.00    -0.185 A  
HETATM   27  C   UNL     1      -9.255   9.581  65.025  1.00  0.00    -0.297 A  
HETATM   28  C   UNL     1      -7.490  10.601  66.302  1.00  0.00    -0.137 A  
HETATM   29  C   UNL     1      -8.006  10.177  65.089  1.00  0.00    -0.146 A  
HETATM   30  C   UNL     1     -10.022   9.457  66.190  1.00  0.00    -0.351 A  
HETATM   31  C   UNL     1      -8.240  10.429  67.471  1.00  0.00    -0.114 A  
HETATM   32  F   UNL     1      -7.295  10.350  63.968  1.00  0.00    -0.140 F  
ENDBRANCH   7  26
ENDBRANCH   2   4
TORSDOF 7
ENDMDL
MODEL      147
REMARK 921   NORMALIZED FREE ENERGY PREDICTED BY IDOCK:   -4.41 KCAL/MOL
REMARK 922        TOTAL FREE ENERGY PREDICTED BY IDOCK:   -7.92 KCAL/MOL
REMARK 923 INTER-LIGAND FREE ENERGY PREDICTED BY IDOCK:   -6.52 KCAL/MOL
REMARK 924 INTRA-LIGAND FREE ENERGY PREDICTED BY IDOCK:   -1.40 KCAL/MOL
REMARK 927      BINDING AFFINITY PREDICTED BY RF-SCORE:    0.00 PKD
ROOT
HETATM    1  C   UNL     1     -11.981   6.291  71.821  1.00  0.00    -0.313 C  
HETATM    2  C   UNL     1     -11.069   7.501  72.054  1.00  0.00    -0.247 C  
HETATM    3  C   UNL     1     -10.643   7.714  73.507  1.00  0.00    -0.250 C  
ENDROOT
BRANCH   2   4
HETATM    4  N   UNL     1      -9.952   7.613  71.107  1.00  0.00    -0.177 NA 
HETATM    5  C   UNL     1      -9.861   8.419  69.977  1.00  0.00    -0.182 A  
HETATM    6  C   UNL     1      -6.275   5.684  71.166  1.00  0.00    -0.034 A  
HETATM    7  C   UNL     1      -8.558   8.297  69.466  1.00  0.00    -0.134 A  
HETATM    8  C   UNL     1      -7.206   5.246  72.094  1.00  0.00    -0.087 A  
HETATM    9  C   UNL     1      -8.795   6.856  71.242  1.00  0.00    -0.135 A  
HETATM   10  C   UNL     1      -7.889   7.298  70.271  1.00  0.00    -0.096 A  
HETATM   11  C   UNL     1      -6.599   6.711  70.271  1.00  0.00    -0.045 A  
HETATM   12  C   UNL     1      -8.469   5.832  72.153  1.00  0.00    -0.122 A  
BRANCH   5  13
HETATM   13  C   UNL     1     -10.976   9.217  69.591  1.00  0.00    -0.192 C  
HETATM   14  C   UNL     1     -10.986  10.552  69.740  1.00  0.00    -0.350 C  
BRANCH  14  15
HETATM   15  C   UNL     1     -12.117  11.436  69.296  1.00  0.00    -0.289 C  
HETATM   16  H   UNL     1     -12.798  12.005  67.592  1.00  0.00     0.000 HD 
HETATM   17  O   UNL     1     -12.082  11.446  67.872  1.00  0.00    -0.646 OA 
BRANCH  15  18
HETATM   18  C   UNL     1     -11.983  12.857  69.865  1.00  0.00    -0.377 C  
BRANCH  18  19
HETATM   19  C   UNL     1     -12.622  13.025  71.256  1.00  0.00    -0.279 C  
HETATM   20  O   UNL     1     -13.426  11.876  71.574  1.00  0.00    -0.139 OA 
HETATM   21  H   UNL     1     -13.820  11.980  72.431  1.00  0.00     0.000 HD 
BRANCH  19  22
HETATM   22  C   UNL     1     -13.500  14.271  71.358  1.00  0.00    -0.402 C  
HETATM   23  C   UNL     1     -13.089  15.257  72.429  1.00  0.00    -0.391 C  
HETATM   24  O   UNL     1     -11.756  15.392  72.597  1.00  0.00    -0.434 OA 
HETATM   25  O   UNL     1     -13.894  15.947  73.037  1.00  0.00    -0.592 OA 
ENDBRANCH  19  22
ENDBRANCH  18  19
ENDBRANCH  15  18
ENDBRANCH  14  15
ENDBRANCH   5  13
BRANCH   7  26
HETATM   26  C   UNL     1      -8.059   9.022  68.277  1.00  0.00    -0.109 A  
HETATM   27  C   UNL     1      -6.913  10.954  67.300  1.00  0.00    -0.089 A  
HETATM   28  C   UNL     1      -7.596   9.139  65.875  1.00  0.00    -0.095 A  
HETATM   29  C   UNL     1      -6.974  10.365  66.047  1.00  0.00    -0.129 A  
HETATM   30  C   UNL     1      -7.435  10.275  68.408  1.00  0.00    -0.090 A  
HETATM   31  C   UNL     1      -8.160   8.489  66.979  1.00  0.00    -0.103 A  
HETATM   32  F   UNL     1      -6.424  10.984  64.995  1.00  0.00     0.010 F  
ENDBRANCH   7  26
ENDBRANCH   2   4
TORSDOF 7
ENDMDL
MODEL      148
REMARK 921   NORMALIZED FREE ENERGY PREDICTED BY IDOCK:   -4.37 KCAL/MOL
REMARK 922        TOTAL FREE ENERGY PREDICTED BY IDOCK:   -7.87 KCAL/MOL
REMARK 923 INTER-LIGAND FREE ENERGY PREDICTED BY IDOCK:   -6.79 KCAL/MOL
REMARK 924 INTRA-LIGAND FREE ENERGY PREDICTED BY IDOCK:   -1.07 KCAL/MOL
REMARK 927      BINDING AFFINITY PREDICTED BY RF-SCORE:    0.00 PKD
ROOT
HETATM    1  C   UNL     1     -12.641  12.614  64.691  1.00  0.00    -0.517 C  
HETATM    2  C   UNL     1     -11.353  11.785  64.690  1.00  0.00    -0.256 C  
HETATM    3  C   UNL     1     -10.673  11.654  63.326  1.00  0.00    -0.404 C  
ENDROOT
BRANCH   2   4
HETATM    4  N   UNL     1     -10.413  12.119  65.768  1.00  0.00    -0.245 NA 
HETATM    5  C   UNL     1      -9.857  11.267  66.719  1.00  0.00    -0.199 A  
HETATM    6  C   UNL     1      -8.702  15.786  66.698  1.00  0.00    -0.323 A  
HETATM    7  C   UNL     1      -8.911  12.002  67.452  1.00  0.00    -0.178 A  
HETATM    8  C   UNL     1      -9.695  15.807  65.733  1.00  0.00    -0.372 A  
HETATM    9  C   UNL     1      -9.965  13.417  65.978  1.00  0.00    -0.293 A  
HETATM   10  C   UNL     1      -8.990  13.367  66.980  1.00  0.00    -0.228 A  
HETATM   11  C   UNL     1      -8.334  14.581  67.309  1.00  0.00    -0.232 A  
HETATM   12  C   UNL     1     -10.329  14.626  65.352  1.00  0.00    -0.406 A  
BRANCH   5  13
HETATM   13  C   UNL     1     -10.249   9.898  66.751  1.00  0.00    -0.301 C  
HETATM   14  C   UNL     1      -9.376   8.900  66.537  1.00  0.00    -0.252 C  
BRANCH  14  15
HETATM   15  C   UNL     1      -9.736   7.442  66.616  1.00  0.00    -0.194 C  
HETATM   16  H   UNL     1     -11.361   6.468  66.931  1.00  0.00     0.000 HD 
HETATM   17  O   UNL     1     -11.134   7.389  66.881  1.00  0.00    -0.236 OA 
BRANCH  15  18
HETATM   18  C   UNL     1      -8.935   6.720  67.710  1.00  0.00    -0.116 C  
BRANCH  18  19
HETATM   19  C   UNL     1      -9.100   5.189  67.684  1.00  0.00    -0.111 C  
HETATM   20  O   UNL     1     -10.331   4.835  67.032  1.00  0.00    -0.195 OA 
HETATM   21  H   UNL     1     -10.432   3.891  67.016  1.00  0.00     0.000 HD 
BRANCH  19  22
HETATM   22  C   UNL     1      -9.096   4.569  69.080  1.00  0.00    -0.172 C  
HETATM   23  C   UNL     1      -9.988   5.257  70.089  1.00  0.00    -0.243 C  
HETATM   24  O   UNL     1     -11.155   5.722  69.594  1.00  0.00    -0.372 OA 
HETATM   25  O   UNL     1      -9.718   5.313  71.280  1.00  0.00    -0.154 OA 
ENDBRANCH  19  22
ENDBRANCH  18  19
ENDBRANCH  15  18
ENDBRANCH  14  15
ENDBRANCH   5  13
BRANCH   7  26
HETATM   26  C   UNL     1      -8.084  11.440  68.542  1.00  0.00    -0.149 A  
HETATM   27  C   UNL     1      -7.797   9.839  70.374  1.00  0.00    -0.144 A  
HETATM   28  C   UNL     1      -5.963  11.267  69.754  1.00  0.00    -0.103 A  
HETATM   29  C   UNL     1      -6.485  10.251  70.538  1.00  0.00    -0.104 A  
HETATM   30  C   UNL     1      -8.583  10.417  69.369  1.00  0.00    -0.143 A  
HETATM   31  C   UNL     1      -6.769  11.876  68.785  1.00  0.00    -0.088 A  
HETATM   32  F   UNL     1      -5.713   9.660  71.458  1.00  0.00    -0.065 F  
ENDBRANCH   7  26
ENDBRANCH   2   4
TORSDOF 7
ENDMDL
MODEL      149
REMARK 921   NORMALIZED FREE ENERGY PREDICTED BY IDOCK:   -4.37 KCAL/MOL
REMARK 922        TOTAL FREE ENERGY PREDICTED BY IDOCK:   -7.86 KCAL/MOL
REMARK 923 INTER-LIGAND FREE ENERGY PREDICTED BY IDOCK:   -6.52 KCAL/MOL
REMARK 924 INTRA-LIGAND FREE ENERGY PREDICTED BY IDOCK:   -1.35 KCAL/MOL
REMARK 927      BINDING AFFINITY PREDICTED BY RF-SCORE:    0.00 PKD
ROOT
HETATM    1  C   UNL     1      -5.864  11.462  70.374  1.00  0.00    -0.153 C  
HETATM    2  C   UNL     1      -6.012  11.137  68.884  1.00  0.00    -0.040 C  
HETATM    3  C   UNL     1      -5.280   9.875  68.426  1.00  0.00    -0.036 C  
ENDROOT
BRANCH   2   4
HETATM    4  N   UNL     1      -7.389  11.216  68.377  1.00  0.00    -0.088 NA 
HETATM    5  C   UNL     1      -7.999  12.275  67.712  1.00  0.00    -0.154 A  
HETATM    6  C   UNL     1     -10.387   8.346  68.499  1.00  0.00    -0.232 A  
HETATM    7  C   UNL     1      -9.271  11.844  67.297  1.00  0.00    -0.179 A  
HETATM    8  C   UNL     1      -9.239   8.056  69.218  1.00  0.00    -0.152 A  
HETATM    9  C   UNL     1      -8.294  10.175  68.540  1.00  0.00    -0.116 A  
HETATM   10  C   UNL     1      -9.453  10.513  67.832  1.00  0.00    -0.157 A  
HETATM   11  C   UNL     1     -10.495   9.552  67.796  1.00  0.00    -0.309 A  
HETATM   12  C   UNL     1      -8.175   8.957  69.239  1.00  0.00    -0.114 A  
BRANCH   5  13
HETATM   13  C   UNL     1      -7.282  13.489  67.515  1.00  0.00    -0.165 C  
HETATM   14  C   UNL     1      -7.838  14.692  67.734  1.00  0.00    -0.165 C  
BRANCH  14  15
HETATM   15  C   UNL     1      -7.101  15.994  67.592  1.00  0.00    -0.154 C  
HETATM   16  H   UNL     1      -6.824  17.521  68.725  1.00  0.00     0.000 HD 
HETATM   17  O   UNL     1      -7.291  16.698  68.816  1.00  0.00    -0.194 OA 
BRANCH  15  18
HETATM   18  C   UNL     1      -7.617  16.809  66.397  1.00  0.00    -0.325 C  
BRANCH  18  19
HETATM   19  C   UNL     1      -7.684  18.324  66.669  1.00  0.00    -0.236 C  
HETATM   20  O   UNL     1      -9.031  18.798  66.502  1.00  0.00    -0.306 OA 
HETATM   21  H   UNL     1      -9.072  19.732  66.669  1.00  0.00     0.000 HD 
BRANCH  19  22
HETATM   22  C   UNL     1      -6.770  19.132  65.750  1.00  0.00    -0.295 C  
HETATM   23  C   UNL     1      -5.934  20.184  66.444  1.00  0.00    -0.173 C  
HETATM   24  O   UNL     1      -5.474  19.833  67.663  1.00  0.00    -0.177 OA 
HETATM   25  O   UNL     1      -5.622  21.239  65.909  1.00  0.00    -0.231 OA 
ENDBRANCH  19  22
ENDBRANCH  18  19
ENDBRANCH  15  18
ENDBRANCH  14  15
ENDBRANCH   5  13
BRANCH   7  26
HETATM   26  C   UNL     1     -10.223  12.678  66.532  1.00  0.00    -0.255 A  
HETATM   27  C   UNL     1     -11.074  13.493  64.384  1.00  0.00    -0.397 A  
HETATM   28  C   UNL     1     -12.202  14.117  66.416  1.00  0.00    -0.473 A  
HETATM   29  C   UNL     1     -12.107  14.149  65.034  1.00  0.00    -0.421 A  
HETATM   30  C   UNL     1     -10.151  12.748  65.129  1.00  0.00    -0.246 A  
HETATM   31  C   UNL     1     -11.247  13.412  67.158  1.00  0.00    -0.325 A  
HETATM   32  F   UNL     1     -13.025  14.813  64.321  1.00  0.00    -0.249 F  
ENDBRANCH   7  26
ENDBRANCH   2   4
TORSDOF 7
ENDMDL
MODEL      150
REMARK 921   NORMALIZED FREE ENERGY PREDICTED BY IDOCK:   -4.33 KCAL/MOL
REMARK 922        TOTAL FREE ENERGY PREDICTED BY IDOCK:   -7.80 KCAL/MOL
REMARK 923 INTER-LIGAND FREE ENERGY PREDICTED BY IDOCK:   -6.57 KCAL/MOL
REMARK 924 INTRA-LIGAND FREE ENERGY PREDICTED BY IDOCK:   -1.23 KCAL/MOL
REMARK 927      BINDING AFFINITY PREDICTED BY RF-SCORE:    0.00 PKD
ROOT
HETATM    1  C   UNL     1     -13.026  10.695  70.584  1.00  0.00    -0.343 C  
HETATM    2  C   UNL     1     -12.407  11.599  69.512  1.00  0.00    -0.089 C  
HETATM    3  C   UNL     1     -11.997  12.988  70.001  1.00  0.00    -0.383 C  
ENDROOT
BRANCH   2   4
HETATM    4  N   UNL     1     -11.373  10.952  68.693  1.00  0.00    -0.272 NA 
HETATM    5  C   UNL     1     -10.416  10.025  69.093  1.00  0.00    -0.219 A  
HETATM    6  C   UNL     1     -10.621  11.365  64.630  1.00  0.00    -0.380 A  
HETATM    7  C   UNL     1      -9.739   9.584  67.944  1.00  0.00    -0.171 A  
HETATM    8  C   UNL     1     -11.552  12.239  65.168  1.00  0.00    -0.402 A  
HETATM    9  C   UNL     1     -11.221  11.235  67.342  1.00  0.00    -0.303 A  
HETATM   10  C   UNL     1     -10.252  10.361  66.837  1.00  0.00    -0.281 A  
HETATM   11  C   UNL     1      -9.985  10.421  65.446  1.00  0.00    -0.362 A  
HETATM   12  C   UNL     1     -11.873  12.179  66.523  1.00  0.00    -0.322 A  
BRANCH   5  13
HETATM   13  C   UNL     1     -10.326   9.653  70.465  1.00  0.00    -0.359 C  
HETATM   14  C   UNL     1      -9.309   8.917  70.942  1.00  0.00    -0.295 C  
BRANCH  14  15
HETATM   15  C   UNL     1      -9.148   8.550  72.392  1.00  0.00    -0.238 C  
HETATM   16  H   UNL     1      -7.647   8.196  73.536  1.00  0.00     0.000 HD 
HETATM   17  O   UNL     1      -7.748   8.427  72.620  1.00  0.00    -0.203 OA 
BRANCH  15  18
HETATM   18  C   UNL     1      -9.883   7.244  72.730  1.00  0.00    -0.219 C  
BRANCH  18  19
HETATM   19  C   UNL     1      -9.918   6.239  71.564  1.00  0.00    -0.184 C  
HETATM   20  O   UNL     1     -11.278   5.966  71.186  1.00  0.00    -0.276 OA 
HETATM   21  H   UNL     1     -11.299   5.346  70.466  1.00  0.00     0.000 HD 
BRANCH  19  22
HETATM   22  C   UNL     1      -9.235   4.915  71.901  1.00  0.00    -0.171 C  
HETATM   23  C   UNL     1      -9.665   3.738  71.054  1.00  0.00    -0.178 C  
HETATM   24  O   UNL     1      -9.904   4.028  69.757  1.00  0.00    -0.211 OA 
HETATM   25  O   UNL     1      -9.709   2.595  71.485  1.00  0.00    -0.144 OA 
ENDBRANCH  19  22
ENDBRANCH  18  19
ENDBRANCH  15  18
ENDBRANCH  14  15
ENDBRANCH   5  13
BRANCH   7  26
HETATM   26  C   UNL     1      -8.661   8.571  67.950  1.00  0.00    -0.134 A  
HETATM   27  C   UNL     1      -7.953   6.229  67.837  1.00  0.00    -0.111 A  
HETATM   28  C   UNL     1      -6.288   7.965  67.905  1.00  0.00    -0.051 A  
HETATM   29  C   UNL     1      -6.625   6.624  67.822  1.00  0.00    -0.058 A  
HETATM   30  C   UNL     1      -8.962   7.199  67.881  1.00  0.00    -0.122 A  
HETATM   31  C   UNL     1      -7.300   8.927  68.000  1.00  0.00    -0.084 A  
HETATM   32  F   UNL     1      -5.659   5.702  67.720  1.00  0.00    -0.010 F  
ENDBRANCH   7  26
ENDBRANCH   2   4
TORSDOF 7
ENDMDL
MODEL      151
REMARK 921   NORMALIZED FREE ENERGY PREDICTED BY IDOCK:   -4.25 KCAL/MOL
REMARK 922        TOTAL FREE ENERGY PREDICTED BY IDOCK:   -7.70 KCAL/MOL
REMARK 923 INTER-LIGAND FREE ENERGY PREDICTED BY IDOCK:   -6.66 KCAL/MOL
REMARK 924 INTRA-LIGAND FREE ENERGY PREDICTED BY IDOCK:   -1.03 KCAL/MOL
REMARK 927      BINDING AFFINITY PREDICTED BY RF-SCORE:    0.00 PKD
ROOT
HETATM    1  C   UNL     1     -12.557   6.916  71.691  1.00  0.00    -0.410 C  
HETATM    2  C   UNL     1     -11.423   7.920  71.461  1.00  0.00    -0.265 C  
HETATM    3  C   UNL     1     -10.561   8.210  72.691  1.00  0.00    -0.414 C  
ENDROOT
BRANCH   2   4
HETATM    4  N   UNL     1     -10.628   7.675  70.250  1.00  0.00    -0.225 NA 
HETATM    5  C   UNL     1     -10.242   8.590  69.276  1.00  0.00    -0.208 A  
HETATM    6  C   UNL     1      -8.922   4.131  68.919  1.00  0.00    -0.162 A  
HETATM    7  C   UNL     1      -9.378   7.931  68.386  1.00  0.00    -0.140 A  
HETATM    8  C   UNL     1      -9.771   4.025  70.008  1.00  0.00    -0.264 A  
HETATM    9  C   UNL     1     -10.164   6.408  69.919  1.00  0.00    -0.183 A  
HETATM   10  C   UNL     1      -9.339   6.544  68.797  1.00  0.00    -0.130 A  
HETATM   11  C   UNL     1      -8.688   5.377  68.323  1.00  0.00    -0.101 A  
HETATM   12  C   UNL     1     -10.392   5.159  70.529  1.00  0.00    -0.314 A  
BRANCH   5  13
HETATM   13  C   UNL     1     -10.686   9.941  69.364  1.00  0.00    -0.255 C  
HETATM   14  C   UNL     1     -11.192  10.598  68.307  1.00  0.00    -0.362 C  
BRANCH  14  15
HETATM   15  C   UNL     1     -11.723  12.003  68.370  1.00  0.00    -0.332 C  
HETATM   16  H   UNL     1     -12.292  13.291  67.064  1.00  0.00     0.000 HD 
HETATM   17  O   UNL     1     -11.957  12.403  67.024  1.00  0.00    -0.541 OA 
BRANCH  15  18
HETATM   18  C   UNL     1     -10.734  12.950  69.068  1.00  0.00    -0.132 C  
BRANCH  18  19
HETATM   19  C   UNL     1      -9.736  13.615  68.103  1.00  0.00    -0.229 C  
HETATM   20  O   UNL     1     -10.416  14.069  66.921  1.00  0.00    -0.273 OA 
HETATM   21  H   UNL     1      -9.800  14.479  66.326  1.00  0.00     0.000 HD 
BRANCH  19  22
HETATM   22  C   UNL     1      -8.606  12.678  67.680  1.00  0.00    -0.180 C  
HETATM   23  C   UNL     1      -7.218  13.272  67.759  1.00  0.00    -0.151 C  
HETATM   24  O   UNL     1      -7.011  14.098  68.806  1.00  0.00    -0.093 OA 
HETATM   25  O   UNL     1      -6.322  12.962  66.987  1.00  0.00    -0.212 OA 
ENDBRANCH  19  22
ENDBRANCH  18  19
ENDBRANCH  15  18
ENDBRANCH  14  15
ENDBRANCH   5  13
BRANCH   7  26
HETATM   26  C   UNL     1      -8.731   8.575  67.222  1.00  0.00    -0.133 A  
HETATM   27  C   UNL     1      -8.800   9.265  64.873  1.00  0.00    -0.233 A  
HETATM   28  C   UNL     1      -6.914   9.886  66.232  1.00  0.00    -0.100 A  
HETATM   29  C   UNL     1      -7.587   9.917  65.021  1.00  0.00    -0.134 A  
HETATM   30  C   UNL     1      -9.375   8.616  65.973  1.00  0.00    -0.284 A  
HETATM   31  C   UNL     1      -7.470   9.193  67.314  1.00  0.00    -0.088 A  
HETATM   32  F   UNL     1      -7.063  10.588  63.988  1.00  0.00    -0.115 F  
ENDBRANCH   7  26
ENDBRANCH   2   4
TORSDOF 7
ENDMDL
MODEL      152
REMARK 921   NORMALIZED FREE ENERGY PREDICTED BY IDOCK:   -4.24 KCAL/MOL
REMARK 922        TOTAL FREE ENERGY PREDICTED BY IDOCK:   -7.68 KCAL/MOL
REMARK 923 INTER-LIGAND FREE ENERGY PREDICTED BY IDOCK:   -6.96 KCAL/MOL
REMARK 924 INTRA-LIGAND FREE ENERGY PREDICTED BY IDOCK:   -0.71 KCAL/MOL
REMARK 927      BINDING AFFINITY PREDICTED BY RF-SCORE:    0.00 PKD
ROOT
HETATM    1  C   UNL     1     -10.282  12.572  64.252  1.00  0.00    -0.359 C  
HETATM    2  C   UNL     1      -9.968  11.327  65.087  1.00  0.00    -0.264 C  
HETATM    3  C   UNL     1      -9.999  10.009  64.313  1.00  0.00    -0.019 C  
ENDROOT
BRANCH   2   4
HETATM    4  N   UNL     1      -8.788  11.456  65.952  1.00  0.00    -0.182 NA 
HETATM    5  C   UNL     1      -8.628  12.264  67.074  1.00  0.00    -0.191 A  
HETATM    6  C   UNL     1      -5.149   9.469  65.717  1.00  0.00    -0.035 A  
HETATM    7  C   UNL     1      -7.389  11.949  67.656  1.00  0.00    -0.123 A  
HETATM    8  C   UNL     1      -6.016   9.276  64.654  1.00  0.00    -0.070 A  
HETATM    9  C   UNL     1      -7.617  10.747  65.710  1.00  0.00    -0.079 A  
HETATM   10  C   UNL     1      -6.751  10.990  66.781  1.00  0.00    -0.128 A  
HETATM   11  C   UNL     1      -5.511  10.302  66.783  1.00  0.00    -0.046 A  
HETATM   12  C   UNL     1      -7.263   9.899  64.641  1.00  0.00    -0.137 A  
BRANCH   5  13
HETATM   13  C   UNL     1      -9.675  13.150  67.457  1.00  0.00    -0.213 C  
HETATM   14  C   UNL     1     -10.666  12.772  68.282  1.00  0.00    -0.257 C  
BRANCH  14  15
HETATM   15  C   UNL     1     -11.758  13.691  68.755  1.00  0.00    -0.348 C  
HETATM   16  H   UNL     1     -12.893  14.987  67.906  1.00  0.00     0.000 HD 
HETATM   17  O   UNL     1     -12.203  14.407  67.607  1.00  0.00    -0.328 OA 
BRANCH  15  18
HETATM   18  C   UNL     1     -11.259  14.648  69.848  1.00  0.00    -0.271 C  
BRANCH  18  19
HETATM   19  C   UNL     1     -12.289  14.895  70.965  1.00  0.00    -0.324 C  
HETATM   20  O   UNL     1     -13.192  15.946  70.582  1.00  0.00    -0.723 OA 
HETATM   21  H   UNL     1     -13.828  16.098  71.271  1.00  0.00     0.000 HD 
BRANCH  19  22
HETATM   22  C   UNL     1     -11.641  15.276  72.295  1.00  0.00    -0.530 C  
HETATM   23  C   UNL     1     -12.603  15.737  73.367  1.00  0.00    -0.545 C  
HETATM   24  O   UNL     1     -13.785  15.085  73.390  1.00  0.00    -0.359 OA 
HETATM   25  O   UNL     1     -12.305  16.574  74.207  1.00  0.00    -0.642 OA 
ENDBRANCH  19  22
ENDBRANCH  18  19
ENDBRANCH  15  18
ENDBRANCH  14  15
ENDBRANCH   5  13
BRANCH   7  26
HETATM   26  C   UNL     1      -6.865  12.578  68.888  1.00  0.00    -0.098 A  
HETATM   27  C   UNL     1      -5.769  12.376  71.070  1.00  0.00     0.041 A  
HETATM   28  C   UNL     1      -6.281  14.561  70.202  1.00  0.00    -0.167 A  
HETATM   29  C   UNL     1      -5.733  13.757  71.187  1.00  0.00    -0.212 A  
HETATM   30  C   UNL     1      -6.314  11.795  69.918  1.00  0.00    -0.113 A  
HETATM   31  C   UNL     1      -6.870  13.973  69.076  1.00  0.00    -0.111 A  
HETATM   32  F   UNL     1      -5.160  14.317  72.259  1.00  0.00    -0.133 F  
ENDBRANCH   7  26
ENDBRANCH   2   4
TORSDOF 7
ENDMDL
MODEL      153
REMARK 921   NORMALIZED FREE ENERGY PREDICTED BY IDOCK:   -4.20 KCAL/MOL
REMARK 922        TOTAL FREE ENERGY PREDICTED BY IDOCK:   -7.62 KCAL/MOL
REMARK 923 INTER-LIGAND FREE ENERGY PREDICTED BY IDOCK:   -6.24 KCAL/MOL
REMARK 924 INTRA-LIGAND FREE ENERGY PREDICTED BY IDOCK:   -1.38 KCAL/MOL
REMARK 927      BINDING AFFINITY PREDICTED BY RF-SCORE:    0.00 PKD
ROOT
HETATM    1  C   UNL     1     -11.276  11.407  67.293  1.00  0.00    -0.370 C  
HETATM    2  C   UNL     1     -10.531  10.184  66.750  1.00  0.00    -0.204 C  
HETATM    3  C   UNL     1      -9.578  10.474  65.589  1.00  0.00    -0.278 C  
ENDROOT
BRANCH   2   4
HETATM    4  N   UNL     1      -9.932   9.327  67.782  1.00  0.00    -0.179 NA 
HETATM    5  C   UNL     1      -9.120   9.705  68.847  1.00  0.00    -0.144 A  
HETATM    6  C   UNL     1     -10.286   5.222  68.299  1.00  0.00    -0.200 A  
HETATM    7  C   UNL     1      -8.906   8.570  69.647  1.00  0.00    -0.137 A  
HETATM    8  C   UNL     1     -10.819   5.735  67.128  1.00  0.00    -0.308 A  
HETATM    9  C   UNL     1     -10.110   7.949  67.790  1.00  0.00    -0.192 A  
HETATM   10  C   UNL     1      -9.531   7.459  68.965  1.00  0.00    -0.148 A  
HETATM   11  C   UNL     1      -9.661   6.070  69.223  1.00  0.00    -0.174 A  
HETATM   12  C   UNL     1     -10.751   7.102  66.864  1.00  0.00    -0.363 A  
BRANCH   5  13
HETATM   13  C   UNL     1      -8.729  11.068  68.984  1.00  0.00    -0.072 C  
HETATM   14  C   UNL     1      -7.639  11.564  68.375  1.00  0.00    -0.125 C  
BRANCH  14  15
HETATM   15  C   UNL     1      -7.223  13.007  68.448  1.00  0.00    -0.110 C  
HETATM   16  H   UNL     1      -6.401  14.108  69.790  1.00  0.00     0.000 HD 
HETATM   17  O   UNL     1      -6.664  13.196  69.745  1.00  0.00    -0.004 OA 
BRANCH  15  18
HETATM   18  C   UNL     1      -8.410  13.951  68.211  1.00  0.00    -0.163 C  
BRANCH  18  19
HETATM   19  C   UNL     1      -8.244  14.848  66.970  1.00  0.00    -0.196 C  
HETATM   20  O   UNL     1      -7.118  15.725  67.139  1.00  0.00    -0.202 OA 
HETATM   21  H   UNL     1      -7.016  16.277  66.373  1.00  0.00     0.000 HD 
BRANCH  19  22
HETATM   22  C   UNL     1      -9.481  15.698  66.684  1.00  0.00    -0.282 C  
HETATM   23  C   UNL     1     -10.172  15.402  65.372  1.00  0.00    -0.377 C  
HETATM   24  O   UNL     1     -10.192  14.098  65.020  1.00  0.00    -0.394 OA 
HETATM   25  O   UNL     1     -10.747  16.261  64.719  1.00  0.00    -0.680 OA 
ENDBRANCH  19  22
ENDBRANCH  18  19
ENDBRANCH  15  18
ENDBRANCH  14  15
ENDBRANCH   5  13
BRANCH   7  26
HETATM   26  C   UNL     1      -8.110   8.570  70.894  1.00  0.00    -0.140 A  
HETATM   27  C   UNL     1      -7.921   8.081  73.287  1.00  0.00    -0.230 A  
HETATM   28  C   UNL     1      -5.992   8.875  72.087  1.00  0.00    -0.072 A  
HETATM   29  C   UNL     1      -6.579   8.426  73.259  1.00  0.00    -0.099 A  
HETATM   30  C   UNL     1      -8.673   8.135  72.107  1.00  0.00    -0.234 A  
HETATM   31  C   UNL     1      -6.762   8.974  70.922  1.00  0.00    -0.080 A  
HETATM   32  F   UNL     1      -5.843   8.320  74.372  1.00  0.00    -0.086 F  
ENDBRANCH   7  26
ENDBRANCH   2   4
TORSDOF 7
ENDMDL
MODEL      154
REMARK 921   NORMALIZED FREE ENERGY PREDICTED BY IDOCK:   -4.16 KCAL/MOL
REMARK 922        TOTAL FREE ENERGY PREDICTED BY IDOCK:   -7.56 KCAL/MOL
REMARK 923 INTER-LIGAND FREE ENERGY PREDICTED BY IDOCK:   -5.93 KCAL/MOL
REMARK 924 INTRA-LIGAND FREE ENERGY PREDICTED BY IDOCK:   -1.64 KCAL/MOL
REMARK 927      BINDING AFFINITY PREDICTED BY RF-SCORE:    0.00 PKD
ROOT
HETATM    1  C   UNL     1      -5.759   7.928  64.722  1.00  0.00    -0.044 C  
HETATM    2  C   UNL     1      -7.249   8.225  64.918  1.00  0.00    -0.081 C  
HETATM    3  C   UNL     1      -8.000   8.616  63.645  1.00  0.00    -0.160 C  
ENDROOT
BRANCH   2   4
HETATM    4  N   UNL     1      -7.967   7.229  65.724  1.00  0.00    -0.115 NA 
HETATM    5  C   UNL     1      -8.421   7.348  67.034  1.00  0.00    -0.118 A  
HETATM    6  C   UNL     1      -9.211   3.413  64.657  1.00  0.00    -0.140 A  
HETATM    7  C   UNL     1      -9.173   6.200  67.333  1.00  0.00    -0.112 A  
HETATM    8  C   UNL     1      -8.393   4.062  63.747  1.00  0.00    -0.094 A  
HETATM    9  C   UNL     1      -8.272   5.966  65.231  1.00  0.00    -0.141 A  
HETATM   10  C   UNL     1      -9.068   5.324  66.187  1.00  0.00    -0.148 A  
HETATM   11  C   UNL     1      -9.564   4.037  65.861  1.00  0.00    -0.195 A  
HETATM   12  C   UNL     1      -7.925   5.347  64.013  1.00  0.00    -0.111 A  
BRANCH   5  13
HETATM   13  C   UNL     1      -8.137   8.533  67.771  1.00  0.00    -0.115 C  
HETATM   14  C   UNL     1      -8.858   9.657  67.624  1.00  0.00    -0.127 C  
BRANCH  14  15
HETATM   15  C   UNL     1      -8.627  10.910  68.422  1.00  0.00    -0.146 C  
HETATM   16  H   UNL     1      -7.865  11.294  70.143  1.00  0.00     0.000 HD 
HETATM   17  O   UNL     1      -8.011  10.502  69.639  1.00  0.00    -0.143 OA 
BRANCH  15  18
HETATM   18  C   UNL     1      -9.940  11.662  68.688  1.00  0.00    -0.192 C  
BRANCH  18  19
HETATM   19  C   UNL     1     -10.283  12.702  67.606  1.00  0.00    -0.217 C  
HETATM   20  O   UNL     1     -10.517  13.986  68.208  1.00  0.00    -0.232 OA 
HETATM   21  H   UNL     1     -10.729  14.627  67.540  1.00  0.00     0.000 HD 
BRANCH  19  22
HETATM   22  C   UNL     1     -11.516  12.321  66.788  1.00  0.00    -0.421 C  
HETATM   23  C   UNL     1     -11.318  12.331  65.289  1.00  0.00    -0.338 C  
HETATM   24  O   UNL     1     -10.109  11.898  64.871  1.00  0.00    -0.255 OA 
HETATM   25  O   UNL     1     -12.210  12.623  64.506  1.00  0.00    -0.395 OA 
ENDBRANCH  19  22
ENDBRANCH  18  19
ENDBRANCH  15  18
ENDBRANCH  14  15
ENDBRANCH   5  13
BRANCH   7  26
HETATM   26  C   UNL     1      -9.848   5.962  68.628  1.00  0.00    -0.170 A  
HETATM   27  C   UNL     1      -9.936   4.820  70.793  1.00  0.00    -0.291 A  
HETATM   28  C   UNL     1     -11.571   6.509  70.281  1.00  0.00    -0.473 A  
HETATM   29  C   UNL     1     -11.031   5.585  71.160  1.00  0.00    -0.125 A  
HETATM   30  C   UNL     1      -9.339   5.023  69.543  1.00  0.00    -0.184 A  
HETATM   31  C   UNL     1     -11.000   6.672  69.013  1.00  0.00    -0.332 A  
HETATM   32  F   UNL     1     -11.568   5.435  72.378  1.00  0.00    -0.311 F  
ENDBRANCH   7  26
ENDBRANCH   2   4
TORSDOF 7
ENDMDL
MODEL      155
REMARK 921   NORMALIZED FREE ENERGY PREDICTED BY IDOCK:   -4.16 KCAL/MOL
REMARK 922        TOTAL FREE ENERGY PREDICTED BY IDOCK:   -7.56 KCAL/MOL
REMARK 923 INTER-LIGAND FREE ENERGY PREDICTED BY IDOCK:   -5.73 KCAL/MOL
REMARK 924 INTRA-LIGAND FREE ENERGY PREDICTED BY IDOCK:   -1.83 KCAL/MOL
REMARK 927      BINDING AFFINITY PREDICTED BY RF-SCORE:    0.00 PKD
ROOT
HETATM    1  C   UNL     1      -9.893   5.175  68.882  1.00  0.00    -0.241 C  
HETATM    2  C   UNL     1      -9.807   5.950  67.563  1.00  0.00    -0.125 C  
HETATM    3  C   UNL     1     -11.150   6.431  67.012  1.00  0.00    -0.405 C  
ENDROOT
BRANCH   2   4
HETATM    4  N   UNL     1      -8.770   6.991  67.534  1.00  0.00    -0.121 NA 
HETATM    5  C   UNL     1      -8.707   8.162  68.283  1.00  0.00    -0.133 A  
HETATM    6  C   UNL     1      -5.288   7.146  65.277  1.00  0.00    -0.028 A  
HETATM    7  C   UNL     1      -7.470   8.772  68.021  1.00  0.00    -0.093 A  
HETATM    8  C   UNL     1      -6.170   6.124  64.964  1.00  0.00    -0.030 A  
HETATM    9  C   UNL     1      -7.677   6.917  66.679  1.00  0.00    -0.105 A  
HETATM   10  C   UNL     1      -6.825   7.979  66.997  1.00  0.00    -0.073 A  
HETATM   11  C   UNL     1      -5.596   8.059  66.294  1.00  0.00    -0.029 A  
HETATM   12  C   UNL     1      -7.366   5.988  65.666  1.00  0.00    -0.076 A  
BRANCH   5  13
HETATM   13  C   UNL     1      -9.776   8.491  69.164  1.00  0.00    -0.170 C  
HETATM   14  C   UNL     1     -10.447   9.651  69.073  1.00  0.00    -0.229 C  
BRANCH  14  15
HETATM   15  C   UNL     1     -11.616  10.013  69.947  1.00  0.00    -0.175 C  
HETATM   16  H   UNL     1     -12.428  11.664  70.500  1.00  0.00     0.000 HD 
HETATM   17  O   UNL     1     -11.689  11.436  69.947  1.00  0.00    -0.294 OA 
BRANCH  15  18
HETATM   18  C   UNL     1     -11.448   9.466  71.373  1.00  0.00    -0.449 C  
BRANCH  18  19
HETATM   19  C   UNL     1     -12.566   8.494  71.794  1.00  0.00    -0.346 C  
HETATM   20  O   UNL     1     -13.046   8.830  73.106  1.00  0.00    -0.794 OA 
HETATM   21  H   UNL     1     -13.736   8.231  73.365  1.00  0.00     0.000 HD 
BRANCH  19  22
HETATM   22  C   UNL     1     -12.112   7.036  71.804  1.00  0.00    -0.371 C  
HETATM   23  C   UNL     1     -10.897   6.750  72.659  1.00  0.00    -0.250 C  
HETATM   24  O   UNL     1     -10.833   7.453  73.810  1.00  0.00    -0.321 OA 
HETATM   25  O   UNL     1     -10.079   5.886  72.377  1.00  0.00    -0.174 OA 
ENDBRANCH  19  22
ENDBRANCH  18  19
ENDBRANCH  15  18
ENDBRANCH  14  15
ENDBRANCH   5  13
BRANCH   7  26
HETATM   26  C   UNL     1      -7.014  10.031  68.649  1.00  0.00    -0.069 A  
HETATM   27  C   UNL     1      -7.036  12.479  68.749  1.00  0.00    -0.092 A  
HETATM   28  C   UNL     1      -5.843  11.238  70.430  1.00  0.00    -0.151 A  
HETATM   29  C   UNL     1      -6.274  12.446  69.906  1.00  0.00    -0.102 A  
HETATM   30  C   UNL     1      -7.418  11.278  68.138  1.00  0.00    -0.091 A  
HETATM   31  C   UNL     1      -6.185  10.043  69.786  1.00  0.00    -0.054 A  
HETATM   32  F   UNL     1      -5.957  13.590  70.525  1.00  0.00    -0.144 F  
ENDBRANCH   7  26
ENDBRANCH   2   4
TORSDOF 7
ENDMDL
MODEL      156
REMARK 921   NORMALIZED FREE ENERGY PREDICTED BY IDOCK:   -4.12 KCAL/MOL
REMARK 922        TOTAL FREE ENERGY PREDICTED BY IDOCK:   -7.51 KCAL/MOL
REMARK 923 INTER-LIGAND FREE ENERGY PREDICTED BY IDOCK:   -6.73 KCAL/MOL
REMARK 924 INTRA-LIGAND FREE ENERGY PREDICTED BY IDOCK:   -0.78 KCAL/MOL
REMARK 927      BINDING AFFINITY PREDICTED BY RF-SCORE:    0.00 PKD
ROOT
HETATM    1  C   UNL     1      -7.460  10.565  65.688  1.00  0.00    -0.129 C  
HETATM    2  C   UNL     1      -6.790  10.440  67.060  1.00  0.00    -0.085 C  
HETATM    3  C   UNL     1      -6.137  11.722  67.577  1.00  0.00    -0.092 C  
ENDROOT
BRANCH   2   4
HETATM    4  N   UNL     1      -7.608   9.764  68.077  1.00  0.00    -0.082 NA 
HETATM    5  C   UNL     1      -8.739  10.245  68.728  1.00  0.00    -0.144 A  
HETATM    6  C   UNL     1      -7.177   5.951  69.664  1.00  0.00    -0.070 A  
HETATM    7  C   UNL     1      -9.263   9.200  69.507  1.00  0.00    -0.160 A  
HETATM    8  C   UNL     1      -6.147   6.389  68.848  1.00  0.00    -0.029 A  
HETATM    9  C   UNL     1      -7.301   8.491  68.541  1.00  0.00    -0.092 A  
HETATM   10  C   UNL     1      -8.340   8.092  69.388  1.00  0.00    -0.123 A  
HETATM   11  C   UNL     1      -8.275   6.781  69.924  1.00  0.00    -0.127 A  
HETATM   12  C   UNL     1      -6.200   7.655  68.266  1.00  0.00    -0.040 A  
BRANCH   5  13
HETATM   13  C   UNL     1      -9.186  11.573  68.474  1.00  0.00    -0.167 C  
HETATM   14  C   UNL     1     -10.249  11.834  67.696  1.00  0.00    -0.216 C  
BRANCH  14  15
HETATM   15  C   UNL     1     -10.786  13.217  67.447  1.00  0.00    -0.253 C  
HETATM   16  H   UNL     1     -10.925  14.354  65.905  1.00  0.00     0.000 HD 
HETATM   17  O   UNL     1     -10.585  13.480  66.061  1.00  0.00    -0.278 OA 
BRANCH  15  18
HETATM   18  C   UNL     1     -10.078  14.264  68.320  1.00  0.00    -0.238 C  
BRANCH  18  19
HETATM   19  C   UNL     1     -10.975  14.848  69.427  1.00  0.00    -0.271 C  
HETATM   20  O   UNL     1     -12.325  14.981  68.953  1.00  0.00    -0.577 OA 
HETATM   21  H   UNL     1     -12.878  15.341  69.636  1.00  0.00     0.000 HD 
BRANCH  19  22
HETATM   22  C   UNL     1     -10.499  16.214  69.917  1.00  0.00    -0.261 C  
HETATM   23  C   UNL     1     -10.149  17.200  68.825  1.00  0.00    -0.329 C  
HETATM   24  O   UNL     1     -10.944  17.148  67.735  1.00  0.00    -0.315 OA 
HETATM   25  O   UNL     1      -9.270  18.040  68.950  1.00  0.00    -0.244 OA 
ENDBRANCH  19  22
ENDBRANCH  18  19
ENDBRANCH  15  18
ENDBRANCH  14  15
ENDBRANCH   5  13
BRANCH   7  26
HETATM   26  C   UNL     1     -10.485   9.309  70.333  1.00  0.00    -0.296 A  
HETATM   27  C   UNL     1     -11.693   8.816  72.406  1.00  0.00    -0.337 A  
HETATM   28  C   UNL     1     -12.715  10.233  70.751  1.00  0.00    -0.434 A  
HETATM   29  C   UNL     1     -12.747   9.613  71.990  1.00  0.00    -0.385 A  
HETATM   30  C   UNL     1     -10.563   8.683  71.590  1.00  0.00    -0.374 A  
HETATM   31  C   UNL     1     -11.604  10.055  69.918  1.00  0.00    -0.237 A  
HETATM   32  F   UNL     1     -13.804   9.790  72.793  1.00  0.00    -0.347 F  
ENDBRANCH   7  26
ENDBRANCH   2   4
TORSDOF 7
ENDMDL
MODEL      157
REMARK 921   NORMALIZED FREE ENERGY PREDICTED BY IDOCK:   -4.09 KCAL/MOL
REMARK 922        TOTAL FREE ENERGY PREDICTED BY IDOCK:   -7.47 KCAL/MOL
REMARK 923 INTER-LIGAND FREE ENERGY PREDICTED BY IDOCK:   -5.75 KCAL/MOL
REMARK 924 INTRA-LIGAND FREE ENERGY PREDICTED BY IDOCK:   -1.72 KCAL/MOL
REMARK 927      BINDING AFFINITY PREDICTED BY RF-SCORE:    0.00 PKD
ROOT
HETATM    1  C   UNL     1      -6.623   7.690  66.128  1.00  0.00    -0.049 C  
HETATM    2  C   UNL     1      -7.347   8.939  65.616  1.00  0.00    -0.085 C  
HETATM    3  C   UNL     1      -8.302   8.694  64.447  1.00  0.00    -0.148 C  
ENDROOT
BRANCH   2   4
HETATM    4  N   UNL     1      -7.934   9.778  66.669  1.00  0.00    -0.112 NA 
HETATM    5  C   UNL     1      -9.112   9.565  67.380  1.00  0.00    -0.130 A  
HETATM    6  C   UNL     1      -6.484  13.304  68.314  1.00  0.00    -0.099 A  
HETATM    7  C   UNL     1      -9.194  10.551  68.378  1.00  0.00    -0.154 A  
HETATM    8  C   UNL     1      -5.804  12.826  67.206  1.00  0.00    -0.019 A  
HETATM    9  C   UNL     1      -7.343  10.966  67.080  1.00  0.00    -0.118 A  
HETATM   10  C   UNL     1      -8.071  11.440  68.176  1.00  0.00    -0.137 A  
HETATM   11  C   UNL     1      -7.597  12.616  68.812  1.00  0.00    -0.022 A  
HETATM   12  C   UNL     1      -6.214  11.648  66.583  1.00  0.00    -0.079 A  
BRANCH   5  13
HETATM   13  C   UNL     1      -9.934   8.448  67.060  1.00  0.00    -0.323 C  
HETATM   14  C   UNL     1      -9.911   7.313  67.778  1.00  0.00    -0.205 C  
BRANCH  14  15
HETATM   15  C   UNL     1     -10.802   6.132  67.508  1.00  0.00    -0.332 C  
HETATM   16  H   UNL     1     -11.802   4.915  68.608  1.00  0.00     0.000 HD 
HETATM   17  O   UNL     1     -11.239   5.661  68.779  1.00  0.00    -0.060 OA 
BRANCH  15  18
HETATM   18  C   UNL     1     -10.063   5.032  66.731  1.00  0.00    -0.270 C  
BRANCH  18  19
HETATM   19  C   UNL     1     -10.231   5.139  65.204  1.00  0.00     0.413 C  
HETATM   20  O   UNL     1     -11.265   4.247  64.755  1.00  0.00    -0.838 OA 
HETATM   21  H   UNL     1     -11.368   4.313  63.814  1.00  0.00     0.000 HD 
BRANCH  19  22
HETATM   22  C   UNL     1      -8.948   4.814  64.443  1.00  0.00    -0.117 C  
HETATM   23  C   UNL     1      -8.336   3.469  64.763  1.00  0.00    -0.093 C  
HETATM   24  O   UNL     1      -9.226   2.476  64.979  1.00  0.00    -0.139 OA 
HETATM   25  O   UNL     1      -7.130   3.269  64.742  1.00  0.00    -0.058 OA 
ENDBRANCH  19  22
ENDBRANCH  18  19
ENDBRANCH  15  18
ENDBRANCH  14  15
ENDBRANCH   5  13
BRANCH   7  26
HETATM   26  C   UNL     1     -10.294  10.648  69.362  1.00  0.00    -0.234 A  
HETATM   27  C   UNL     1     -12.406  11.656  70.087  1.00  0.00    -0.297 A  
HETATM   28  C   UNL     1     -11.467   9.840  71.355  1.00  0.00    -0.435 A  
HETATM   29  C   UNL     1     -12.477  10.765  71.145  1.00  0.00    -0.414 A  
HETATM   30  C   UNL     1     -11.331  11.583  69.192  1.00  0.00    -0.351 A  
HETATM   31  C   UNL     1     -10.369   9.805  70.486  1.00  0.00    -0.348 A  
HETATM   32  F   UNL     1     -13.532  10.793  71.968  1.00  0.00    -0.499 F  
ENDBRANCH   7  26
ENDBRANCH   2   4
TORSDOF 7
ENDMDL
MODEL      158
REMARK 921   NORMALIZED FREE ENERGY PREDICTED BY IDOCK:   -4.09 KCAL/MOL
REMARK 922        TOTAL FREE ENERGY PREDICTED BY IDOCK:   -7.47 KCAL/MOL
REMARK 923 INTER-LIGAND FREE ENERGY PREDICTED BY IDOCK:   -6.50 KCAL/MOL
REMARK 924 INTRA-LIGAND FREE ENERGY PREDICTED BY IDOCK:   -0.97 KCAL/MOL
REMARK 927      BINDING AFFINITY PREDICTED BY RF-SCORE:    0.00 PKD
ROOT
HETATM    1  C   UNL     1      -9.859  15.590  70.193  1.00  0.00     0.006 C  
HETATM    2  C   UNL     1     -11.144  14.857  69.794  1.00  0.00    -0.274 C  
HETATM    3  C   UNL     1     -12.130  15.689  68.974  1.00  0.00    -0.227 C  
ENDROOT
BRANCH   2   4
HETATM    4  N   UNL     1     -10.932  13.512  69.242  1.00  0.00    -0.177 NA 
HETATM    5  C   UNL     1     -10.212  13.153  68.107  1.00  0.00    -0.239 A  
HETATM    6  C   UNL     1     -12.250   9.853  70.699  1.00  0.00    -0.325 A  
HETATM    7  C   UNL     1     -10.168  11.750  68.053  1.00  0.00    -0.202 A  
HETATM    8  C   UNL     1     -12.755  10.977  71.332  1.00  0.00    -0.534 A  
HETATM    9  C   UNL     1     -11.485  12.380  69.829  1.00  0.00    -0.149 A  
HETATM   10  C   UNL     1     -10.983  11.267  69.146  1.00  0.00    -0.292 A  
HETATM   11  C   UNL     1     -11.359   9.987  69.626  1.00  0.00    -0.253 A  
HETATM   12  C   UNL     1     -12.371  12.251  70.917  1.00  0.00    -0.363 A  
BRANCH   5  13
HETATM   13  C   UNL     1      -9.631  14.167  67.292  1.00  0.00    -0.234 C  
HETATM   14  C   UNL     1      -8.347  14.539  67.421  1.00  0.00    -0.217 C  
BRANCH  14  15
HETATM   15  C   UNL     1      -7.681  15.564  66.546  1.00  0.00     0.224 C  
HETATM   16  H   UNL     1      -6.073  16.607  66.673  1.00  0.00     0.000 HD 
HETATM   17  O   UNL     1      -6.493  15.960  67.226  1.00  0.00    -0.175 OA 
BRANCH  15  18
HETATM   18  C   UNL     1      -8.599  16.768  66.285  1.00  0.00    -0.340 C  
BRANCH  18  19
HETATM   19  C   UNL     1      -8.383  17.931  67.272  1.00  0.00    -0.225 C  
HETATM   20  O   UNL     1      -7.912  17.429  68.534  1.00  0.00    -0.249 OA 
HETATM   21  H   UNL     1      -7.779  18.146  69.142  1.00  0.00     0.000 HD 
BRANCH  19  22
HETATM   22  C   UNL     1      -9.653  18.743  67.518  1.00  0.00    -0.333 C  
HETATM   23  C   UNL     1      -9.636  20.145  66.952  1.00  0.00    -0.430 C  
HETATM   24  O   UNL     1      -9.012  20.270  65.761  1.00  0.00    -0.138 OA 
HETATM   25  O   UNL     1     -10.218  21.079  67.484  1.00  0.00    -0.077 OA 
ENDBRANCH  19  22
ENDBRANCH  18  19
ENDBRANCH  15  18
ENDBRANCH  14  15
ENDBRANCH   5  13
BRANCH   7  26
HETATM   26  C   UNL     1      -9.468  10.979  67.002  1.00  0.00    -0.191 A  
HETATM   27  C   UNL     1      -7.673   9.453  66.333  1.00  0.00    -0.097 A  
HETATM   28  C   UNL     1      -9.314  10.130  64.710  1.00  0.00    -0.324 A  
HETATM   29  C   UNL     1      -8.193   9.391  65.051  1.00  0.00    -0.138 A  
HETATM   30  C   UNL     1      -8.319  10.227  67.305  1.00  0.00    -0.121 A  
HETATM   31  C   UNL     1      -9.927  10.942  65.672  1.00  0.00    -0.305 A  
HETATM   32  F   UNL     1      -7.612   8.605  64.136  1.00  0.00    -0.100 F  
ENDBRANCH   7  26
ENDBRANCH   2   4
TORSDOF 7
ENDMDL
MODEL      159
REMARK 921   NORMALIZED FREE ENERGY PREDICTED BY IDOCK:   -4.07 KCAL/MOL
REMARK 922        TOTAL FREE ENERGY PREDICTED BY IDOCK:   -7.44 KCAL/MOL
REMARK 923 INTER-LIGAND FREE ENERGY PREDICTED BY IDOCK:   -5.75 KCAL/MOL
REMARK 924 INTRA-LIGAND FREE ENERGY PREDICTED BY IDOCK:   -1.69 KCAL/MOL
REMARK 927      BINDING AFFINITY PREDICTED BY RF-SCORE:    0.00 PKD
ROOT
HETATM    1  C   UNL     1     -10.672   7.579  67.021  1.00  0.00    -0.367 C  
HETATM    2  C   UNL     1     -10.316   8.042  68.437  1.00  0.00    -0.199 C  
HETATM    3  C   UNL     1     -10.467   6.972  69.520  1.00  0.00    -0.235 C  
ENDROOT
BRANCH   2   4
HETATM    4  N   UNL     1      -9.052   8.783  68.537  1.00  0.00    -0.138 NA 
HETATM    5  C   UNL     1      -8.868  10.137  68.804  1.00  0.00    -0.146 A  
HETATM    6  C   UNL     1      -5.163   7.375  68.172  1.00  0.00    -0.025 A  
HETATM    7  C   UNL     1      -7.488  10.363  68.941  1.00  0.00    -0.099 A  
HETATM    8  C   UNL     1      -6.167   6.476  67.851  1.00  0.00    -0.028 A  
HETATM    9  C   UNL     1      -7.821   8.169  68.341  1.00  0.00    -0.118 A  
HETATM   10  C   UNL     1      -6.831   9.110  68.639  1.00  0.00    -0.062 A  
HETATM   11  C   UNL     1      -5.482   8.676  68.579  1.00  0.00    -0.037 A  
HETATM   12  C   UNL     1      -7.505   6.854  67.943  1.00  0.00    -0.099 A  
BRANCH   5  13
HETATM   13  C   UNL     1     -10.002  10.985  68.950  1.00  0.00    -0.201 C  
HETATM   14  C   UNL     1     -10.628  11.531  67.894  1.00  0.00    -0.224 C  
BRANCH  14  15
HETATM   15  C   UNL     1     -11.860  12.386  68.001  1.00  0.00    -0.316 C  
HETATM   16  H   UNL     1     -13.050  13.205  66.735  1.00  0.00     0.000 HD 
HETATM   17  O   UNL     1     -12.271  12.664  66.666  1.00  0.00    -0.517 OA 
BRANCH  15  18
HETATM   18  C   UNL     1     -11.584  13.681  68.779  1.00  0.00    -0.359 C  
BRANCH  18  19
HETATM   19  C   UNL     1     -10.502  14.567  68.134  1.00  0.00    -0.239 C  
HETATM   20  O   UNL     1      -9.939  15.455  69.113  1.00  0.00    -0.213 OA 
HETATM   21  H   UNL     1      -9.271  16.001  68.715  1.00  0.00     0.000 HD 
BRANCH  19  22
HETATM   22  C   UNL     1     -11.036  15.403  66.973  1.00  0.00    -0.306 C  
HETATM   23  C   UNL     1     -10.051  16.392  66.390  1.00  0.00    -0.316 C  
HETATM   24  O   UNL     1      -8.773  15.959  66.338  1.00  0.00    -0.275 OA 
HETATM   25  O   UNL     1     -10.393  17.467  65.920  1.00  0.00    -0.494 OA 
ENDBRANCH  19  22
ENDBRANCH  18  19
ENDBRANCH  15  18
ENDBRANCH  14  15
ENDBRANCH   5  13
BRANCH   7  26
HETATM   26  C   UNL     1      -6.888  11.678  69.255  1.00  0.00    -0.104 A  
HETATM   27  C   UNL     1      -6.531  14.034  68.686  1.00  0.00    -0.091 A  
HETATM   28  C   UNL     1      -5.682  13.179  70.769  1.00  0.00    -0.170 A  
HETATM   29  C   UNL     1      -5.875  14.232  69.891  1.00  0.00    -0.123 A  
HETATM   30  C   UNL     1      -7.050  12.769  68.382  1.00  0.00    -0.102 A  
HETATM   31  C   UNL     1      -6.159  11.905  70.437  1.00  0.00    -0.041 A  
HETATM   32  F   UNL     1      -5.430  15.454  70.211  1.00  0.00    -0.111 F  
ENDBRANCH   7  26
ENDBRANCH   2   4
TORSDOF 7
ENDMDL
MODEL      160
REMARK 921   NORMALIZED FREE ENERGY PREDICTED BY IDOCK:   -4.07 KCAL/MOL
REMARK 922        TOTAL FREE ENERGY PREDICTED BY IDOCK:   -7.44 KCAL/MOL
REMARK 923 INTER-LIGAND FREE ENERGY PREDICTED BY IDOCK:   -5.88 KCAL/MOL
REMARK 924 INTRA-LIGAND FREE ENERGY PREDICTED BY IDOCK:   -1.55 KCAL/MOL
REMARK 927      BINDING AFFINITY PREDICTED BY RF-SCORE:    0.00 PKD
ROOT
HETATM    1  C   UNL     1      -9.973  11.528  63.283  1.00  0.00    -0.435 C  
HETATM    2  C   UNL     1     -11.001  12.201  64.199  1.00  0.00    -0.361 C  
HETATM    3  C   UNL     1     -12.451  11.782  63.954  1.00  0.00    -0.380 C  
ENDROOT
BRANCH   2   4
HETATM    4  N   UNL     1     -10.638  12.204  65.623  1.00  0.00    -0.253 NA 
HETATM    5  C   UNL     1     -10.246  11.128  66.412  1.00  0.00    -0.233 A  
HETATM    6  C   UNL     1     -10.455  15.404  68.264  1.00  0.00    -0.241 A  
HETATM    7  C   UNL     1      -9.865  11.632  67.667  1.00  0.00    -0.195 A  
HETATM    8  C   UNL     1     -11.003  15.673  67.020  1.00  0.00    -0.261 A  
HETATM    9  C   UNL     1     -10.672  13.364  66.388  1.00  0.00    -0.286 A  
HETATM   10  C   UNL     1     -10.145  13.051  67.645  1.00  0.00    -0.217 A  
HETATM   11  C   UNL     1     -10.012  14.113  68.576  1.00  0.00    -0.235 A  
HETATM   12  C   UNL     1     -11.108  14.664  66.064  1.00  0.00    -0.332 A  
BRANCH   5  13
HETATM   13  C   UNL     1     -10.228   9.817  65.855  1.00  0.00    -0.245 C  
HETATM   14  C   UNL     1      -9.514   8.818  66.399  1.00  0.00    -0.291 C  
BRANCH  14  15
HETATM   15  C   UNL     1      -9.511   7.409  65.876  1.00  0.00     0.175 C  
HETATM   16  H   UNL     1     -10.719   5.920  66.001  1.00  0.00     0.000 HD 
HETATM   17  O   UNL     1     -10.721   6.810  66.332  1.00  0.00    -0.039 OA 
BRANCH  15  18
HETATM   18  C   UNL     1      -8.284   6.625  66.366  1.00  0.00    -0.117 C  
BRANCH  18  19
HETATM   19  C   UNL     1      -7.722   7.138  67.705  1.00  0.00    -0.112 C  
HETATM   20  O   UNL     1      -6.447   7.768  67.498  1.00  0.00    -0.052 OA 
HETATM   21  H   UNL     1      -6.101   8.085  68.324  1.00  0.00     0.000 HD 
BRANCH  19  22
HETATM   22  C   UNL     1      -7.551   6.028  68.740  1.00  0.00    -0.091 C  
HETATM   23  C   UNL     1      -8.668   5.920  69.754  1.00  0.00    -0.129 C  
HETATM   24  O   UNL     1      -9.904   6.162  69.267  1.00  0.00    -0.143 OA 
HETATM   25  O   UNL     1      -8.481   5.556  70.906  1.00  0.00    -0.119 OA 
ENDBRANCH  19  22
ENDBRANCH  18  19
ENDBRANCH  15  18
ENDBRANCH  14  15
ENDBRANCH   5  13
BRANCH   7  26
HETATM   26  C   UNL     1      -9.361  10.799  68.780  1.00  0.00    -0.186 A  
HETATM   27  C   UNL     1      -7.514  10.081  70.221  1.00  0.00    -0.143 A  
HETATM   28  C   UNL     1      -9.736   9.264  70.651  1.00  0.00    -0.334 A  
HETATM   29  C   UNL     1      -8.393   9.328  70.984  1.00  0.00    -0.081 A  
HETATM   30  C   UNL     1      -8.001  10.825  69.139  1.00  0.00    -0.135 A  
HETATM   31  C   UNL     1     -10.208   9.970  69.538  1.00  0.00    -0.255 A  
HETATM   32  F   UNL     1      -7.941   8.662  72.054  1.00  0.00    -0.156 F  
ENDBRANCH   7  26
ENDBRANCH   2   4
TORSDOF 7
ENDMDL
MODEL      161
REMARK 921   NORMALIZED FREE ENERGY PREDICTED BY IDOCK:   -4.03 KCAL/MOL
REMARK 922        TOTAL FREE ENERGY PREDICTED BY IDOCK:   -7.39 KCAL/MOL
REMARK 923 INTER-LIGAND FREE ENERGY PREDICTED BY IDOCK:   -6.65 KCAL/MOL
REMARK 924 INTRA-LIGAND FREE ENERGY PREDICTED BY IDOCK:   -0.74 KCAL/MOL
REMARK 927      BINDING AFFINITY PREDICTED BY RF-SCORE:    0.00 PKD
ROOT
HETATM    1  C   UNL     1     -11.062  10.074  69.849  1.00  0.00    -0.336 C  
HETATM    2  C   UNL     1      -9.912   9.825  68.868  1.00  0.00    -0.176 C  
HETATM    3  C   UNL     1     -10.339   9.637  67.411  1.00  0.00    -0.306 C  
ENDROOT
BRANCH   2   4
HETATM    4  N   UNL     1      -8.775  10.743  69.017  1.00  0.00    -0.155 NA 
HETATM    5  C   UNL     1      -8.666  12.056  68.569  1.00  0.00    -0.095 A  
HETATM    6  C   UNL     1      -5.140  10.110  70.922  1.00  0.00    -0.061 A  
HETATM    7  C   UNL     1      -7.459  12.579  69.063  1.00  0.00     0.088 A  
HETATM    8  C   UNL     1      -5.955   8.998  70.784  1.00  0.00    -0.041 A  
HETATM    9  C   UNL     1      -7.598  10.360  69.647  1.00  0.00    -0.153 A  
HETATM   10  C   UNL     1      -6.784  11.494  69.741  1.00  0.00    -0.047 A  
HETATM   11  C   UNL     1      -5.549  11.353  70.424  1.00  0.00    -0.139 A  
HETATM   12  C   UNL     1      -7.196   9.109  70.159  1.00  0.00    -0.070 A  
BRANCH   5  13
HETATM   13  C   UNL     1      -9.726  12.631  67.811  1.00  0.00    -0.206 C  
HETATM   14  C   UNL     1     -10.793  13.204  68.393  1.00  0.00    -0.283 C  
BRANCH  14  15
HETATM   15  C   UNL     1     -11.905  13.870  67.631  1.00  0.00    -0.386 C  
HETATM   16  H   UNL     1     -13.248  13.265  66.399  1.00  0.00     0.000 HD 
HETATM   17  O   UNL     1     -12.545  12.844  66.879  1.00  0.00    -0.170 OA 
BRANCH  15  18
HETATM   18  C   UNL     1     -11.375  14.982  66.713  1.00  0.00    -0.293 C  
BRANCH  18  19
HETATM   19  C   UNL     1     -11.704  14.760  65.226  1.00  0.00    -0.311 C  
HETATM   20  O   UNL     1     -13.101  14.463  65.066  1.00  0.00    -0.615 OA 
HETATM   21  H   UNL     1     -13.304  14.325  64.149  1.00  0.00     0.000 HD 
BRANCH  19  22
HETATM   22  C   UNL     1     -10.894  13.624  64.603  1.00  0.00    -0.416 C  
HETATM   23  C   UNL     1     -11.667  12.730  63.659  1.00  0.00    -0.519 C  
HETATM   24  O   UNL     1     -12.581  13.364  62.894  1.00  0.00    -0.576 OA 
HETATM   25  O   UNL     1     -11.425  11.538  63.531  1.00  0.00    -0.404 OA 
ENDBRANCH  19  22
ENDBRANCH  18  19
ENDBRANCH  15  18
ENDBRANCH  14  15
ENDBRANCH   5  13
BRANCH   7  26
HETATM   26  C   UNL     1      -6.993  13.962  68.825  1.00  0.00    -0.108 A  
HETATM   27  C   UNL     1      -6.221  16.118  69.697  1.00  0.00    -0.191 A  
HETATM   28  C   UNL     1      -6.252  15.747  67.320  1.00  0.00    -0.068 A  
HETATM   29  C   UNL     1      -5.971  16.558  68.407  1.00  0.00    -0.123 A  
HETATM   30  C   UNL     1      -6.710  14.821  69.902  1.00  0.00    -0.172 A  
HETATM   31  C   UNL     1      -6.788  14.471  67.529  1.00  0.00    -0.168 A  
HETATM   32  F   UNL     1      -5.448  17.775  68.211  1.00  0.00    -0.144 F  
ENDBRANCH   7  26
ENDBRANCH   2   4
TORSDOF 7
ENDMDL
MODEL      162
REMARK 921   NORMALIZED FREE ENERGY PREDICTED BY IDOCK:   -4.03 KCAL/MOL
REMARK 922        TOTAL FREE ENERGY PREDICTED BY IDOCK:   -7.38 KCAL/MOL
REMARK 923 INTER-LIGAND FREE ENERGY PREDICTED BY IDOCK:   -6.26 KCAL/MOL
REMARK 924 INTRA-LIGAND FREE ENERGY PREDICTED BY IDOCK:   -1.12 KCAL/MOL
REMARK 927      BINDING AFFINITY PREDICTED BY RF-SCORE:    0.00 PKD
ROOT
HETATM    1  C   UNL     1      -8.051   9.439  64.506  1.00  0.00    -0.136 C  
HETATM    2  C   UNL     1      -7.822   9.895  65.951  1.00  0.00    -0.116 C  
HETATM    3  C   UNL     1      -6.733  10.954  66.126  1.00  0.00    -0.103 C  
ENDROOT
BRANCH   2   4
HETATM    4  N   UNL     1      -9.051  10.209  66.693  1.00  0.00    -0.143 NA 
HETATM    5  C   UNL     1      -9.526   9.617  67.859  1.00  0.00    -0.131 A  
HETATM    6  C   UNL     1     -11.916  13.107  65.892  1.00  0.00    -0.479 A  
HETATM    7  C   UNL     1     -10.658  10.337  68.275  1.00  0.00    -0.255 A  
HETATM    8  C   UNL     1     -10.952  12.920  64.916  1.00  0.00    -0.327 A  
HETATM    9  C   UNL     1      -9.939  11.187  66.264  1.00  0.00    -0.219 A  
HETATM   10  C   UNL     1     -10.918  11.328  67.254  1.00  0.00    -0.342 A  
HETATM   11  C   UNL     1     -11.897  12.335  67.061  1.00  0.00    -0.329 A  
HETATM   12  C   UNL     1      -9.946  11.970  65.092  1.00  0.00    -0.265 A  
BRANCH   5  13
HETATM   13  C   UNL     1      -8.818   8.521  68.430  1.00  0.00    -0.139 C  
HETATM   14  C   UNL     1      -7.927   8.683  69.421  1.00  0.00    -0.102 C  
BRANCH  14  15
HETATM   15  C   UNL     1      -7.200   7.549  70.088  1.00  0.00    -0.068 C  
HETATM   16  H   UNL     1      -5.735   6.408  69.595  1.00  0.00     0.000 HD 
HETATM   17  O   UNL     1      -6.194   7.125  69.173  1.00  0.00    -0.032 OA 
BRANCH  15  18
HETATM   18  C   UNL     1      -8.152   6.396  70.441  1.00  0.00    -0.117 C  
BRANCH  18  19
HETATM   19  C   UNL     1      -7.822   5.715  71.782  1.00  0.00    -0.109 C  
HETATM   20  O   UNL     1      -6.469   5.231  71.772  1.00  0.00    -0.036 OA 
HETATM   21  H   UNL     1      -6.266   4.811  72.599  1.00  0.00     0.000 HD 
BRANCH  19  22
HETATM   22  C   UNL     1      -8.752   4.545  72.097  1.00  0.00    -0.124 C  
HETATM   23  C   UNL     1      -8.843   3.490  71.017  1.00  0.00    -0.083 C  
HETATM   24  O   UNL     1      -7.685   3.237  70.369  1.00  0.00    -0.043 OA 
HETATM   25  O   UNL     1      -9.862   2.851  70.802  1.00  0.00    -0.118 OA 
ENDBRANCH  19  22
ENDBRANCH  18  19
ENDBRANCH  15  18
ENDBRANCH  14  15
ENDBRANCH   5  13
BRANCH   7  26
HETATM   26  C   UNL     1     -11.436  10.030  69.495  1.00  0.00    -0.176 A  
HETATM   27  C   UNL     1     -12.063   8.464  71.271  1.00  0.00    -0.315 A  
HETATM   28  C   UNL     1     -12.900  10.719  71.334  1.00  0.00    -0.557 A  
HETATM   29  C   UNL     1     -12.799   9.457  71.897  1.00  0.00    -0.412 A  
HETATM   30  C   UNL     1     -11.372   8.757  70.089  1.00  0.00    -0.099 A  
HETATM   31  C   UNL     1     -12.248  10.991  70.126  1.00  0.00    -0.424 A  
HETATM   32  F   UNL     1     -13.412   9.197  73.058  1.00  0.00    -0.458 F  
ENDBRANCH   7  26
ENDBRANCH   2   4
TORSDOF 7
ENDMDL
MODEL      163
REMARK 921   NORMALIZED FREE ENERGY PREDICTED BY IDOCK:   -4.02 KCAL/MOL
REMARK 922        TOTAL FREE ENERGY PREDICTED BY IDOCK:   -7.38 KCAL/MOL
REMARK 923 INTER-LIGAND FREE ENERGY PREDICTED BY IDOCK:   -6.19 KCAL/MOL
REMARK 924 INTRA-LIGAND FREE ENERGY PREDICTED BY IDOCK:   -1.18 KCAL/MOL
REMARK 927      BINDING AFFINITY PREDICTED BY RF-SCORE:    0.00 PKD
ROOT
HETATM    1  C   UNL     1     -10.444  15.224  70.954  1.00  0.00     0.151 C  
HETATM    2  C   UNL     1     -11.722  14.689  70.299  1.00  0.00    -0.297 C  
HETATM    3  C   UNL     1     -12.202  15.483  69.084  1.00  0.00    -0.175 C  
ENDROOT
BRANCH   2   4
HETATM    4  N   UNL     1     -11.729  13.237  70.073  1.00  0.00    -0.265 NA 
HETATM    5  C   UNL     1     -11.056  12.517  69.091  1.00  0.00    -0.196 A  
HETATM    6  C   UNL     1     -13.682  10.269  72.223  1.00  0.00    -0.067 A  
HETATM    7  C   UNL     1     -11.249  11.151  69.354  1.00  0.00    -0.334 A  
HETATM    8  C   UNL     1     -14.003  11.574  72.560  1.00  0.00     0.835 A  
HETATM    9  C   UNL     1     -12.479  12.374  70.862  1.00  0.00    -0.274 A  
HETATM   10  C   UNL     1     -12.159  11.068  70.475  1.00  0.00    -0.470 A  
HETATM   11  C   UNL     1     -12.757  10.009  71.204  1.00  0.00    -0.484 A  
HETATM   12  C   UNL     1     -13.399  12.641  71.896  1.00  0.00    -0.485 A  
BRANCH   5  13
HETATM   13  C   UNL     1     -10.293  13.211  68.109  1.00  0.00    -0.247 C  
HETATM   14  C   UNL     1      -8.975  13.430  68.250  1.00  0.00    -0.176 C  
BRANCH  14  15
HETATM   15  C   UNL     1      -8.123  14.108  67.213  1.00  0.00    -0.168 C  
HETATM   16  H   UNL     1      -6.450  13.699  66.363  1.00  0.00     0.000 HD 
HETATM   17  O   UNL     1      -6.988  13.270  67.018  1.00  0.00    -0.020 OA 
BRANCH  15  18
HETATM   18  C   UNL     1      -7.704  15.517  67.658  1.00  0.00    -0.178 C  
BRANCH  18  19
HETATM   19  C   UNL     1      -7.786  16.566  66.534  1.00  0.00    -0.303 C  
HETATM   20  O   UNL     1      -6.757  17.555  66.704  1.00  0.00    -0.177 OA 
HETATM   21  H   UNL     1      -6.808  18.202  66.010  1.00  0.00     0.000 HD 
BRANCH  19  22
HETATM   22  C   UNL     1      -9.137  17.278  66.485  1.00  0.00    -0.289 C  
HETATM   23  C   UNL     1     -10.075  16.798  65.401  1.00  0.00     0.024 C  
HETATM   24  O   UNL     1     -10.038  15.469  65.163  1.00  0.00    -0.328 OA 
HETATM   25  O   UNL     1     -10.870  17.537  64.840  1.00  0.00    -0.832 OA 
ENDBRANCH  19  22
ENDBRANCH  18  19
ENDBRANCH  15  18
ENDBRANCH  14  15
ENDBRANCH   5  13
BRANCH   7  26
HETATM   26  C   UNL     1     -10.667  10.058  68.544  1.00  0.00    -0.264 A  
HETATM   27  C   UNL     1      -9.490   7.913  68.412  1.00  0.00    -0.150 A  
HETATM   28  C   UNL     1     -10.302   8.942  66.394  1.00  0.00    -0.189 A  
HETATM   29  C   UNL     1      -9.669   7.892  67.038  1.00  0.00    -0.206 A  
HETATM   30  C   UNL     1     -10.004   8.981  69.159  1.00  0.00    -0.187 A  
HETATM   31  C   UNL     1     -10.769  10.031  67.140  1.00  0.00    -0.279 A  
HETATM   32  F   UNL     1      -9.231   6.845  66.328  1.00  0.00    -0.162 F  
ENDBRANCH   7  26
ENDBRANCH   2   4
TORSDOF 7
ENDMDL
MODEL      164
REMARK 921   NORMALIZED FREE ENERGY PREDICTED BY IDOCK:   -3.98 KCAL/MOL
REMARK 922        TOTAL FREE ENERGY PREDICTED BY IDOCK:   -7.32 KCAL/MOL
REMARK 923 INTER-LIGAND FREE ENERGY PREDICTED BY IDOCK:   -6.95 KCAL/MOL
REMARK 924 INTRA-LIGAND FREE ENERGY PREDICTED BY IDOCK:   -0.36 KCAL/MOL
REMARK 927      BINDING AFFINITY PREDICTED BY RF-SCORE:    0.00 PKD
ROOT
HETATM    1  C   UNL     1     -14.277   8.807  71.483  1.00  0.00    -0.364 C  
HETATM    2  C   UNL     1     -13.258   9.866  71.050  1.00  0.00    -0.304 C  
HETATM    3  C   UNL     1     -13.029  10.989  72.063  1.00  0.00    -0.398 C  
ENDROOT
BRANCH   2   4
HETATM    4  N   UNL     1     -12.007   9.321  70.507  1.00  0.00    -0.140 NA 
HETATM    5  C   UNL     1     -11.119   9.926  69.622  1.00  0.00    -0.241 A  
HETATM    6  C   UNL     1     -10.203   5.659  71.269  1.00  0.00    -0.279 A  
HETATM    7  C   UNL     1      -9.999   9.087  69.498  1.00  0.00    -0.193 A  
HETATM    8  C   UNL     1     -11.476   5.829  71.788  1.00  0.00    -0.199 A  
HETATM    9  C   UNL     1     -11.559   8.046  70.828  1.00  0.00    -0.242 A  
HETATM   10  C   UNL     1     -10.289   7.893  70.261  1.00  0.00    -0.212 A  
HETATM   11  C   UNL     1      -9.600   6.682  70.526  1.00  0.00    -0.177 A  
HETATM   12  C   UNL     1     -12.164   7.024  71.587  1.00  0.00    -0.395 A  
BRANCH   5  13
HETATM   13  C   UNL     1     -11.426  11.209  69.085  1.00  0.00    -0.366 C  
HETATM   14  C   UNL     1     -11.291  11.489  67.778  1.00  0.00    -0.364 C  
BRANCH  14  15
HETATM   15  C   UNL     1     -11.656  12.811  67.163  1.00  0.00    -0.364 C  
HETATM   16  H   UNL     1     -12.476  13.352  65.513  1.00  0.00     0.000 HD 
HETATM   17  O   UNL     1     -12.245  12.516  65.901  1.00  0.00    -0.593 OA 
BRANCH  15  18
HETATM   18  C   UNL     1     -10.427  13.719  67.004  1.00  0.00    -0.274 C  
BRANCH  18  19
HETATM   19  C   UNL     1      -9.761  14.092  68.342  1.00  0.00    -0.223 C  
HETATM   20  O   UNL     1     -10.757  14.238  69.368  1.00  0.00    -0.357 OA 
HETATM   21  H   UNL     1     -10.347  14.468  70.193  1.00  0.00     0.000 HD 
BRANCH  19  22
HETATM   22  C   UNL     1      -8.956  15.388  68.263  1.00  0.00    -0.185 C  
HETATM   23  C   UNL     1      -7.542  15.297  68.791  1.00  0.00    -0.139 C  
HETATM   24  O   UNL     1      -6.912  14.130  68.534  1.00  0.00    -0.090 OA 
HETATM   25  O   UNL     1      -6.977  16.236  69.333  1.00  0.00    -0.210 OA 
ENDBRANCH  19  22
ENDBRANCH  18  19
ENDBRANCH  15  18
ENDBRANCH  14  15
ENDBRANCH   5  13
BRANCH   7  26
HETATM   26  C   UNL     1      -8.818   9.395  68.662  1.00  0.00    -0.132 A  
HETATM   27  C   UNL     1      -6.875  10.805  68.176  1.00  0.00    -0.068 A  
HETATM   28  C   UNL     1      -7.249   8.818  66.872  1.00  0.00    -0.079 A  
HETATM   29  C   UNL     1      -6.484   9.932  67.173  1.00  0.00    -0.069 A  
HETATM   30  C   UNL     1      -8.024  10.525  68.926  1.00  0.00    -0.128 A  
HETATM   31  C   UNL     1      -8.424   8.570  67.592  1.00  0.00    -0.129 A  
HETATM   32  F   UNL     1      -5.354  10.166  66.494  1.00  0.00    -0.041 F  
ENDBRANCH   7  26
ENDBRANCH   2   4
TORSDOF 7
ENDMDL
MODEL      165
REMARK 921   NORMALIZED FREE ENERGY PREDICTED BY IDOCK:   -3.97 KCAL/MOL
REMARK 922        TOTAL FREE ENERGY PREDICTED BY IDOCK:   -7.30 KCAL/MOL
REMARK 923 INTER-LIGAND FREE ENERGY PREDICTED BY IDOCK:   -5.71 KCAL/MOL
REMARK 924 INTRA-LIGAND FREE ENERGY PREDICTED BY IDOCK:   -1.59 KCAL/MOL
REMARK 927      BINDING AFFINITY PREDICTED BY RF-SCORE:    0.00 PKD
ROOT
HETATM    1  C   UNL     1     -10.240   9.708  66.436  1.00  0.00    -0.288 C  
HETATM    2  C   UNL     1     -11.031  10.759  67.222  1.00  0.00    -0.297 C  
HETATM    3  C   UNL     1     -11.400  10.351  68.649  1.00  0.00    -0.277 C  
ENDROOT
BRANCH   2   4
HETATM    4  N   UNL     1     -10.486  12.120  67.138  1.00  0.00    -0.217 NA 
HETATM    5  C   UNL     1      -9.454  12.680  67.885  1.00  0.00    -0.204 A  
HETATM    6  C   UNL     1     -11.569  15.215  64.590  1.00  0.00    -0.357 A  
HETATM    7  C   UNL     1      -9.188  13.955  67.360  1.00  0.00    -0.224 A  
HETATM    8  C   UNL     1     -12.382  14.094  64.563  1.00  0.00    -0.419 A  
HETATM    9  C   UNL     1     -10.995  13.063  66.254  1.00  0.00    -0.284 A  
HETATM   10  C   UNL     1     -10.174  14.194  66.329  1.00  0.00    -0.301 A  
HETATM   11  C   UNL     1     -10.464  15.267  65.449  1.00  0.00    -0.422 A  
HETATM   12  C   UNL     1     -12.100  13.001  65.382  1.00  0.00    -0.490 A  
BRANCH   5  13
HETATM   13  C   UNL     1      -8.843  11.918  68.921  1.00  0.00     0.165 C  
HETATM   14  C   UNL     1      -7.699  11.240  68.731  1.00  0.00    -0.138 C  
BRANCH  14  15
HETATM   15  C   UNL     1      -6.992  10.470  69.812  1.00  0.00    -0.144 C  
HETATM   16  H   UNL     1      -5.418  10.766  70.872  1.00  0.00     0.000 HD 
HETATM   17  O   UNL     1      -5.864  11.253  70.189  1.00  0.00    -0.101 OA 
BRANCH  15  18
HETATM   18  C   UNL     1      -6.564   9.077  69.327  1.00  0.00    -0.049 C  
BRANCH  18  19
HETATM   19  C   UNL     1      -6.966   8.784  67.869  1.00  0.00    -0.078 C  
HETATM   20  O   UNL     1      -7.529   7.466  67.766  1.00  0.00    -0.096 OA 
HETATM   21  H   UNL     1      -7.777   7.285  66.867  1.00  0.00     0.000 HD 
BRANCH  19  22
HETATM   22  C   UNL     1      -5.791   8.885  66.899  1.00  0.00    -0.049 C  
HETATM   23  C   UNL     1      -6.167   9.198  65.468  1.00  0.00    -0.063 C  
HETATM   24  O   UNL     1      -7.195  10.061  65.326  1.00  0.00    -0.124 OA 
HETATM   25  O   UNL     1      -5.535   8.774  64.511  1.00  0.00    -0.056 OA 
ENDBRANCH  19  22
ENDBRANCH  18  19
ENDBRANCH  15  18
ENDBRANCH  14  15
ENDBRANCH   5  13
BRANCH   7  26
HETATM   26  C   UNL     1      -8.135  14.861  67.869  1.00  0.00    -0.148 A  
HETATM   27  C   UNL     1      -5.766  15.446  68.087  1.00  0.00    -0.138 A  
HETATM   28  C   UNL     1      -7.438  16.946  68.950  1.00  0.00    -0.238 A  
HETATM   29  C   UNL     1      -6.110  16.637  68.707  1.00  0.00    -0.144 A  
HETATM   30  C   UNL     1      -6.775  14.576  67.655  1.00  0.00    -0.194 A  
HETATM   31  C   UNL     1      -8.440  16.048  68.561  1.00  0.00    -0.189 A  
HETATM   32  F   UNL     1      -5.151  17.499  69.068  1.00  0.00    -0.148 F  
ENDBRANCH   7  26
ENDBRANCH   2   4
TORSDOF 7
ENDMDL
MODEL      166
REMARK 921   NORMALIZED FREE ENERGY PREDICTED BY IDOCK:   -3.97 KCAL/MOL
REMARK 922        TOTAL FREE ENERGY PREDICTED BY IDOCK:   -7.30 KCAL/MOL
REMARK 923 INTER-LIGAND FREE ENERGY PREDICTED BY IDOCK:   -6.96 KCAL/MOL
REMARK 924 INTRA-LIGAND FREE ENERGY PREDICTED BY IDOCK:   -0.34 KCAL/MOL
REMARK 927      BINDING AFFINITY PREDICTED BY RF-SCORE:    0.00 PKD
ROOT
HETATM    1  C   UNL     1      -6.599  11.051  67.398  1.00  0.00    -0.069 C  
HETATM    2  C   UNL     1      -7.925  11.738  67.740  1.00  0.00    -0.141 C  
HETATM    3  C   UNL     1      -8.781  11.007  68.774  1.00  0.00    -0.146 C  
ENDROOT
BRANCH   2   4
HETATM    4  N   UNL     1      -7.814  13.179  68.004  1.00  0.00    -0.133 NA 
HETATM    5  C   UNL     1      -8.470  14.224  67.361  1.00  0.00    -0.203 A  
HETATM    6  C   UNL     1      -5.547  15.139  70.879  1.00  0.00    -0.068 A  
HETATM    7  C   UNL     1      -8.159  15.411  68.045  1.00  0.00    -0.143 A  
HETATM    8  C   UNL     1      -5.315  13.780  70.745  1.00  0.00    -0.146 A  
HETATM    9  C   UNL     1      -6.966  13.684  68.982  1.00  0.00    -0.098 A  
HETATM   10  C   UNL     1      -7.199  15.061  69.068  1.00  0.00    -0.142 A  
HETATM   11  C   UNL     1      -6.490  15.779  70.064  1.00  0.00    -0.068 A  
HETATM   12  C   UNL     1      -6.027  13.034  69.808  1.00  0.00    -0.130 A  
BRANCH   5  13
HETATM   13  C   UNL     1      -9.325  13.944  66.257  1.00  0.00    -0.180 C  
HETATM   14  C   UNL     1     -10.663  13.916  66.377  1.00  0.00    -0.281 C  
BRANCH  14  15
HETATM   15  C   UNL     1     -11.603  13.680  65.228  1.00  0.00    -0.320 C  
HETATM   16  H   UNL     1     -13.482  13.953  64.942  1.00  0.00     0.000 HD 
HETATM   17  O   UNL     1     -12.889  14.103  65.669  1.00  0.00    -0.529 OA 
BRANCH  15  18
HETATM   18  C   UNL     1     -11.618  12.203  64.805  1.00  0.00    -0.380 C  
BRANCH  18  19
HETATM   19  C   UNL     1     -10.313  11.456  65.134  1.00  0.00    -0.290 C  
HETATM   20  O   UNL     1      -9.386  11.573  64.042  1.00  0.00    -0.404 OA 
HETATM   21  H   UNL     1      -8.581  11.112  64.245  1.00  0.00     0.000 HD 
BRANCH  19  22
HETATM   22  C   UNL     1     -10.535   9.972  65.422  1.00  0.00     0.041 C  
HETATM   23  C   UNL     1     -10.770   9.630  66.876  1.00  0.00    -0.115 C  
HETATM   24  O   UNL     1     -11.498  10.536  67.564  1.00  0.00    -0.431 OA 
HETATM   25  O   UNL     1     -10.406   8.574  67.374  1.00  0.00    -0.243 OA 
ENDBRANCH  19  22
ENDBRANCH  18  19
ENDBRANCH  15  18
ENDBRANCH  14  15
ENDBRANCH   5  13
BRANCH   7  26
HETATM   26  C   UNL     1      -8.688  16.744  67.680  1.00  0.00    -0.207 A  
HETATM   27  C   UNL     1      -8.629  18.724  66.239  1.00  0.00    -0.247 A  
HETATM   28  C   UNL     1     -10.342  18.534  67.917  1.00  0.00    -0.424 A  
HETATM   29  C   UNL     1      -9.757  19.225  66.869  1.00  0.00    -0.331 A  
HETATM   30  C   UNL     1      -8.112  17.483  66.630  1.00  0.00    -0.289 A  
HETATM   31  C   UNL     1      -9.791  17.318  68.338  1.00  0.00    -0.309 A  
HETATM   32  F   UNL     1     -10.289  20.383  66.458  1.00  0.00    -0.532 F  
ENDBRANCH   7  26
ENDBRANCH   2   4
TORSDOF 7
ENDMDL
MODEL      167
REMARK 921   NORMALIZED FREE ENERGY PREDICTED BY IDOCK:   -3.96 KCAL/MOL
REMARK 922        TOTAL FREE ENERGY PREDICTED BY IDOCK:   -7.28 KCAL/MOL
REMARK 923 INTER-LIGAND FREE ENERGY PREDICTED BY IDOCK:   -7.11 KCAL/MOL
REMARK 924 INTRA-LIGAND FREE ENERGY PREDICTED BY IDOCK:   -0.17 KCAL/MOL
REMARK 927      BINDING AFFINITY PREDICTED BY RF-SCORE:    0.00 PKD
ROOT
HETATM    1  C   UNL     1      -6.767  16.405  68.500  1.00  0.00    -0.142 C  
HETATM    2  C   UNL     1      -7.639  15.369  69.217  1.00  0.00    -0.216 C  
HETATM    3  C   UNL     1      -9.105  15.770  69.385  1.00  0.00    -0.254 C  
ENDROOT
BRANCH   2   4
HETATM    4  N   UNL     1      -7.473  13.992  68.732  1.00  0.00    -0.127 NA 
HETATM    5  C   UNL     1      -8.039  13.405  67.605  1.00  0.00    -0.175 A  
HETATM    6  C   UNL     1      -5.166  10.925  70.317  1.00  0.00    -0.063 A  
HETATM    7  C   UNL     1      -7.485  12.121  67.467  1.00  0.00    -0.148 A  
HETATM    8  C   UNL     1      -5.270  12.069  71.091  1.00  0.00    -0.115 A  
HETATM    9  C   UNL     1      -6.694  13.062  69.409  1.00  0.00    -0.018 A  
HETATM   10  C   UNL     1      -6.638  11.909  68.620  1.00  0.00    -0.066 A  
HETATM   11  C   UNL     1      -5.826  10.843  69.084  1.00  0.00    -0.041 A  
HETATM   12  C   UNL     1      -6.021  13.154  70.644  1.00  0.00    -0.070 A  
BRANCH   5  13
HETATM   13  C   UNL     1      -8.952  14.151  66.806  1.00  0.00    -0.229 C  
HETATM   14  C   UNL     1      -8.670  15.387  66.362  1.00  0.00    -0.307 C  
BRANCH  14  15
HETATM   15  C   UNL     1      -9.581  16.185  65.472  1.00  0.00    -0.022 C  
HETATM   16  H   UNL     1      -9.940  18.058  65.239  1.00  0.00     0.000 HD 
HETATM   17  O   UNL     1      -9.364  17.554  65.802  1.00  0.00    -0.515 OA 
BRANCH  15  18
HETATM   18  C   UNL     1     -11.053  15.793  65.671  1.00  0.00    -0.155 C  
BRANCH  18  19
HETATM   19  C   UNL     1     -11.623  14.942  64.521  1.00  0.00    -0.352 C  
HETATM   20  O   UNL     1     -12.500  15.736  63.705  1.00  0.00    -0.953 OA 
HETATM   21  H   UNL     1     -12.852  15.212  62.996  1.00  0.00     0.000 HD 
BRANCH  19  22
HETATM   22  C   UNL     1     -12.395  13.720  65.013  1.00  0.00    -0.456 C  
HETATM   23  C   UNL     1     -12.406  12.544  64.063  1.00  0.00    -0.469 C  
HETATM   24  O   UNL     1     -11.255  12.348  63.386  1.00  0.00    -0.456 OA 
HETATM   25  O   UNL     1     -13.352  11.774  63.976  1.00  0.00    -0.541 OA 
ENDBRANCH  19  22
ENDBRANCH  18  19
ENDBRANCH  15  18
ENDBRANCH  14  15
ENDBRANCH   5  13
BRANCH   7  26
HETATM   26  C   UNL     1      -7.816  11.186  66.370  1.00  0.00    -0.136 A  
HETATM   27  C   UNL     1      -9.481   9.920  65.093  1.00  0.00    -0.338 A  
HETATM   28  C   UNL     1      -7.180   9.894  64.388  1.00  0.00    -0.134 A  
HETATM   29  C   UNL     1      -8.500   9.515  64.203  1.00  0.00    -0.186 A  
HETATM   30  C   UNL     1      -9.141  10.766  66.157  1.00  0.00    -0.193 A  
HETATM   31  C   UNL     1      -6.839  10.699  65.482  1.00  0.00    -0.052 A  
HETATM   32  F   UNL     1      -8.831   8.755  63.151  1.00  0.00    -0.178 F  
ENDBRANCH   7  26
ENDBRANCH   2   4
TORSDOF 7
ENDMDL
MODEL      168
REMARK 921   NORMALIZED FREE ENERGY PREDICTED BY IDOCK:   -3.95 KCAL/MOL
REMARK 922        TOTAL FREE ENERGY PREDICTED BY IDOCK:   -7.27 KCAL/MOL
REMARK 923 INTER-LIGAND FREE ENERGY PREDICTED BY IDOCK:   -6.24 KCAL/MOL
REMARK 924 INTRA-LIGAND FREE ENERGY PREDICTED BY IDOCK:   -1.03 KCAL/MOL
REMARK 927      BINDING AFFINITY PREDICTED BY RF-SCORE:    0.00 PKD
ROOT
HETATM    1  C   UNL     1      -6.045   9.118  65.369  1.00  0.00    -0.063 C  
HETATM    2  C   UNL     1      -7.347   8.328  65.202  1.00  0.00    -0.081 C  
HETATM    3  C   UNL     1      -7.301   7.229  64.139  1.00  0.00    -0.091 C  
ENDROOT
BRANCH   2   4
HETATM    4  N   UNL     1      -7.955   7.880  66.462  1.00  0.00    -0.100 NA 
HETATM    5  C   UNL     1      -8.964   8.495  67.196  1.00  0.00    -0.130 A  
HETATM    6  C   UNL     1      -7.157   4.457  68.674  1.00  0.00    -0.052 A  
HETATM    7  C   UNL     1      -9.315   7.634  68.248  1.00  0.00    -0.145 A  
HETATM    8  C   UNL     1      -6.299   4.710  67.616  1.00  0.00    -0.040 A  
HETATM    9  C   UNL     1      -7.540   6.722  67.108  1.00  0.00    -0.099 A  
HETATM   10  C   UNL     1      -8.402   6.513  68.189  1.00  0.00    -0.116 A  
HETATM   11  C   UNL     1      -8.211   5.335  68.955  1.00  0.00    -0.085 A  
HETATM   12  C   UNL     1      -6.485   5.834  66.813  1.00  0.00    -0.050 A  
BRANCH   5  13
HETATM   13  C   UNL     1      -9.481   9.751  66.766  1.00  0.00    -0.209 C  
HETATM   14  C   UNL     1     -10.135   9.895  65.602  1.00  0.00    -0.307 C  
BRANCH  14  15
HETATM   15  C   UNL     1     -10.743  11.189  65.138  1.00  0.00    -0.210 C  
HETATM   16  H   UNL     1     -11.013  12.016  63.425  1.00  0.00     0.000 HD 
HETATM   17  O   UNL     1     -10.628  11.198  63.718  1.00  0.00    -0.363 OA 
BRANCH  15  18
HETATM   18  C   UNL     1     -10.036  12.402  65.761  1.00  0.00    -0.273 C  
BRANCH  18  19
HETATM   19  C   UNL     1     -10.914  13.666  65.810  1.00  0.00    -0.278 C  
HETATM   20  O   UNL     1     -10.103  14.824  66.071  1.00  0.00    -0.276 OA 
HETATM   21  H   UNL     1     -10.645  15.603  66.101  1.00  0.00     0.000 HD 
BRANCH  19  22
HETATM   22  C   UNL     1     -12.004  13.590  66.877  1.00  0.00    -0.447 C  
HETATM   23  C   UNL     1     -11.526  13.180  68.252  1.00  0.00    -0.314 C  
HETATM   24  O   UNL     1     -10.315  13.663  68.602  1.00  0.00    -0.238 OA 
HETATM   25  O   UNL     1     -12.217  12.533  69.026  1.00  0.00    -0.185 OA 
ENDBRANCH  19  22
ENDBRANCH  18  19
ENDBRANCH  15  18
ENDBRANCH  14  15
ENDBRANCH   5  13
BRANCH   7  26
HETATM   26  C   UNL     1     -10.374   7.921  69.240  1.00  0.00    -0.222 A  
HETATM   27  C   UNL     1     -12.145   7.132  70.739  1.00  0.00    -0.331 A  
HETATM   28  C   UNL     1     -11.553   9.464  70.733  1.00  0.00    -0.364 A  
HETATM   29  C   UNL     1     -12.307   8.416  71.234  1.00  0.00    -0.266 A  
HETATM   30  C   UNL     1     -11.171   6.886  69.763  1.00  0.00    -0.315 A  
HETATM   31  C   UNL     1     -10.616   9.221  69.722  1.00  0.00    -0.244 A  
HETATM   32  F   UNL     1     -13.196   8.644  72.209  1.00  0.00    -0.341 F  
ENDBRANCH   7  26
ENDBRANCH   2   4
TORSDOF 7
ENDMDL
MODEL      169
REMARK 921   NORMALIZED FREE ENERGY PREDICTED BY IDOCK:   -3.90 KCAL/MOL
REMARK 922        TOTAL FREE ENERGY PREDICTED BY IDOCK:   -7.20 KCAL/MOL
REMARK 923 INTER-LIGAND FREE ENERGY PREDICTED BY IDOCK:   -6.11 KCAL/MOL
REMARK 924 INTRA-LIGAND FREE ENERGY PREDICTED BY IDOCK:   -1.09 KCAL/MOL
REMARK 927      BINDING AFFINITY PREDICTED BY RF-SCORE:    0.00 PKD
ROOT
HETATM    1  C   UNL     1     -12.065   7.396  71.634  1.00  0.00    -0.349 C  
HETATM    2  C   UNL     1     -10.720   7.741  70.985  1.00  0.00    -0.228 C  
HETATM    3  C   UNL     1      -9.645   8.231  71.955  1.00  0.00    -0.316 C  
ENDROOT
BRANCH   2   4
HETATM    4  N   UNL     1     -10.223   6.731  70.041  1.00  0.00    -0.188 NA 
HETATM    5  C   UNL     1      -9.899   6.896  68.698  1.00  0.00    -0.145 A  
HETATM    6  C   UNL     1      -9.366   2.724  70.715  1.00  0.00    -0.221 A  
HETATM    7  C   UNL     1      -9.335   5.693  68.242  1.00  0.00    -0.123 A  
HETATM    8  C   UNL     1      -9.993   3.394  71.753  1.00  0.00    -0.194 A  
HETATM    9  C   UNL     1     -10.030   5.407  70.415  1.00  0.00    -0.223 A  
HETATM   10  C   UNL     1      -9.428   4.751  69.336  1.00  0.00    -0.229 A  
HETATM   11  C   UNL     1      -9.066   3.392  69.521  1.00  0.00    -0.202 A  
HETATM   12  C   UNL     1     -10.321   4.742  71.623  1.00  0.00    -0.215 A  
BRANCH   5  13
HETATM   13  C   UNL     1     -10.108   8.159  68.074  1.00  0.00    -0.241 C  
HETATM   14  C   UNL     1      -9.185   9.134  68.107  1.00  0.00    -0.137 C  
BRANCH  14  15
HETATM   15  C   UNL     1      -9.342  10.460  67.416  1.00  0.00    -0.145 C  
HETATM   16  H   UNL     1      -8.793  12.259  67.805  1.00  0.00     0.000 HD 
HETATM   17  O   UNL     1      -8.693  11.422  68.242  1.00  0.00    -0.147 OA 
BRANCH  15  18
HETATM   18  C   UNL     1     -10.822  10.817  67.206  1.00  0.00    -0.344 C  
BRANCH  18  19
HETATM   19  C   UNL     1     -11.392  11.741  68.297  1.00  0.00    -0.282 C  
HETATM   20  O   UNL     1     -10.326  12.437  68.964  1.00  0.00    -0.412 OA 
HETATM   21  H   UNL     1     -10.678  13.007  69.637  1.00  0.00     0.000 HD 
BRANCH  19  22
HETATM   22  C   UNL     1     -12.207  10.986  69.346  1.00  0.00    -0.329 C  
HETATM   23  C   UNL     1     -12.191  11.596  70.730  1.00  0.00    -0.344 C  
HETATM   24  O   UNL     1     -12.198  12.946  70.757  1.00  0.00    -0.367 OA 
HETATM   25  O   UNL     1     -12.255  10.924  71.749  1.00  0.00    -0.146 OA 
ENDBRANCH  19  22
ENDBRANCH  18  19
ENDBRANCH  15  18
ENDBRANCH  14  15
ENDBRANCH   5  13
BRANCH   7  26
HETATM   26  C   UNL     1      -8.837   5.477  66.866  1.00  0.00    -0.112 A  
HETATM   27  C   UNL     1      -6.971   5.350  65.283  1.00  0.00    -0.064 A  
HETATM   28  C   UNL     1      -9.196   4.820  64.534  1.00  0.00    -0.061 A  
HETATM   29  C   UNL     1      -7.838   4.936  64.284  1.00  0.00    -0.088 A  
HETATM   30  C   UNL     1      -7.468   5.599  66.569  1.00  0.00    -0.087 A  
HETATM   31  C   UNL     1      -9.693   5.119  65.808  1.00  0.00    -0.124 A  
HETATM   32  F   UNL     1      -7.358   4.641  63.070  1.00  0.00    -0.044 F  
ENDBRANCH   7  26
ENDBRANCH   2   4
TORSDOF 7
ENDMDL
MODEL      170
REMARK 921   NORMALIZED FREE ENERGY PREDICTED BY IDOCK:   -3.89 KCAL/MOL
REMARK 922        TOTAL FREE ENERGY PREDICTED BY IDOCK:   -7.19 KCAL/MOL
REMARK 923 INTER-LIGAND FREE ENERGY PREDICTED BY IDOCK:   -6.35 KCAL/MOL
REMARK 924 INTRA-LIGAND FREE ENERGY PREDICTED BY IDOCK:   -0.84 KCAL/MOL
REMARK 927      BINDING AFFINITY PREDICTED BY RF-SCORE:    0.00 PKD
ROOT
HETATM    1  C   UNL     1      -9.904  14.621  68.301  1.00  0.00    -0.222 C  
HETATM    2  C   UNL     1     -10.680  13.340  68.623  1.00  0.00    -0.259 C  
HETATM    3  C   UNL     1     -12.138  13.557  69.031  1.00  0.00    -0.330 C  
ENDROOT
BRANCH   2   4
HETATM    4  N   UNL     1     -10.516  12.264  67.636  1.00  0.00    -0.211 NA 
HETATM    5  C   UNL     1     -10.033  10.975  67.843  1.00  0.00    -0.174 A  
HETATM    6  C   UNL     1     -11.433  12.271  63.586  1.00  0.00    -0.572 A  
HETATM    7  C   UNL     1     -10.191  10.261  66.643  1.00  0.00    -0.294 A  
HETATM    8  C   UNL     1     -11.528  13.493  64.233  1.00  0.00    -0.414 A  
HETATM    9  C   UNL     1     -10.829  12.442  66.295  1.00  0.00    -0.266 A  
HETATM   10  C   UNL     1     -10.691  11.201  65.664  1.00  0.00    -0.250 A  
HETATM   11  C   UNL     1     -11.035  11.128  64.290  1.00  0.00    -0.276 A  
HETATM   12  C   UNL     1     -11.241  13.593  65.593  1.00  0.00    -0.305 A  
BRANCH   5  13
HETATM   13  C   UNL     1      -9.563  10.598  69.133  1.00  0.00    -0.193 C  
HETATM   14  C   UNL     1      -8.312  10.155  69.338  1.00  0.00    -0.174 C  
BRANCH  14  15
HETATM   15  C   UNL     1      -7.760   9.800  70.691  1.00  0.00     0.033 C  
HETATM   16  H   UNL     1      -6.237  10.362  71.717  1.00  0.00     0.000 HD 
HETATM   17  O   UNL     1      -6.585  10.587  70.862  1.00  0.00    -0.347 OA 
BRANCH  15  18
HETATM   18  C   UNL     1      -7.444   8.300  70.797  1.00  0.00    -0.065 C  
BRANCH  18  19
HETATM   19  C   UNL     1      -8.428   7.528  71.695  1.00  0.00    -0.111 C  
HETATM   20  O   UNL     1      -8.618   8.226  72.937  1.00  0.00    -0.194 OA 
HETATM   21  H   UNL     1      -9.225   7.749  73.491  1.00  0.00     0.000 HD 
BRANCH  19  22
HETATM   22  C   UNL     1      -7.958   6.108  72.006  1.00  0.00    -0.106 C  
HETATM   23  C   UNL     1      -7.610   5.852  73.456  1.00  0.00    -0.097 C  
HETATM   24  O   UNL     1      -8.404   6.477  74.351  1.00  0.00    -0.126 OA 
HETATM   25  O   UNL     1      -6.735   5.069  73.797  1.00  0.00    -0.069 OA 
ENDBRANCH  19  22
ENDBRANCH  18  19
ENDBRANCH  15  18
ENDBRANCH  14  15
ENDBRANCH   5  13
BRANCH   7  26
HETATM   26  C   UNL     1      -9.817   8.841  66.466  1.00  0.00    -0.349 A  
HETATM   27  C   UNL     1     -10.089   6.485  67.082  1.00  0.00    -0.223 A  
HETATM   28  C   UNL     1      -8.630   7.070  65.260  1.00  0.00     0.001 A  
HETATM   29  C   UNL     1      -9.231   6.112  66.060  1.00  0.00    -0.095 A  
HETATM   30  C   UNL     1     -10.394   7.840  67.268  1.00  0.00    -0.371 A  
HETATM   31  C   UNL     1      -8.900   8.425  65.483  1.00  0.00    -0.172 A  
HETATM   32  F   UNL     1      -8.984   4.814  65.842  1.00  0.00    -0.118 F  
ENDBRANCH   7  26
ENDBRANCH   2   4
TORSDOF 7
ENDMDL
MODEL      171
REMARK 921   NORMALIZED FREE ENERGY PREDICTED BY IDOCK:   -3.89 KCAL/MOL
REMARK 922        TOTAL FREE ENERGY PREDICTED BY IDOCK:   -7.18 KCAL/MOL
REMARK 923 INTER-LIGAND FREE ENERGY PREDICTED BY IDOCK:   -5.52 KCAL/MOL
REMARK 924 INTRA-LIGAND FREE ENERGY PREDICTED BY IDOCK:   -1.67 KCAL/MOL
REMARK 927      BINDING AFFINITY PREDICTED BY RF-SCORE:    0.00 PKD
ROOT
HETATM    1  C   UNL     1      -8.608   1.687  73.038  1.00  0.00    -0.061 C  
HETATM    2  C   UNL     1      -9.858   2.033  72.223  1.00  0.00    -0.136 C  
HETATM    3  C   UNL     1     -11.183   1.652  72.885  1.00  0.00    -0.177 C  
ENDROOT
BRANCH   2   4
HETATM    4  N   UNL     1      -9.866   3.393  71.667  1.00  0.00    -0.168 NA 
HETATM    5  C   UNL     1      -9.683   3.782  70.344  1.00  0.00    -0.154 A  
HETATM    6  C   UNL     1     -10.507   7.005  73.612  1.00  0.00    -0.414 A  
HETATM    7  C   UNL     1      -9.915   5.165  70.267  1.00  0.00    -0.320 A  
HETATM    8  C   UNL     1     -10.380   5.892  74.426  1.00  0.00    -0.267 A  
HETATM    9  C   UNL     1     -10.051   4.514  72.467  1.00  0.00    -0.176 A  
HETATM   10  C   UNL     1     -10.141   5.623  71.620  1.00  0.00    -0.245 A  
HETATM   11  C   UNL     1     -10.407   6.880  72.221  1.00  0.00    -0.219 A  
HETATM   12  C   UNL     1     -10.163   4.633  73.867  1.00  0.00    -0.246 A  
BRANCH   5  13
HETATM   13  C   UNL     1      -9.386   2.799  69.357  1.00  0.00    -0.189 C  
HETATM   14  C   UNL     1      -8.138   2.597  68.901  1.00  0.00    -0.066 C  
BRANCH  14  15
HETATM   15  C   UNL     1      -7.773   1.534  67.902  1.00  0.00    -0.057 C  
HETATM   16  H   UNL     1      -6.158   1.038  66.988  1.00  0.00     0.000 HD 
HETATM   17  O   UNL     1      -6.388   1.710  67.619  1.00  0.00    -0.024 OA 
BRANCH  15  18
HETATM   18  C   UNL     1      -8.620   1.643  66.625  1.00  0.00    -0.109 C  
BRANCH  18  19
HETATM   19  C   UNL     1      -7.884   2.326  65.457  1.00  0.00    -0.077 C  
HETATM   20  O   UNL     1      -7.430   3.632  65.853  1.00  0.00    -0.075 OA 
HETATM   21  H   UNL     1      -6.977   4.052  65.132  1.00  0.00     0.000 HD 
BRANCH  19  22
HETATM   22  C   UNL     1      -8.757   2.475  64.213  1.00  0.00    -0.097 C  
HETATM   23  C   UNL     1      -9.742   3.621  64.255  1.00  0.00    -0.175 C  
HETATM   24  O   UNL     1      -9.290   4.739  64.861  1.00  0.00    -0.150 OA 
HETATM   25  O   UNL     1     -10.834   3.574  63.707  1.00  0.00    -0.270 OA 
ENDBRANCH  19  22
ENDBRANCH  18  19
ENDBRANCH  15  18
ENDBRANCH  14  15
ENDBRANCH   5  13
BRANCH   7  26
HETATM   26  C   UNL     1      -9.843   5.952  69.017  1.00  0.00    -0.193 A  
HETATM   27  C   UNL     1     -10.953   6.951  67.074  1.00  0.00    -0.404 A  
HETATM   28  C   UNL     1      -8.610   7.362  67.438  1.00  0.00    -0.118 A  
HETATM   29  C   UNL     1      -9.767   7.563  66.703  1.00  0.00    -0.203 A  
HETATM   30  C   UNL     1     -10.992   6.167  68.235  1.00  0.00    -0.397 A  
HETATM   31  C   UNL     1      -8.644   6.537  68.569  1.00  0.00    -0.123 A  
HETATM   32  F   UNL     1      -9.740   8.360  65.627  1.00  0.00    -0.205 F  
ENDBRANCH   7  26
ENDBRANCH   2   4
TORSDOF 7
ENDMDL
MODEL      172
REMARK 921   NORMALIZED FREE ENERGY PREDICTED BY IDOCK:   -3.87 KCAL/MOL
REMARK 922        TOTAL FREE ENERGY PREDICTED BY IDOCK:   -7.16 KCAL/MOL
REMARK 923 INTER-LIGAND FREE ENERGY PREDICTED BY IDOCK:   -5.49 KCAL/MOL
REMARK 924 INTRA-LIGAND FREE ENERGY PREDICTED BY IDOCK:   -1.67 KCAL/MOL
REMARK 927      BINDING AFFINITY PREDICTED BY RF-SCORE:    0.00 PKD
ROOT
HETATM    1  C   UNL     1     -11.390   8.536  72.238  1.00  0.00    -0.441 C  
HETATM    2  C   UNL     1      -9.904   8.406  71.887  1.00  0.00    -0.258 C  
HETATM    3  C   UNL     1      -8.962   8.350  73.091  1.00  0.00    -0.221 C  
ENDROOT
BRANCH   2   4
HETATM    4  N   UNL     1      -9.604   7.383  70.877  1.00  0.00    -0.166 NA 
HETATM    5  C   UNL     1      -9.244   7.570  69.546  1.00  0.00    -0.146 A  
HETATM    6  C   UNL     1      -9.541   3.251  71.282  1.00  0.00    -0.229 A  
HETATM    7  C   UNL     1      -8.919   6.313  69.009  1.00  0.00    -0.123 A  
HETATM    8  C   UNL     1     -10.036   3.960  72.365  1.00  0.00    -0.232 A  
HETATM    9  C   UNL     1      -9.673   6.025  71.162  1.00  0.00    -0.177 A  
HETATM   10  C   UNL     1      -9.200   5.337  70.039  1.00  0.00    -0.180 A  
HETATM   11  C   UNL     1      -9.110   3.925  70.133  1.00  0.00    -0.191 A  
HETATM   12  C   UNL     1     -10.096   5.352  72.325  1.00  0.00    -0.231 A  
BRANCH   5  13
HETATM   13  C   UNL     1      -9.200   8.887  69.007  1.00  0.00    -0.140 C  
HETATM   14  C   UNL     1      -8.043   9.536  68.798  1.00  0.00    -0.096 C  
BRANCH  14  15
HETATM   15  C   UNL     1      -7.949  10.904  68.181  1.00  0.00    -0.117 C  
HETATM   16  H   UNL     1      -6.975  12.507  68.592  1.00  0.00     0.000 HD 
HETATM   17  O   UNL     1      -7.033  11.643  68.983  1.00  0.00    -0.099 OA 
BRANCH  15  18
HETATM   18  C   UNL     1      -9.321  11.594  68.124  1.00  0.00    -0.188 C  
BRANCH  18  19
HETATM   19  C   UNL     1      -9.469  12.571  66.943  1.00  0.00    -0.219 C  
HETATM   20  O   UNL     1      -9.539  13.924  67.425  1.00  0.00    -0.224 OA 
HETATM   21  H   UNL     1      -9.630  14.526  66.697  1.00  0.00     0.000 HD 
BRANCH  19  22
HETATM   22  C   UNL     1     -10.710  12.295  66.097  1.00  0.00    -0.296 C  
HETATM   23  C   UNL     1     -10.436  11.701  64.734  1.00  0.00    -0.295 C  
HETATM   24  O   UNL     1      -9.418  10.815  64.693  1.00  0.00    -0.216 OA 
HETATM   25  O   UNL     1     -11.136  11.935  63.759  1.00  0.00    -0.365 OA 
ENDBRANCH  19  22
ENDBRANCH  18  19
ENDBRANCH  15  18
ENDBRANCH  14  15
ENDBRANCH   5  13
BRANCH   7  26
HETATM   26  C   UNL     1      -8.462   6.095  67.619  1.00  0.00    -0.108 A  
HETATM   27  C   UNL     1      -6.671   6.129  65.948  1.00  0.00    -0.048 A  
HETATM   28  C   UNL     1      -8.840   5.285  65.339  1.00  0.00    -0.152 A  
HETATM   29  C   UNL     1      -7.522   5.560  65.014  1.00  0.00    -0.074 A  
HETATM   30  C   UNL     1      -7.135   6.375  67.247  1.00  0.00    -0.073 A  
HETATM   31  C   UNL     1      -9.312   5.580  66.624  1.00  0.00    -0.147 A  
HETATM   32  F   UNL     1      -7.064   5.269  63.790  1.00  0.00    -0.044 F  
ENDBRANCH   7  26
ENDBRANCH   2   4
TORSDOF 7
ENDMDL
MODEL      173
REMARK 921   NORMALIZED FREE ENERGY PREDICTED BY IDOCK:   -3.84 KCAL/MOL
REMARK 922        TOTAL FREE ENERGY PREDICTED BY IDOCK:   -7.11 KCAL/MOL
REMARK 923 INTER-LIGAND FREE ENERGY PREDICTED BY IDOCK:   -5.42 KCAL/MOL
REMARK 924 INTRA-LIGAND FREE ENERGY PREDICTED BY IDOCK:   -1.69 KCAL/MOL
REMARK 927      BINDING AFFINITY PREDICTED BY RF-SCORE:    0.00 PKD
ROOT
HETATM    1  C   UNL     1     -11.295  11.395  67.477  1.00  0.00    -0.362 C  
HETATM    2  C   UNL     1     -10.538  10.219  66.852  1.00  0.00    -0.217 C  
HETATM    3  C   UNL     1      -9.676  10.580  65.641  1.00  0.00    -0.289 C  
ENDROOT
BRANCH   2   4
HETATM    4  N   UNL     1      -9.836   9.364  67.819  1.00  0.00    -0.162 NA 
HETATM    5  C   UNL     1      -8.926   9.744  68.801  1.00  0.00    -0.133 A  
HETATM    6  C   UNL     1     -10.120   5.256  68.359  1.00  0.00    -0.224 A  
HETATM    7  C   UNL     1      -8.629   8.608  69.573  1.00  0.00    -0.131 A  
HETATM    8  C   UNL     1     -10.768   5.769  67.247  1.00  0.00    -0.345 A  
HETATM    9  C   UNL     1     -10.007   7.985  67.841  1.00  0.00    -0.180 A  
HETATM   10  C   UNL     1      -9.314   7.495  68.953  1.00  0.00    -0.142 A  
HETATM   11  C   UNL     1      -9.412   6.105  69.219  1.00  0.00    -0.147 A  
HETATM   12  C   UNL     1     -10.732   7.136  66.980  1.00  0.00    -0.420 A  
BRANCH   5  13
HETATM   13  C   UNL     1      -8.529  11.107  68.902  1.00  0.00    -0.095 C  
HETATM   14  C   UNL     1      -7.443  11.585  68.272  1.00  0.00    -0.103 C  
BRANCH  14  15
HETATM   15  C   UNL     1      -7.020  13.027  68.308  1.00  0.00    -0.101 C  
HETATM   16  H   UNL     1      -6.060  14.123  69.560  1.00  0.00     0.000 HD 
HETATM   17  O   UNL     1      -6.326  13.211  69.538  1.00  0.00    -0.110 OA 
BRANCH  15  18
HETATM   18  C   UNL     1      -8.227  13.973  68.204  1.00  0.00    -0.155 C  
BRANCH  18  19
HETATM   19  C   UNL     1      -7.862  15.382  67.703  1.00  0.00    -0.157 C  
HETATM   20  O   UNL     1      -6.509  15.401  67.217  1.00  0.00    -0.292 OA 
HETATM   21  H   UNL     1      -6.284  16.270  66.908  1.00  0.00     0.000 HD 
BRANCH  19  22
HETATM   22  C   UNL     1      -8.000  16.451  68.786  1.00  0.00    -0.233 C  
HETATM   23  C   UNL     1      -7.621  17.850  68.358  1.00  0.00    -0.282 C  
HETATM   24  O   UNL     1      -7.961  18.170  67.091  1.00  0.00    -0.213 OA 
HETATM   25  O   UNL     1      -7.123  18.664  69.122  1.00  0.00    -0.285 OA 
ENDBRANCH  19  22
ENDBRANCH  18  19
ENDBRANCH  15  18
ENDBRANCH  14  15
ENDBRANCH   5  13
BRANCH   7  26
HETATM   26  C   UNL     1      -7.715   8.609  70.736  1.00  0.00    -0.091 A  
HETATM   27  C   UNL     1      -5.476   8.945  71.671  1.00  0.00    -0.049 A  
HETATM   28  C   UNL     1      -7.312   8.457  73.147  1.00  0.00    -0.108 A  
HETATM   29  C   UNL     1      -5.974   8.754  72.950  1.00  0.00    -0.065 A  
HETATM   30  C   UNL     1      -6.347   8.891  70.575  1.00  0.00    -0.044 A  
HETATM   31  C   UNL     1      -8.168   8.355  72.044  1.00  0.00    -0.212 A  
HETATM   32  F   UNL     1      -5.155   8.862  74.004  1.00  0.00    -0.075 F  
ENDBRANCH   7  26
ENDBRANCH   2   4
TORSDOF 7
ENDMDL
MODEL      174
REMARK 921   NORMALIZED FREE ENERGY PREDICTED BY IDOCK:   -3.83 KCAL/MOL
REMARK 922        TOTAL FREE ENERGY PREDICTED BY IDOCK:   -7.11 KCAL/MOL
REMARK 923 INTER-LIGAND FREE ENERGY PREDICTED BY IDOCK:   -7.01 KCAL/MOL
REMARK 924 INTRA-LIGAND FREE ENERGY PREDICTED BY IDOCK:   -0.09 KCAL/MOL
REMARK 927      BINDING AFFINITY PREDICTED BY RF-SCORE:    0.00 PKD
ROOT
HETATM    1  C   UNL     1     -12.732  10.506  70.566  1.00  0.00    -0.385 C  
HETATM    2  C   UNL     1     -12.251   9.271  71.334  1.00  0.00    -0.349 C  
HETATM    3  C   UNL     1     -13.349   8.502  72.070  1.00  0.00    -0.397 C  
ENDROOT
BRANCH   2   4
HETATM    4  N   UNL     1     -11.350   8.394  70.574  1.00  0.00    -0.249 NA 
HETATM    5  C   UNL     1     -10.767   8.629  69.333  1.00  0.00    -0.158 A  
HETATM    6  C   UNL     1      -9.851   4.661  71.608  1.00  0.00    -0.253 A  
HETATM    7  C   UNL     1      -9.875   7.576  69.071  1.00  0.00    -0.170 A  
HETATM    8  C   UNL     1     -10.827   5.178  72.445  1.00  0.00    -0.265 A  
HETATM    9  C   UNL     1     -10.975   7.141  71.042  1.00  0.00    -0.252 A  
HETATM   10  C   UNL     1     -10.017   6.632  70.158  1.00  0.00    -0.190 A  
HETATM   11  C   UNL     1      -9.432   5.382  70.483  1.00  0.00    -0.215 A  
HETATM   12  C   UNL     1     -11.391   6.425  72.183  1.00  0.00    -0.332 A  
BRANCH   5  13
HETATM   13  C   UNL     1     -11.086   9.820  68.620  1.00  0.00    -0.140 C  
HETATM   14  C   UNL     1     -10.141  10.602  68.073  1.00  0.00    -0.181 C  
BRANCH  14  15
HETATM   15  C   UNL     1     -10.437  11.836  67.267  1.00  0.00    -0.214 C  
HETATM   16  H   UNL     1      -9.436  13.399  66.775  1.00  0.00     0.000 HD 
HETATM   17  O   UNL     1      -9.248  12.620  67.284  1.00  0.00    -0.182 OA 
BRANCH  15  18
HETATM   18  C   UNL     1     -11.626  12.618  67.847  1.00  0.00    -0.401 C  
BRANCH  18  19
HETATM   19  C   UNL     1     -11.232  13.983  68.440  1.00  0.00    -0.266 C  
HETATM   20  O   UNL     1     -10.171  13.821  69.396  1.00  0.00    -0.420 OA 
HETATM   21  H   UNL     1      -9.929  14.663  69.762  1.00  0.00     0.000 HD 
BRANCH  19  22
HETATM   22  C   UNL     1     -12.399  14.688  69.129  1.00  0.00    -0.130 C  
HETATM   23  C   UNL     1     -12.008  15.641  70.236  1.00  0.00    -0.374 C  
HETATM   24  O   UNL     1     -10.875  16.341  70.012  1.00  0.00    -0.335 OA 
HETATM   25  O   UNL     1     -12.706  15.833  71.221  1.00  0.00    -0.455 OA 
ENDBRANCH  19  22
ENDBRANCH  18  19
ENDBRANCH  15  18
ENDBRANCH  14  15
ENDBRANCH   5  13
BRANCH   7  26
HETATM   26  C   UNL     1      -9.039   7.477  67.855  1.00  0.00    -0.130 A  
HETATM   27  C   UNL     1      -6.847   7.623  66.772  1.00  0.00    -0.067 A  
HETATM   28  C   UNL     1      -8.749   6.890  65.494  1.00  0.00    -0.041 A  
HETATM   29  C   UNL     1      -7.394   7.163  65.585  1.00  0.00    -0.079 A  
HETATM   30  C   UNL     1      -7.662   7.759  67.902  1.00  0.00    -0.122 A  
HETATM   31  C   UNL     1      -9.569   7.076  66.614  1.00  0.00    -0.220 A  
HETATM   32  F   UNL     1      -6.606   6.975  64.519  1.00  0.00    -0.040 F  
ENDBRANCH   7  26
ENDBRANCH   2   4
TORSDOF 7
ENDMDL
MODEL      175
REMARK 921   NORMALIZED FREE ENERGY PREDICTED BY IDOCK:   -3.80 KCAL/MOL
REMARK 922        TOTAL FREE ENERGY PREDICTED BY IDOCK:   -7.06 KCAL/MOL
REMARK 923 INTER-LIGAND FREE ENERGY PREDICTED BY IDOCK:   -6.66 KCAL/MOL
REMARK 924 INTRA-LIGAND FREE ENERGY PREDICTED BY IDOCK:   -0.40 KCAL/MOL
REMARK 927      BINDING AFFINITY PREDICTED BY RF-SCORE:    0.00 PKD
ROOT
HETATM    1  C   UNL     1      -6.737   8.020  67.325  1.00  0.00    -0.065 C  
HETATM    2  C   UNL     1      -7.893   8.517  66.450  1.00  0.00    -0.099 C  
HETATM    3  C   UNL     1      -8.381   7.517  65.402  1.00  0.00    -0.129 C  
ENDROOT
BRANCH   2   4
HETATM    4  N   UNL     1      -8.991   9.150  67.193  1.00  0.00    -0.122 NA 
HETATM    5  C   UNL     1      -9.595   8.716  68.369  1.00  0.00    -0.147 A  
HETATM    6  C   UNL     1     -11.004  12.687  66.369  1.00  0.00    -0.304 A  
HETATM    7  C   UNL     1     -10.496   9.711  68.781  1.00  0.00    -0.238 A  
HETATM    8  C   UNL     1     -10.129  12.244  65.390  1.00  0.00    -0.292 A  
HETATM    9  C   UNL     1      -9.595  10.322  66.756  1.00  0.00    -0.172 A  
HETATM   10  C   UNL     1     -10.495  10.724  67.748  1.00  0.00    -0.243 A  
HETATM   11  C   UNL     1     -11.179  11.951  67.547  1.00  0.00    -0.359 A  
HETATM   12  C   UNL     1      -9.406  11.066  65.574  1.00  0.00    -0.242 A  
BRANCH   5  13
HETATM   13  C   UNL     1      -9.194   7.479  68.950  1.00  0.00    -0.142 C  
HETATM   14  C   UNL     1      -9.522   6.294  68.409  1.00  0.00    -0.118 C  
BRANCH  14  15
HETATM   15  C   UNL     1      -9.073   4.969  68.960  1.00  0.00    -0.105 C  
HETATM   16  H   UNL     1      -7.367   4.176  69.347  1.00  0.00     0.000 HD 
HETATM   17  O   UNL     1      -7.650   5.014  68.999  1.00  0.00    -0.070 OA 
BRANCH  15  18
HETATM   18  C   UNL     1      -9.569   3.800  68.096  1.00  0.00    -0.176 C  
BRANCH  18  19
HETATM   19  C   UNL     1      -9.571   4.109  66.587  1.00  0.00    -0.206 C  
HETATM   20  O   UNL     1     -10.855   4.618  66.188  1.00  0.00    -0.539 OA 
HETATM   21  H   UNL     1     -10.856   4.809  65.257  1.00  0.00     0.000 HD 
BRANCH  19  22
HETATM   22  C   UNL     1      -9.250   2.886  65.731  1.00  0.00    -0.111 C  
HETATM   23  C   UNL     1      -9.608   3.016  64.268  1.00  0.00    -0.149 C  
HETATM   24  O   UNL     1      -9.408   4.242  63.739  1.00  0.00    -0.147 OA 
HETATM   25  O   UNL     1      -9.968   2.065  63.588  1.00  0.00    -0.124 OA 
ENDBRANCH  19  22
ENDBRANCH  18  19
ENDBRANCH  15  18
ENDBRANCH  14  15
ENDBRANCH   5  13
BRANCH   7  26
HETATM   26  C   UNL     1     -11.318   9.633  70.008  1.00  0.00    -0.239 A  
HETATM   27  C   UNL     1     -13.282  10.338  71.292  1.00  0.00    -0.447 A  
HETATM   28  C   UNL     1     -11.854   8.612  72.169  1.00  0.00    -0.447 A  
HETATM   29  C   UNL     1     -12.983   9.408  72.274  1.00  0.00    -0.400 A  
HETATM   30  C   UNL     1     -12.465  10.434  70.158  1.00  0.00    -0.247 A  
HETATM   31  C   UNL     1     -11.013   8.748  71.058  1.00  0.00    -0.328 A  
HETATM   32  F   UNL     1     -13.795   9.273  73.330  1.00  0.00    -0.250 F  
ENDBRANCH   7  26
ENDBRANCH   2   4
TORSDOF 7
ENDMDL
MODEL      176
REMARK 921   NORMALIZED FREE ENERGY PREDICTED BY IDOCK:   -3.75 KCAL/MOL
REMARK 922        TOTAL FREE ENERGY PREDICTED BY IDOCK:   -6.99 KCAL/MOL
REMARK 923 INTER-LIGAND FREE ENERGY PREDICTED BY IDOCK:   -5.37 KCAL/MOL
REMARK 924 INTRA-LIGAND FREE ENERGY PREDICTED BY IDOCK:   -1.62 KCAL/MOL
REMARK 927      BINDING AFFINITY PREDICTED BY RF-SCORE:    0.00 PKD
ROOT
HETATM    1  C   UNL     1     -10.805   8.552  71.533  1.00  0.00    -0.332 C  
HETATM    2  C   UNL     1      -9.587   9.033  70.736  1.00  0.00    -0.249 C  
HETATM    3  C   UNL     1      -8.245   8.866  71.450  1.00  0.00    -0.175 C  
ENDROOT
BRANCH   2   4
HETATM    4  N   UNL     1      -9.554   8.576  69.340  1.00  0.00    -0.169 NA 
HETATM    5  C   UNL     1      -9.416   7.275  68.865  1.00  0.00    -0.143 A  
HETATM    6  C   UNL     1      -9.919  10.802  65.854  1.00  0.00    -0.304 A  
HETATM    7  C   UNL     1      -9.581   7.309  67.470  1.00  0.00    -0.171 A  
HETATM    8  C   UNL     1      -9.808  11.527  67.029  1.00  0.00    -0.212 A  
HETATM    9  C   UNL     1      -9.643   9.462  68.274  1.00  0.00    -0.142 A  
HETATM   10  C   UNL     1      -9.719   8.701  67.102  1.00  0.00    -0.248 A  
HETATM   11  C   UNL     1      -9.893   9.402  65.882  1.00  0.00    -0.362 A  
HETATM   12  C   UNL     1      -9.683  10.870  68.252  1.00  0.00    -0.171 A  
BRANCH   5  13
HETATM   13  C   UNL     1      -9.215   6.208  69.786  1.00  0.00    -0.151 C  
HETATM   14  C   UNL     1      -8.071   5.506  69.830  1.00  0.00    -0.101 C  
BRANCH  14  15
HETATM   15  C   UNL     1      -7.798   4.409  70.822  1.00  0.00    -0.060 C  
HETATM   16  H   UNL     1      -7.182   2.595  70.693  1.00  0.00     0.000 HD 
HETATM   17  O   UNL     1      -7.354   3.287  70.065  1.00  0.00    -0.041 OA 
BRANCH  15  18
HETATM   18  C   UNL     1      -9.050   4.065  71.643  1.00  0.00    -0.174 C  
BRANCH  18  19
HETATM   19  C   UNL     1      -8.736   3.611  73.080  1.00  0.00    -0.089 C  
HETATM   20  O   UNL     1      -9.605   2.531  73.460  1.00  0.00    -0.086 OA 
HETATM   21  H   UNL     1      -9.411   2.250  74.346  1.00  0.00     0.000 HD 
BRANCH  19  22
HETATM   22  C   UNL     1      -8.887   4.734  74.104  1.00  0.00    -0.113 C  
HETATM   23  C   UNL     1     -10.157   5.547  73.980  1.00  0.00    -0.229 C  
HETATM   24  O   UNL     1     -11.254   4.840  73.633  1.00  0.00    -0.319 OA 
HETATM   25  O   UNL     1     -10.210   6.736  74.257  1.00  0.00    -0.357 OA 
ENDBRANCH  19  22
ENDBRANCH  18  19
ENDBRANCH  15  18
ENDBRANCH  14  15
ENDBRANCH   5  13
BRANCH   7  26
HETATM   26  C   UNL     1      -9.530   6.115  66.598  1.00  0.00    -0.173 A  
HETATM   27  C   UNL     1      -8.258   4.599  65.155  1.00  0.00    -0.118 A  
HETATM   28  C   UNL     1     -10.559   4.103  65.655  1.00  0.00     0.053 A  
HETATM   29  C   UNL     1      -9.363   3.770  65.040  1.00  0.00    -0.157 A  
HETATM   30  C   UNL     1      -8.338   5.752  65.945  1.00  0.00    -0.130 A  
HETATM   31  C   UNL     1     -10.647   5.283  66.402  1.00  0.00    -0.338 A  
HETATM   32  F   UNL     1      -9.272   2.636  64.333  1.00  0.00    -0.108 F  
ENDBRANCH   7  26
ENDBRANCH   2   4
TORSDOF 7
ENDMDL
MODEL      177
REMARK 921   NORMALIZED FREE ENERGY PREDICTED BY IDOCK:   -3.74 KCAL/MOL
REMARK 922        TOTAL FREE ENERGY PREDICTED BY IDOCK:   -6.97 KCAL/MOL
REMARK 923 INTER-LIGAND FREE ENERGY PREDICTED BY IDOCK:   -5.28 KCAL/MOL
REMARK 924 INTRA-LIGAND FREE ENERGY PREDICTED BY IDOCK:   -1.69 KCAL/MOL
REMARK 927      BINDING AFFINITY PREDICTED BY RF-SCORE:    0.00 PKD
ROOT
HETATM    1  C   UNL     1     -11.136   9.029  69.959  1.00  0.00    -0.197 C  
HETATM    2  C   UNL     1      -9.930   8.740  69.059  1.00  0.00    -0.191 C  
HETATM    3  C   UNL     1     -10.270   8.482  67.591  1.00  0.00    -0.297 C  
ENDROOT
BRANCH   2   4
HETATM    4  N   UNL     1      -8.804   9.669  69.231  1.00  0.00    -0.153 NA 
HETATM    5  C   UNL     1      -8.658  10.948  68.704  1.00  0.00    -0.153 A  
HETATM    6  C   UNL     1      -5.328   9.178  71.449  1.00  0.00    -0.047 A  
HETATM    7  C   UNL     1      -7.491  11.507  69.251  1.00  0.00     0.033 A  
HETATM    8  C   UNL     1      -6.134   8.058  71.326  1.00  0.00    -0.034 A  
HETATM    9  C   UNL     1      -7.680   9.333  69.976  1.00  0.00    -0.104 A  
HETATM   10  C   UNL     1      -6.873  10.473  70.052  1.00  0.00    -0.154 A  
HETATM   11  C   UNL     1      -5.695  10.383  70.836  1.00  0.00    -0.082 A  
HETATM   12  C   UNL     1      -7.322   8.122  70.602  1.00  0.00    -0.053 A  
BRANCH   5  13
HETATM   13  C   UNL     1      -9.655  11.467  67.829  1.00  0.00    -0.177 C  
HETATM   14  C   UNL     1     -10.622  12.295  68.256  1.00  0.00    -0.243 C  
BRANCH  14  15
HETATM   15  C   UNL     1     -11.658  12.908  67.356  1.00  0.00    -0.360 C  
HETATM   16  H   UNL     1     -12.789  12.244  65.952  1.00  0.00     0.000 HD 
HETATM   17  O   UNL     1     -12.134  11.857  66.521  1.00  0.00    -0.568 OA 
BRANCH  15  18
HETATM   18  C   UNL     1     -11.075  14.059  66.522  1.00  0.00    -0.315 C  
BRANCH  18  19
HETATM   19  C   UNL     1     -10.955  15.382  67.302  1.00  0.00    -0.317 C  
HETATM   20  O   UNL     1      -9.572  15.697  67.533  1.00  0.00    -0.221 OA 
HETATM   21  H   UNL     1      -9.498  16.513  68.013  1.00  0.00     0.000 HD 
BRANCH  19  22
HETATM   22  C   UNL     1     -11.673  15.343  68.649  1.00  0.00    -0.371 C  
HETATM   23  C   UNL     1     -11.081  16.237  69.716  1.00  0.00    -0.337 C  
HETATM   24  O   UNL     1     -10.611  17.422  69.270  1.00  0.00    -0.302 OA 
HETATM   25  O   UNL     1     -11.103  15.951  70.905  1.00  0.00    -0.333 OA 
ENDBRANCH  19  22
ENDBRANCH  18  19
ENDBRANCH  15  18
ENDBRANCH  14  15
ENDBRANCH   5  13
BRANCH   7  26
HETATM   26  C   UNL     1      -7.004  12.872  68.955  1.00  0.00    -0.058 A  
HETATM   27  C   UNL     1      -6.510  15.153  69.698  1.00  0.00    -0.161 A  
HETATM   28  C   UNL     1      -5.944  14.492  67.455  1.00  0.00     0.080 A  
HETATM   29  C   UNL     1      -5.955  15.443  68.462  1.00  0.00    -0.095 A  
HETATM   30  C   UNL     1      -7.013  13.870  69.946  1.00  0.00     0.204 A  
HETATM   31  C   UNL     1      -6.493  13.226  67.693  1.00  0.00    -0.167 A  
HETATM   32  F   UNL     1      -5.421  16.651  68.241  1.00  0.00    -0.105 F  
ENDBRANCH   7  26
ENDBRANCH   2   4
TORSDOF 7
ENDMDL
MODEL      178
REMARK 921   NORMALIZED FREE ENERGY PREDICTED BY IDOCK:   -3.73 KCAL/MOL
REMARK 922        TOTAL FREE ENERGY PREDICTED BY IDOCK:   -6.96 KCAL/MOL
REMARK 923 INTER-LIGAND FREE ENERGY PREDICTED BY IDOCK:   -6.71 KCAL/MOL
REMARK 924 INTRA-LIGAND FREE ENERGY PREDICTED BY IDOCK:   -0.25 KCAL/MOL
REMARK 927      BINDING AFFINITY PREDICTED BY RF-SCORE:    0.00 PKD
ROOT
HETATM    1  C   UNL     1      -6.411  11.180  66.591  1.00  0.00    -0.134 C  
HETATM    2  C   UNL     1      -7.619  11.621  67.425  1.00  0.00    -0.139 C  
HETATM    3  C   UNL     1      -8.114  10.587  68.436  1.00  0.00    -0.119 C  
ENDROOT
BRANCH   2   4
HETATM    4  N   UNL     1      -7.505  12.971  67.994  1.00  0.00    -0.118 NA 
HETATM    5  C   UNL     1      -8.058  14.155  67.516  1.00  0.00    -0.187 A  
HETATM    6  C   UNL     1      -5.539  14.194  71.441  1.00  0.00    -0.225 A  
HETATM    7  C   UNL     1      -7.801  15.161  68.462  1.00  0.00    -0.135 A  
HETATM    8  C   UNL     1      -5.325  12.882  71.053  1.00  0.00    -0.181 A  
HETATM    9  C   UNL     1      -6.764  13.225  69.141  1.00  0.00    -0.092 A  
HETATM   10  C   UNL     1      -6.973  14.565  69.487  1.00  0.00    -0.147 A  
HETATM   11  C   UNL     1      -6.367  15.030  70.682  1.00  0.00     0.061 A  
HETATM   12  C   UNL     1      -5.942  12.377  69.910  1.00  0.00    -0.146 A  
BRANCH   5  13
HETATM   13  C   UNL     1      -8.787  14.146  66.293  1.00  0.00     0.155 C  
HETATM   14  C   UNL     1      -9.950  14.804  66.148  1.00  0.00    -0.324 C  
BRANCH  14  15
HETATM   15  C   UNL     1     -10.722  14.866  64.860  1.00  0.00    -0.405 C  
HETATM   16  H   UNL     1     -11.698  16.239  63.935  1.00  0.00     0.000 HD 
HETATM   17  O   UNL     1     -11.210  16.200  64.750  1.00  0.00    -0.425 OA 
BRANCH  15  18
HETATM   18  C   UNL     1     -11.874  13.850  64.841  1.00  0.00    -0.401 C  
BRANCH  18  19
HETATM   19  C   UNL     1     -12.603  13.722  66.191  1.00  0.00    -0.371 C  
HETATM   20  O   UNL     1     -12.508  14.955  66.924  1.00  0.00    -0.270 OA 
HETATM   21  H   UNL     1     -12.958  14.876  67.757  1.00  0.00     0.000 HD 
BRANCH  19  22
HETATM   22  C   UNL     1     -12.044  12.599  67.062  1.00  0.00    -0.202 C  
HETATM   23  C   UNL     1     -11.603  13.020  68.446  1.00  0.00    -0.335 C  
HETATM   24  O   UNL     1     -12.375  13.962  69.028  1.00  0.00    -0.308 OA 
HETATM   25  O   UNL     1     -10.671  12.489  69.032  1.00  0.00    -0.195 OA 
ENDBRANCH  19  22
ENDBRANCH  18  19
ENDBRANCH  15  18
ENDBRANCH  14  15
ENDBRANCH   5  13
BRANCH   7  26
HETATM   26  C   UNL     1      -8.252  16.563  68.328  1.00  0.00    -0.185 A  
HETATM   27  C   UNL     1     -10.024  18.246  68.510  1.00  0.00    -0.413 A  
HETATM   28  C   UNL     1      -7.791  18.938  67.941  1.00  0.00    -0.289 A  
HETATM   29  C   UNL     1      -9.112  19.247  68.216  1.00  0.00    -0.345 A  
HETATM   30  C   UNL     1      -9.589  16.916  68.584  1.00  0.00    -0.265 A  
HETATM   31  C   UNL     1      -7.373  17.601  67.967  1.00  0.00    -0.214 A  
HETATM   32  F   UNL     1      -9.512  20.525  68.202  1.00  0.00    -0.359 F  
ENDBRANCH   7  26
ENDBRANCH   2   4
TORSDOF 7
ENDMDL
MODEL      179
REMARK 921   NORMALIZED FREE ENERGY PREDICTED BY IDOCK:   -3.73 KCAL/MOL
REMARK 922        TOTAL FREE ENERGY PREDICTED BY IDOCK:   -6.96 KCAL/MOL
REMARK 923 INTER-LIGAND FREE ENERGY PREDICTED BY IDOCK:   -5.35 KCAL/MOL
REMARK 924 INTRA-LIGAND FREE ENERGY PREDICTED BY IDOCK:   -1.61 KCAL/MOL
REMARK 927      BINDING AFFINITY PREDICTED BY RF-SCORE:    0.00 PKD
ROOT
HETATM    1  C   UNL     1     -10.353   6.302  68.330  1.00  0.00    -0.237 C  
HETATM    2  C   UNL     1     -10.468   7.598  69.138  1.00  0.00    -0.214 C  
HETATM    3  C   UNL     1     -11.114   7.442  70.516  1.00  0.00    -0.280 C  
ENDROOT
BRANCH   2   4
HETATM    4  N   UNL     1      -9.243   8.408  69.169  1.00  0.00    -0.150 NA 
HETATM    5  C   UNL     1      -8.989   9.607  68.510  1.00  0.00    -0.124 A  
HETATM    6  C   UNL     1      -5.728   7.748  71.278  1.00  0.00    -0.034 A  
HETATM    7  C   UNL     1      -7.742  10.082  68.949  1.00  0.00    -0.089 A  
HETATM    8  C   UNL     1      -6.653   6.717  71.302  1.00  0.00    -0.053 A  
HETATM    9  C   UNL     1      -8.124   8.022  69.896  1.00  0.00    -0.117 A  
HETATM   10  C   UNL     1      -7.197   9.067  69.824  1.00  0.00    -0.056 A  
HETATM   11  C   UNL     1      -5.995   8.922  70.563  1.00  0.00    -0.033 A  
HETATM   12  C   UNL     1      -7.865   6.844  70.625  1.00  0.00    -0.101 A  
BRANCH   5  13
HETATM   13  C   UNL     1      -9.969  10.147  67.629  1.00  0.00    -0.216 C  
HETATM   14  C   UNL     1      -9.653  10.628  66.416  1.00  0.00    -0.230 C  
BRANCH  14  15
HETATM   15  C   UNL     1     -10.664  11.156  65.435  1.00  0.00    -0.192 C  
HETATM   16  H   UNL     1     -10.805  11.172  63.519  1.00  0.00     0.000 HD 
HETATM   17  O   UNL     1     -10.166  10.839  64.139  1.00  0.00    -0.336 OA 
BRANCH  15  18
HETATM   18  C   UNL     1     -10.872  12.669  65.595  1.00  0.00    -0.305 C  
BRANCH  18  19
HETATM   19  C   UNL     1     -11.880  13.037  66.700  1.00  0.00    -0.393 C  
HETATM   20  O   UNL     1     -12.680  14.158  66.287  1.00  0.00    -0.514 OA 
HETATM   21  H   UNL     1     -13.301  14.385  66.969  1.00  0.00     0.000 HD 
BRANCH  19  22
HETATM   22  C   UNL     1     -11.206  13.386  68.025  1.00  0.00    -0.298 C  
HETATM   23  C   UNL     1     -11.902  12.852  69.257  1.00  0.00    -0.309 C  
HETATM   24  O   UNL     1     -12.449  11.626  69.116  1.00  0.00    -0.208 OA 
HETATM   25  O   UNL     1     -11.896  13.443  70.328  1.00  0.00    -0.308 OA 
ENDBRANCH  19  22
ENDBRANCH  18  19
ENDBRANCH  15  18
ENDBRANCH  14  15
ENDBRANCH   5  13
BRANCH   7  26
HETATM   26  C   UNL     1      -7.128  11.349  68.497  1.00  0.00    -0.085 A  
HETATM   27  C   UNL     1      -7.149  13.797  68.400  1.00  0.00    -0.105 A  
HETATM   28  C   UNL     1      -5.289  12.593  67.462  1.00  0.00    -0.100 A  
HETATM   29  C   UNL     1      -5.915  13.789  67.770  1.00  0.00    -0.116 A  
HETATM   30  C   UNL     1      -7.740  12.585  68.777  1.00  0.00     0.003 A  
HETATM   31  C   UNL     1      -5.908  11.382  67.797  1.00  0.00    -0.046 A  
HETATM   32  F   UNL     1      -5.320  14.948  67.460  1.00  0.00    -0.101 F  
ENDBRANCH   7  26
ENDBRANCH   2   4
TORSDOF 7
ENDMDL
MODEL      180
REMARK 921   NORMALIZED FREE ENERGY PREDICTED BY IDOCK:   -3.72 KCAL/MOL
REMARK 922        TOTAL FREE ENERGY PREDICTED BY IDOCK:   -6.94 KCAL/MOL
REMARK 923 INTER-LIGAND FREE ENERGY PREDICTED BY IDOCK:   -5.38 KCAL/MOL
REMARK 924 INTRA-LIGAND FREE ENERGY PREDICTED BY IDOCK:   -1.56 KCAL/MOL
REMARK 927      BINDING AFFINITY PREDICTED BY RF-SCORE:    0.00 PKD
ROOT
HETATM    1  C   UNL     1      -6.615   9.942  64.047  1.00  0.00    -0.127 C  
HETATM    2  C   UNL     1      -7.935   9.166  64.109  1.00  0.00    -0.140 C  
HETATM    3  C   UNL     1      -8.286   8.393  62.838  1.00  0.00    -0.117 C  
ENDROOT
BRANCH   2   4
HETATM    4  N   UNL     1      -8.118   8.372  65.332  1.00  0.00    -0.125 NA 
HETATM    5  C   UNL     1      -8.962   8.633  66.407  1.00  0.00    -0.161 A  
HETATM    6  C   UNL     1      -6.325   4.785  66.409  1.00  0.00    -0.036 A  
HETATM    7  C   UNL     1      -8.904   7.529  67.275  1.00  0.00    -0.124 A  
HETATM    8  C   UNL     1      -5.824   5.397  65.272  1.00  0.00    -0.021 A  
HETATM    9  C   UNL     1      -7.400   7.206  65.566  1.00  0.00    -0.079 A  
HETATM   10  C   UNL     1      -7.906   6.631  66.737  1.00  0.00    -0.107 A  
HETATM   11  C   UNL     1      -7.367   5.380  67.132  1.00  0.00    -0.083 A  
HETATM   12  C   UNL     1      -6.361   6.605  64.829  1.00  0.00    -0.038 A  
BRANCH   5  13
HETATM   13  C   UNL     1      -9.730   9.832  66.424  1.00  0.00    -0.275 C  
HETATM   14  C   UNL     1      -9.484  10.827  67.292  1.00  0.00    -0.177 C  
BRANCH  14  15
HETATM   15  C   UNL     1     -10.234  12.130  67.306  1.00  0.00    -0.202 C  
HETATM   16  H   UNL     1     -11.057  13.229  65.963  1.00  0.00     0.000 HD 
HETATM   17  O   UNL     1     -10.583  12.406  65.953  1.00  0.00    -0.248 OA 
BRANCH  15  18
HETATM   18  C   UNL     1      -9.388  13.264  67.904  1.00  0.00    -0.214 C  
BRANCH  18  19
HETATM   19  C   UNL     1      -8.596  14.061  66.851  1.00  0.00    -0.125 C  
HETATM   20  O   UNL     1      -7.206  13.700  66.898  1.00  0.00    -0.333 OA 
HETATM   21  H   UNL     1      -6.718  14.192  66.248  1.00  0.00     0.000 HD 
BRANCH  19  22
HETATM   22  C   UNL     1      -8.710  15.572  67.042  1.00  0.00    -0.258 C  
HETATM   23  C   UNL     1      -8.398  16.066  68.437  1.00  0.00    -0.178 C  
HETATM   24  O   UNL     1      -7.396  15.411  69.062  1.00  0.00    -0.132 OA 
HETATM   25  O   UNL     1      -8.947  17.040  68.932  1.00  0.00    -0.267 OA 
ENDBRANCH  19  22
ENDBRANCH  18  19
ENDBRANCH  15  18
ENDBRANCH  14  15
ENDBRANCH   5  13
BRANCH   7  26
HETATM   26  C   UNL     1      -9.684   7.414  68.526  1.00  0.00    -0.152 A  
HETATM   27  C   UNL     1     -11.540   6.425  69.782  1.00  0.00    -0.397 A  
HETATM   28  C   UNL     1     -10.007   7.901  70.905  1.00  0.00    -0.196 A  
HETATM   29  C   UNL     1     -11.110   7.064  70.934  1.00  0.00    -0.267 A  
HETATM   30  C   UNL     1     -10.818   6.585  68.593  1.00  0.00    -0.357 A  
HETATM   31  C   UNL     1      -9.319   8.097  69.701  1.00  0.00    -0.159 A  
HETATM   32  F   UNL     1     -11.763   6.867  72.086  1.00  0.00    -0.285 F  
ENDBRANCH   7  26
ENDBRANCH   2   4
TORSDOF 7
ENDMDL
MODEL      181
REMARK 921   NORMALIZED FREE ENERGY PREDICTED BY IDOCK:   -3.67 KCAL/MOL
REMARK 922        TOTAL FREE ENERGY PREDICTED BY IDOCK:   -6.88 KCAL/MOL
REMARK 923 INTER-LIGAND FREE ENERGY PREDICTED BY IDOCK:   -6.10 KCAL/MOL
REMARK 924 INTRA-LIGAND FREE ENERGY PREDICTED BY IDOCK:   -0.78 KCAL/MOL
REMARK 927      BINDING AFFINITY PREDICTED BY RF-SCORE:    0.00 PKD
ROOT
HETATM    1  C   UNL     1     -12.978  15.707  70.269  1.00  0.00    -0.042 C  
HETATM    2  C   UNL     1     -11.801  14.910  70.839  1.00  0.00    -0.321 C  
HETATM    3  C   UNL     1     -11.690  14.930  72.365  1.00  0.00    -0.320 C  
ENDROOT
BRANCH   2   4
HETATM    4  N   UNL     1     -11.643  13.565  70.271  1.00  0.00    -0.144 NA 
HETATM    5  C   UNL     1     -10.842  13.172  69.203  1.00  0.00    -0.094 A  
HETATM    6  C   UNL     1     -13.396   9.998  71.475  1.00  0.00    -0.451 A  
HETATM    7  C   UNL     1     -10.906  11.771  69.112  1.00  0.00    -0.221 A  
HETATM    8  C   UNL     1     -13.871  11.146  72.089  1.00  0.00     0.274 A  
HETATM    9  C   UNL     1     -12.343  12.471  70.764  1.00  0.00    -0.286 A  
HETATM   10  C   UNL     1     -11.866  11.335  70.102  1.00  0.00    -0.449 A  
HETATM   11  C   UNL     1     -12.392  10.080  70.503  1.00  0.00    -0.282 A  
HETATM   12  C   UNL     1     -13.345  12.392  71.753  1.00  0.00    -0.368 A  
BRANCH   5  13
HETATM   13  C   UNL     1     -10.100  14.151  68.483  1.00  0.00    -0.243 C  
HETATM   14  C   UNL     1      -9.173  14.923  69.073  1.00  0.00    -0.176 C  
BRANCH  14  15
HETATM   15  C   UNL     1      -8.330  15.928  68.339  1.00  0.00    -0.174 C  
HETATM   16  H   UNL     1      -8.697  17.357  67.108  1.00  0.00     0.000 HD 
HETATM   17  O   UNL     1      -9.230  16.722  67.572  1.00  0.00    -0.213 OA 
BRANCH  15  18
HETATM   18  C   UNL     1      -7.288  15.245  67.440  1.00  0.00    -0.241 C  
BRANCH  18  19
HETATM   19  C   UNL     1      -6.064  14.717  68.211  1.00  0.00    -0.123 C  
HETATM   20  O   UNL     1      -5.234  13.927  67.343  1.00  0.00    -0.335 OA 
HETATM   21  H   UNL     1      -4.479  13.602  67.819  1.00  0.00     0.000 HD 
BRANCH  19  22
HETATM   22  C   UNL     1      -6.447  13.865  69.420  1.00  0.00    -0.119 C  
HETATM   23  C   UNL     1      -5.827  14.297  70.730  1.00  0.00    -0.199 C  
HETATM   24  O   UNL     1      -5.713  15.633  70.893  1.00  0.00    -0.055 OA 
HETATM   25  O   UNL     1      -5.530  13.506  71.613  1.00  0.00    -0.227 OA 
ENDBRANCH  19  22
ENDBRANCH  18  19
ENDBRANCH  15  18
ENDBRANCH  14  15
ENDBRANCH   5  13
BRANCH   7  26
HETATM   26  C   UNL     1     -10.168  10.968  68.113  1.00  0.00    -0.201 A  
HETATM   27  C   UNL     1      -8.611   9.151  67.587  1.00  0.00    -0.117 A  
HETATM   28  C   UNL     1      -9.703  10.328  65.795  1.00  0.00    -0.297 A  
HETATM   29  C   UNL     1      -8.850   9.329  66.234  1.00  0.00    -0.146 A  
HETATM   30  C   UNL     1      -9.282   9.954  68.518  1.00  0.00    -0.136 A  
HETATM   31  C   UNL     1     -10.332  11.160  66.729  1.00  0.00    -0.284 A  
HETATM   32  F   UNL     1      -8.256   8.524  65.343  1.00  0.00    -0.112 F  
ENDBRANCH   7  26
ENDBRANCH   2   4
TORSDOF 7
ENDMDL
MODEL      182
REMARK 921   NORMALIZED FREE ENERGY PREDICTED BY IDOCK:   -3.67 KCAL/MOL
REMARK 922        TOTAL FREE ENERGY PREDICTED BY IDOCK:   -6.88 KCAL/MOL
REMARK 923 INTER-LIGAND FREE ENERGY PREDICTED BY IDOCK:   -5.87 KCAL/MOL
REMARK 924 INTRA-LIGAND FREE ENERGY PREDICTED BY IDOCK:   -1.01 KCAL/MOL
REMARK 927      BINDING AFFINITY PREDICTED BY RF-SCORE:    0.00 PKD
ROOT
HETATM    1  C   UNL     1     -12.402   8.006  72.161  1.00  0.00    -0.358 C  
HETATM    2  C   UNL     1     -10.950   8.095  71.681  1.00  0.00    -0.250 C  
HETATM    3  C   UNL     1      -9.928   8.399  72.777  1.00  0.00    -0.285 C  
ENDROOT
BRANCH   2   4
HETATM    4  N   UNL     1     -10.532   6.998  70.797  1.00  0.00    -0.210 NA 
HETATM    5  C   UNL     1     -10.192   7.063  69.449  1.00  0.00    -0.189 A  
HETATM    6  C   UNL     1     -10.002   2.979  71.694  1.00  0.00    -0.158 A  
HETATM    7  C   UNL     1      -9.724   5.796  69.064  1.00  0.00    -0.180 A  
HETATM    8  C   UNL     1     -10.577   3.752  72.688  1.00  0.00    -0.152 A  
HETATM    9  C   UNL     1     -10.447   5.685  71.243  1.00  0.00    -0.236 A  
HETATM   10  C   UNL     1      -9.896   4.925  70.206  1.00  0.00    -0.306 A  
HETATM   11  C   UNL     1      -9.646   3.554  70.467  1.00  0.00    -0.246 A  
HETATM   12  C   UNL     1     -10.795   5.113  72.483  1.00  0.00    -0.282 A  
BRANCH   5  13
HETATM   13  C   UNL     1     -10.296   8.303  68.756  1.00  0.00    -0.223 C  
HETATM   14  C   UNL     1     -10.438   8.367  67.422  1.00  0.00    -0.354 C  
BRANCH  14  15
HETATM   15  C   UNL     1     -10.606   9.652  66.659  1.00  0.00    -0.103 C  
HETATM   16  H   UNL     1     -10.028  10.287  64.941  1.00  0.00     0.000 HD 
HETATM   17  O   UNL     1      -9.921   9.475  65.423  1.00  0.00    -0.284 OA 
BRANCH  15  18
HETATM   18  C   UNL     1     -10.047  10.851  67.439  1.00  0.00    -0.223 C  
BRANCH  18  19
HETATM   19  C   UNL     1      -8.604  11.219  67.047  1.00  0.00    -0.148 C  
HETATM   20  O   UNL     1      -8.556  11.649  65.676  1.00  0.00    -0.395 OA 
HETATM   21  H   UNL     1      -7.666  11.876  65.435  1.00  0.00     0.000 HD 
BRANCH  19  22
HETATM   22  C   UNL     1      -7.627  10.058  67.223  1.00  0.00    -0.095 C  
HETATM   23  C   UNL     1      -6.432  10.080  66.296  1.00  0.00    -0.081 C  
HETATM   24  O   UNL     1      -5.933  11.308  66.040  1.00  0.00    -0.116 OA 
HETATM   25  O   UNL     1      -5.901   9.061  65.878  1.00  0.00    -0.049 OA 
ENDBRANCH  19  22
ENDBRANCH  18  19
ENDBRANCH  15  18
ENDBRANCH  14  15
ENDBRANCH   5  13
BRANCH   7  26
HETATM   26  C   UNL     1      -9.241   5.466  67.705  1.00  0.00    -0.115 A  
HETATM   27  C   UNL     1      -7.389   5.167  66.130  1.00  0.00    -0.081 A  
HETATM   28  C   UNL     1      -9.632   4.654  65.428  1.00  0.00    -0.177 A  
HETATM   29  C   UNL     1      -8.273   4.710  65.166  1.00  0.00    -0.118 A  
HETATM   30  C   UNL     1      -7.870   5.523  67.396  1.00  0.00    -0.101 A  
HETATM   31  C   UNL     1     -10.113   5.059  66.678  1.00  0.00    -0.276 A  
HETATM   32  F   UNL     1      -7.809   4.312  63.974  1.00  0.00    -0.077 F  
ENDBRANCH   7  26
ENDBRANCH   2   4
TORSDOF 7
ENDMDL
MODEL      183
REMARK 921   NORMALIZED FREE ENERGY PREDICTED BY IDOCK:   -3.57 KCAL/MOL
REMARK 922        TOTAL FREE ENERGY PREDICTED BY IDOCK:   -6.73 KCAL/MOL
REMARK 923 INTER-LIGAND FREE ENERGY PREDICTED BY IDOCK:   -5.70 KCAL/MOL
REMARK 924 INTRA-LIGAND FREE ENERGY PREDICTED BY IDOCK:   -1.03 KCAL/MOL
REMARK 927      BINDING AFFINITY PREDICTED BY RF-SCORE:    0.00 PKD
ROOT
HETATM    1  C   UNL     1      -6.134   9.815  70.291  1.00  0.00    -0.068 C  
HETATM    2  C   UNL     1      -6.387   9.428  68.830  1.00  0.00    -0.043 C  
HETATM    3  C   UNL     1      -5.817   8.070  68.417  1.00  0.00    -0.036 C  
ENDROOT
BRANCH   2   4
HETATM    4  N   UNL     1      -7.770   9.629  68.377  1.00  0.00    -0.081 NA 
HETATM    5  C   UNL     1      -8.322  10.757  67.778  1.00  0.00    -0.113 A  
HETATM    6  C   UNL     1     -10.968   6.984  68.492  1.00  0.00    -0.135 A  
HETATM    7  C   UNL     1      -9.634  10.439  67.392  1.00  0.00    -0.178 A  
HETATM    8  C   UNL     1      -9.822   6.580  69.157  1.00  0.00    -0.156 A  
HETATM    9  C   UNL     1      -8.744   8.651  68.531  1.00  0.00    -0.139 A  
HETATM   10  C   UNL     1      -9.897   9.103  67.880  1.00  0.00    -0.204 A  
HETATM   11  C   UNL     1     -11.009   8.224  67.842  1.00  0.00     0.106 A  
HETATM   12  C   UNL     1      -8.694   7.399  69.175  1.00  0.00    -0.136 A  
BRANCH   5  13
HETATM   13  C   UNL     1      -7.523  11.923  67.604  1.00  0.00    -0.127 C  
HETATM   14  C   UNL     1      -7.765  13.063  68.273  1.00  0.00    -0.141 C  
BRANCH  14  15
HETATM   15  C   UNL     1      -6.914  14.297  68.160  1.00  0.00    -0.129 C  
HETATM   16  H   UNL     1      -6.238  15.590  69.410  1.00  0.00     0.000 HD 
HETATM   17  O   UNL     1      -6.775  14.810  69.482  1.00  0.00    -0.136 OA 
BRANCH  15  18
HETATM   18  C   UNL     1      -7.547  15.338  67.224  1.00  0.00    -0.244 C  
BRANCH  18  19
HETATM   19  C   UNL     1      -8.800  16.012  67.814  1.00  0.00    -0.176 C  
HETATM   20  O   UNL     1      -8.418  17.042  68.740  1.00  0.00    -0.254 OA 
HETATM   21  H   UNL     1      -9.191  17.458  69.104  1.00  0.00     0.000 HD 
BRANCH  19  22
HETATM   22  C   UNL     1      -9.718  15.028  68.536  1.00  0.00    -0.217 C  
HETATM   23  C   UNL     1     -10.974  15.635  69.121  1.00  0.00    -0.259 C  
HETATM   24  O   UNL     1     -11.535  16.612  68.375  1.00  0.00    -0.258 OA 
HETATM   25  O   UNL     1     -11.494  15.218  70.146  1.00  0.00    -0.249 OA 
ENDBRANCH  19  22
ENDBRANCH  18  19
ENDBRANCH  15  18
ENDBRANCH  14  15
ENDBRANCH   5  13
BRANCH   7  26
HETATM   26  C   UNL     1     -10.546  11.373  66.696  1.00  0.00    -0.302 A  
HETATM   27  C   UNL     1     -11.612  12.149  64.631  1.00  0.00    -0.392 A  
HETATM   28  C   UNL     1     -12.229  13.153  66.729  1.00  0.00    -0.306 A  
HETATM   29  C   UNL     1     -12.380  13.046  65.356  1.00  0.00    -0.486 A  
HETATM   30  C   UNL     1     -10.716  11.306  65.301  1.00  0.00    -0.302 A  
HETATM   31  C   UNL     1     -11.296  12.342  67.387  1.00  0.00    -0.381 A  
HETATM   32  F   UNL     1     -13.279  13.812  64.726  1.00  0.00    -0.162 F  
ENDBRANCH   7  26
ENDBRANCH   2   4
TORSDOF 7
ENDMDL
MODEL      184
REMARK 921   NORMALIZED FREE ENERGY PREDICTED BY IDOCK:   -3.50 KCAL/MOL
REMARK 922        TOTAL FREE ENERGY PREDICTED BY IDOCK:   -6.64 KCAL/MOL
REMARK 923 INTER-LIGAND FREE ENERGY PREDICTED BY IDOCK:   -5.36 KCAL/MOL
REMARK 924 INTRA-LIGAND FREE ENERGY PREDICTED BY IDOCK:   -1.28 KCAL/MOL
REMARK 927      BINDING AFFINITY PREDICTED BY RF-SCORE:    0.00 PKD
ROOT
HETATM    1  C   UNL     1      -9.350   6.805  70.468  1.00  0.00    -0.162 C  
HETATM    2  C   UNL     1     -10.104   7.375  69.263  1.00  0.00    -0.186 C  
HETATM    3  C   UNL     1     -11.177   6.453  68.682  1.00  0.00    -0.338 C  
ENDROOT
BRANCH   2   4
HETATM    4  N   UNL     1     -10.569   8.758  69.433  1.00  0.00    -0.225 NA 
HETATM    5  C   UNL     1     -10.286   9.863  68.636  1.00  0.00    -0.178 A  
HETATM    6  C   UNL     1     -13.092  10.328  72.333  1.00  0.00    -0.135 A  
HETATM    7  C   UNL     1     -11.061  10.938  69.103  1.00  0.00    -0.301 A  
HETATM    8  C   UNL     1     -12.683   9.019  72.528  1.00  0.00    -0.373 A  
HETATM    9  C   UNL     1     -11.382   9.136  70.494  1.00  0.00    -0.257 A  
HETATM   10  C   UNL     1     -11.749  10.470  70.286  1.00  0.00    -0.420 A  
HETATM   11  C   UNL     1     -12.648  11.049  71.217  1.00  0.00    -0.517 A  
HETATM   12  C   UNL     1     -11.836   8.402  71.608  1.00  0.00    -0.357 A  
BRANCH   5  13
HETATM   13  C   UNL     1      -9.391   9.727  67.536  1.00  0.00    -0.152 C  
HETATM   14  C   UNL     1      -9.666   8.938  66.485  1.00  0.00    -0.322 C  
BRANCH  14  15
HETATM   15  C   UNL     1      -8.776   8.809  65.280  1.00  0.00    -0.182 C  
HETATM   16  H   UNL     1      -9.072   8.749  63.383  1.00  0.00     0.000 HD 
HETATM   17  O   UNL     1      -9.635   8.830  64.144  1.00  0.00     0.928 OA 
BRANCH  15  18
HETATM   18  C   UNL     1      -7.946   7.517  65.324  1.00  0.00    -0.126 C  
BRANCH  18  19
HETATM   19  C   UNL     1      -7.479   7.135  66.741  1.00  0.00    -0.089 C  
HETATM   20  O   UNL     1      -6.061   7.332  66.866  1.00  0.00    -0.039 OA 
HETATM   21  H   UNL     1      -5.773   7.097  67.740  1.00  0.00     0.000 HD 
BRANCH  19  22
HETATM   22  C   UNL     1      -7.799   5.686  67.101  1.00  0.00    -0.101 C  
HETATM   23  C   UNL     1      -6.755   4.990  67.945  1.00  0.00    -0.051 C  
HETATM   24  O   UNL     1      -6.164   5.769  68.876  1.00  0.00    -0.026 OA 
HETATM   25  O   UNL     1      -6.522   3.793  67.855  1.00  0.00    -0.036 OA 
ENDBRANCH  19  22
ENDBRANCH  18  19
ENDBRANCH  15  18
ENDBRANCH  14  15
ENDBRANCH   5  13
BRANCH   7  26
HETATM   26  C   UNL     1     -11.060  12.288  68.499  1.00  0.00    -0.290 A  
HETATM   27  C   UNL     1      -9.876  14.357  67.936  1.00  0.00    -0.224 A  
HETATM   28  C   UNL     1     -12.140  14.049  67.182  1.00  0.00    -0.436 A  
HETATM   29  C   UNL     1     -10.984  14.809  67.236  1.00  0.00    -0.318 A  
HETATM   30  C   UNL     1      -9.911  13.097  68.545  1.00  0.00    -0.155 A  
HETATM   31  C   UNL     1     -12.186  12.811  67.836  1.00  0.00     0.016 A  
HETATM   32  F   UNL     1     -10.934  15.988  66.603  1.00  0.00    -0.308 F  
ENDBRANCH   7  26
ENDBRANCH   2   4
TORSDOF 7
ENDMDL
MODEL      185
REMARK 921   NORMALIZED FREE ENERGY PREDICTED BY IDOCK:   -3.41 KCAL/MOL
REMARK 922        TOTAL FREE ENERGY PREDICTED BY IDOCK:   -6.51 KCAL/MOL
REMARK 923 INTER-LIGAND FREE ENERGY PREDICTED BY IDOCK:   -6.04 KCAL/MOL
REMARK 924 INTRA-LIGAND FREE ENERGY PREDICTED BY IDOCK:   -0.48 KCAL/MOL
REMARK 927      BINDING AFFINITY PREDICTED BY RF-SCORE:    0.00 PKD
ROOT
HETATM    1  C   UNL     1      -9.153  19.298  68.593  1.00  0.00    -0.428 C  
HETATM    2  C   UNL     1      -9.021  18.101  67.646  1.00  0.00    -0.259 C  
HETATM    3  C   UNL     1      -8.438  18.430  66.271  1.00  0.00    -0.218 C  
ENDROOT
BRANCH   2   4
HETATM    4  N   UNL     1      -8.416  16.908  68.253  1.00  0.00    -0.221 NA 
HETATM    5  C   UNL     1      -8.793  15.578  68.094  1.00  0.00    -0.169 A  
HETATM    6  C   UNL     1      -5.140  16.644  70.791  1.00  0.00    -0.219 A  
HETATM    7  C   UNL     1      -7.841  14.781  68.751  1.00  0.00    -0.146 A  
HETATM    8  C   UNL     1      -5.596  17.924  70.518  1.00  0.00    -0.184 A  
HETATM    9  C   UNL     1      -7.340  16.993  69.128  1.00  0.00    -0.186 A  
HETATM   10  C   UNL     1      -6.926  15.687  69.410  1.00  0.00    -0.196 A  
HETATM   11  C   UNL     1      -5.781  15.531  70.234  1.00  0.00    -0.143 A  
HETATM   12  C   UNL     1      -6.690  18.116  69.676  1.00  0.00    -0.015 A  
BRANCH   5  13
HETATM   13  C   UNL     1      -9.936  15.260  67.307  1.00  0.00    -0.226 C  
HETATM   14  C   UNL     1      -9.837  14.659  66.110  1.00  0.00    -0.334 C  
BRANCH  14  15
HETATM   15  C   UNL     1     -11.020  14.257  65.274  1.00  0.00    -0.343 C  
HETATM   16  H   UNL     1     -12.922  14.478  65.431  1.00  0.00     0.000 HD 
HETATM   17  O   UNL     1     -12.175  14.732  65.960  1.00  0.00    -0.201 OA 
BRANCH  15  18
HETATM   18  C   UNL     1     -11.081  12.735  65.073  1.00  0.00    -0.317 C  
BRANCH  18  19
HETATM   19  C   UNL     1     -10.513  12.271  63.719  1.00  0.00    -0.444 C  
HETATM   20  O   UNL     1     -11.290  12.820  62.642  1.00  0.00    -0.401 OA 
HETATM   21  H   UNL     1     -10.939  12.534  61.807  1.00  0.00     0.000 HD 
BRANCH  19  22
HETATM   22  C   UNL     1     -10.493  10.751  63.574  1.00  0.00    -0.141 C  
HETATM   23  C   UNL     1      -9.132  10.110  63.730  1.00  0.00    -0.261 C  
HETATM   24  O   UNL     1      -8.339  10.678  64.663  1.00  0.00    -0.149 OA 
HETATM   25  O   UNL     1      -8.803   9.101  63.123  1.00  0.00    -0.196 OA 
ENDBRANCH  19  22
ENDBRANCH  18  19
ENDBRANCH  15  18
ENDBRANCH  14  15
ENDBRANCH   5  13
BRANCH   7  26
HETATM   26  C   UNL     1      -7.877  13.303  68.789  1.00  0.00     0.008 A  
HETATM   27  C   UNL     1      -6.765  11.166  69.237  1.00  0.00    -0.103 A  
HETATM   28  C   UNL     1      -9.093  11.182  68.631  1.00  0.00    -0.166 A  
HETATM   29  C   UNL     1      -7.952  10.491  69.004  1.00  0.00    -0.136 A  
HETATM   30  C   UNL     1      -6.735  12.564  69.148  1.00  0.00    -0.089 A  
HETATM   31  C   UNL     1      -9.045  12.575  68.495  1.00  0.00    -0.062 A  
HETATM   32  F   UNL     1      -7.998   9.161  69.145  1.00  0.00    -0.089 F  
ENDBRANCH   7  26
ENDBRANCH   2   4
TORSDOF 7
ENDMDL
MODEL      186
REMARK 921   NORMALIZED FREE ENERGY PREDICTED BY IDOCK:   -3.40 KCAL/MOL
REMARK 922        TOTAL FREE ENERGY PREDICTED BY IDOCK:   -6.49 KCAL/MOL
REMARK 923 INTER-LIGAND FREE ENERGY PREDICTED BY IDOCK:   -5.06 KCAL/MOL
REMARK 924 INTRA-LIGAND FREE ENERGY PREDICTED BY IDOCK:   -1.43 KCAL/MOL
REMARK 927      BINDING AFFINITY PREDICTED BY RF-SCORE:    0.00 PKD
ROOT
HETATM    1  C   UNL     1     -10.150  10.403  64.974  1.00  0.00    -0.379 C  
HETATM    2  C   UNL     1     -10.060  10.497  66.500  1.00  0.00    -0.225 C  
HETATM    3  C   UNL     1     -10.235   9.168  67.238  1.00  0.00    -0.319 C  
ENDROOT
BRANCH   2   4
HETATM    4  N   UNL     1      -8.921  11.281  66.996  1.00  0.00    -0.151 NA 
HETATM    5  C   UNL     1      -8.863  12.649  67.244  1.00  0.00    -0.196 A  
HETATM    6  C   UNL     1      -5.126   9.983  68.072  1.00  0.00    -0.035 A  
HETATM    7  C   UNL     1      -7.621  12.924  67.840  1.00  0.00    -0.138 A  
HETATM    8  C   UNL     1      -5.941   9.041  67.467  1.00  0.00    -0.050 A  
HETATM    9  C   UNL     1      -7.689  10.699  67.270  1.00  0.00    -0.108 A  
HETATM   10  C   UNL     1      -6.880  11.682  67.847  1.00  0.00    -0.074 A  
HETATM   11  C   UNL     1      -5.588  11.289  68.280  1.00  0.00    -0.045 A  
HETATM   12  C   UNL     1      -7.234   9.380  67.070  1.00  0.00    -0.087 A  
BRANCH   5  13
HETATM   13  C   UNL     1      -9.990  13.466  66.946  1.00  0.00    -0.252 C  
HETATM   14  C   UNL     1     -10.714  14.064  67.906  1.00  0.00    -0.246 C  
BRANCH  14  15
HETATM   15  C   UNL     1     -11.876  14.978  67.632  1.00  0.00    -0.182 C  
HETATM   16  H   UNL     1     -12.720  15.650  66.042  1.00  0.00     0.000 HD 
HETATM   17  O   UNL     1     -11.986  15.072  66.215  1.00  0.00    -0.136 OA 
BRANCH  15  18
HETATM   18  C   UNL     1     -11.669  16.362  68.266  1.00  0.00     0.106 C  
BRANCH  18  19
HETATM   19  C   UNL     1     -10.203  16.832  68.250  1.00  0.00    -0.295 C  
HETATM   20  O   UNL     1      -9.976  17.785  69.302  1.00  0.00    -0.235 OA 
HETATM   21  H   UNL     1      -9.072  18.075  69.292  1.00  0.00     0.000 HD 
BRANCH  19  22
HETATM   22  C   UNL     1      -9.800  17.473  66.923  1.00  0.00    -0.302 C  
HETATM   23  C   UNL     1      -9.610  18.972  66.967  1.00  0.00    -0.318 C  
HETATM   24  O   UNL     1      -9.054  19.442  68.104  1.00  0.00    -0.312 OA 
HETATM   25  O   UNL     1      -9.858  19.698  66.015  1.00  0.00    -0.402 OA 
ENDBRANCH  19  22
ENDBRANCH  18  19
ENDBRANCH  15  18
ENDBRANCH  14  15
ENDBRANCH   5  13
BRANCH   7  26
HETATM   26  C   UNL     1      -7.188  14.269  68.278  1.00  0.00    -0.117 A  
HETATM   27  C   UNL     1      -6.881  15.920  70.062  1.00  0.00     0.105 A  
HETATM   28  C   UNL     1      -6.105  16.422  67.841  1.00  0.00    -0.137 A  
HETATM   29  C   UNL     1      -6.248  16.774  69.173  1.00  0.00    -0.188 A  
HETATM   30  C   UNL     1      -7.330  14.669  69.619  1.00  0.00    -0.064 A  
HETATM   31  C   UNL     1      -6.600  15.192  67.393  1.00  0.00    -0.090 A  
HETATM   32  F   UNL     1      -5.766  17.945  69.606  1.00  0.00    -0.188 F  
ENDBRANCH   7  26
ENDBRANCH   2   4
TORSDOF 7
ENDMDL
MODEL      187
REMARK 921   NORMALIZED FREE ENERGY PREDICTED BY IDOCK:   -3.39 KCAL/MOL
REMARK 922        TOTAL FREE ENERGY PREDICTED BY IDOCK:   -6.48 KCAL/MOL
REMARK 923 INTER-LIGAND FREE ENERGY PREDICTED BY IDOCK:   -6.93 KCAL/MOL
REMARK 924 INTRA-LIGAND FREE ENERGY PREDICTED BY IDOCK:    0.45 KCAL/MOL
REMARK 927      BINDING AFFINITY PREDICTED BY RF-SCORE:    0.00 PKD
ROOT
HETATM    1  C   UNL     1     -12.106  15.653  64.113  1.00  0.00    -0.002 C  
HETATM    2  C   UNL     1     -11.663  14.522  65.047  1.00  0.00    -0.392 C  
HETATM    3  C   UNL     1     -11.445  13.172  64.363  1.00  0.00    -0.407 C  
ENDROOT
BRANCH   2   4
HETATM    4  N   UNL     1     -10.574  14.881  65.965  1.00  0.00    -0.302 NA 
HETATM    5  C   UNL     1      -9.842  14.042  66.799  1.00  0.00    -0.273 A  
HETATM    6  C   UNL     1      -8.869  18.602  66.666  1.00  0.00    -0.305 A  
HETATM    7  C   UNL     1      -8.816  14.806  67.382  1.00  0.00    -0.203 A  
HETATM    8  C   UNL     1     -10.006  18.594  65.874  1.00  0.00    -0.123 A  
HETATM    9  C   UNL     1     -10.146  16.194  66.121  1.00  0.00    -0.338 A  
HETATM   10  C   UNL     1      -9.020  16.171  66.952  1.00  0.00    -0.248 A  
HETATM   11  C   UNL     1      -8.364  17.406  67.190  1.00  0.00    -0.232 A  
HETATM   12  C   UNL     1     -10.650  17.394  65.581  1.00  0.00    -0.158 A  
BRANCH   5  13
HETATM   13  C   UNL     1     -10.172  12.659  66.872  1.00  0.00    -0.242 C  
HETATM   14  C   UNL     1     -10.892  12.148  67.884  1.00  0.00    -0.254 C  
BRANCH  14  15
HETATM   15  C   UNL     1     -11.310  10.706  67.970  1.00  0.00    -0.278 C  
HETATM   16  H   UNL     1     -12.733   9.762  68.850  1.00  0.00     0.000 HD 
HETATM   17  O   UNL     1     -12.469  10.674  68.797  1.00  0.00    -0.278 OA 
BRANCH  15  18
HETATM   18  C   UNL     1     -10.191   9.826  68.548  1.00  0.00    -0.209 C  
BRANCH  18  19
HETATM   19  C   UNL     1     -10.151   9.816  70.087  1.00  0.00    -0.265 C  
HETATM   20  O   UNL     1      -8.789   9.799  70.548  1.00  0.00    -0.305 OA 
HETATM   21  H   UNL     1      -8.765   9.792  71.497  1.00  0.00     0.000 HD 
BRANCH  19  22
HETATM   22  C   UNL     1     -10.880   8.617  70.691  1.00  0.00    -0.265 C  
HETATM   23  C   UNL     1     -11.894   8.957  71.761  1.00  0.00    -0.358 C  
HETATM   24  O   UNL     1     -12.591  10.093  71.544  1.00  0.00    -0.367 OA 
HETATM   25  O   UNL     1     -12.130   8.218  72.706  1.00  0.00    -0.353 OA 
ENDBRANCH  19  22
ENDBRANCH  18  19
ENDBRANCH  15  18
ENDBRANCH  14  15
ENDBRANCH   5  13
BRANCH   7  26
HETATM   26  C   UNL     1      -7.804  14.265  68.315  1.00  0.00    -0.141 A  
HETATM   27  C   UNL     1      -6.545  14.438  70.410  1.00  0.00    -0.029 A  
HETATM   28  C   UNL     1      -6.278  12.486  69.029  1.00  0.00    -0.087 A  
HETATM   29  C   UNL     1      -5.981  13.193  70.182  1.00  0.00    -0.138 A  
HETATM   30  C   UNL     1      -7.465  14.959  69.490  1.00  0.00    -0.162 A  
HETATM   31  C   UNL     1      -7.159  13.034  68.089  1.00  0.00    -0.107 A  
HETATM   32  F   UNL     1      -5.147  12.667  71.088  1.00  0.00    -0.108 F  
ENDBRANCH   7  26
ENDBRANCH   2   4
TORSDOF 7
ENDMDL
MODEL      188
REMARK 921   NORMALIZED FREE ENERGY PREDICTED BY IDOCK:   -3.38 KCAL/MOL
REMARK 922        TOTAL FREE ENERGY PREDICTED BY IDOCK:   -6.46 KCAL/MOL
REMARK 923 INTER-LIGAND FREE ENERGY PREDICTED BY IDOCK:   -5.17 KCAL/MOL
REMARK 924 INTRA-LIGAND FREE ENERGY PREDICTED BY IDOCK:   -1.29 KCAL/MOL
REMARK 927      BINDING AFFINITY PREDICTED BY RF-SCORE:    0.00 PKD
ROOT
HETATM    1  C   UNL     1      -5.934   6.734  67.703  1.00  0.00    -0.024 C  
HETATM    2  C   UNL     1      -6.745   7.631  66.761  1.00  0.00    -0.066 C  
HETATM    3  C   UNL     1      -7.516   6.887  65.670  1.00  0.00    -0.085 C  
ENDROOT
BRANCH   2   4
HETATM    4  N   UNL     1      -7.554   8.652  67.440  1.00  0.00    -0.093 NA 
HETATM    5  C   UNL     1      -8.724   8.475  68.172  1.00  0.00    -0.142 A  
HETATM    6  C   UNL     1      -6.899  12.744  67.719  1.00  0.00    -0.135 A  
HETATM    7  C   UNL     1      -9.061   9.711  68.749  1.00  0.00    -0.134 A  
HETATM    8  C   UNL     1      -6.061  12.051  66.860  1.00  0.00    -0.076 A  
HETATM    9  C   UNL     1      -7.222  10.001  67.400  1.00  0.00    -0.085 A  
HETATM   10  C   UNL     1      -8.106  10.675  68.249  1.00  0.00    -0.118 A  
HETATM   11  C   UNL     1      -7.904  12.068  68.423  1.00  0.00    -0.147 A  
HETATM   12  C   UNL     1      -6.201  10.674  66.699  1.00  0.00    -0.083 A  
BRANCH   5  13
HETATM   13  C   UNL     1      -9.303   7.177  68.269  1.00  0.00    -0.130 C  
HETATM   14  C   UNL     1      -9.075   6.369  69.317  1.00  0.00    -0.136 C  
BRANCH  14  15
HETATM   15  C   UNL     1      -9.710   5.016  69.485  1.00  0.00    -0.189 C  
HETATM   16  H   UNL     1     -11.363   4.383  70.231  1.00  0.00     0.000 HD 
HETATM   17  O   UNL     1     -10.962   5.238  70.125  1.00  0.00    -0.170 OA 
BRANCH  15  18
HETATM   18  C   UNL     1      -8.822   4.073  70.312  1.00  0.00    -0.141 C  
BRANCH  18  19
HETATM   19  C   UNL     1      -7.773   4.809  71.166  1.00  0.00    -0.082 C  
HETATM   20  O   UNL     1      -6.854   3.866  71.743  1.00  0.00    -0.025 OA 
HETATM   21  H   UNL     1      -6.208   4.320  72.270  1.00  0.00     0.000 HD 
BRANCH  19  22
HETATM   22  C   UNL     1      -8.396   5.629  72.294  1.00  0.00    -0.119 C  
HETATM   23  C   UNL     1      -7.411   6.394  73.149  1.00  0.00    -0.090 C  
HETATM   24  O   UNL     1      -6.360   6.914  72.480  1.00  0.00    -0.052 OA 
HETATM   25  O   UNL     1      -7.593   6.604  74.339  1.00  0.00    -0.098 OA 
ENDBRANCH  19  22
ENDBRANCH  18  19
ENDBRANCH  15  18
ENDBRANCH  14  15
ENDBRANCH   5  13
BRANCH   7  26
HETATM   26  C   UNL     1     -10.232   9.928  69.625  1.00  0.00    -0.261 A  
HETATM   27  C   UNL     1     -11.455   9.432  71.689  1.00  0.00    -0.463 A  
HETATM   28  C   UNL     1     -12.280  11.139  70.208  1.00  0.00    -0.436 A  
HETATM   29  C   UNL     1     -12.381  10.417  71.386  1.00  0.00    -0.397 A  
HETATM   30  C   UNL     1     -10.379   9.204  70.823  1.00  0.00    -0.323 A  
HETATM   31  C   UNL     1     -11.229  10.873  69.322  1.00  0.00    -0.327 A  
HETATM   32  F   UNL     1     -13.378  10.677  72.240  1.00  0.00    -0.544 F  
ENDBRANCH   7  26
ENDBRANCH   2   4
TORSDOF 7
ENDMDL
MODEL      189
REMARK 921   NORMALIZED FREE ENERGY PREDICTED BY IDOCK:   -3.37 KCAL/MOL
REMARK 922        TOTAL FREE ENERGY PREDICTED BY IDOCK:   -6.45 KCAL/MOL
REMARK 923 INTER-LIGAND FREE ENERGY PREDICTED BY IDOCK:   -4.71 KCAL/MOL
REMARK 924 INTRA-LIGAND FREE ENERGY PREDICTED BY IDOCK:   -1.74 KCAL/MOL
REMARK 927      BINDING AFFINITY PREDICTED BY RF-SCORE:    0.00 PKD
ROOT
HETATM    1  C   UNL     1     -10.593   9.595  69.672  1.00  0.00    -0.252 C  
HETATM    2  C   UNL     1      -9.120   9.681  69.259  1.00  0.00    -0.172 C  
HETATM    3  C   UNL     1      -8.124   9.612  70.417  1.00  0.00    -0.198 C  
ENDROOT
BRANCH   2   4
HETATM    4  N   UNL     1      -8.751   8.812  68.133  1.00  0.00    -0.134 NA 
HETATM    5  C   UNL     1      -8.935   7.438  68.012  1.00  0.00    -0.132 A  
HETATM    6  C   UNL     1      -6.983   9.832  64.517  1.00  0.00    -0.125 A  
HETATM    7  C   UNL     1      -8.557   7.068  66.711  1.00  0.00    -0.120 A  
HETATM    8  C   UNL     1      -7.051  10.839  65.466  1.00  0.00     0.025 A  
HETATM    9  C   UNL     1      -8.116   9.305  67.000  1.00  0.00    -0.112 A  
HETATM   10  C   UNL     1      -8.033   8.258  66.077  1.00  0.00    -0.098 A  
HETATM   11  C   UNL     1      -7.482   8.555  64.804  1.00  0.00    -0.095 A  
HETATM   12  C   UNL     1      -7.627  10.595  66.711  1.00  0.00    -0.120 A  
BRANCH   5  13
HETATM   13  C   UNL     1      -9.488   6.704  69.100  1.00  0.00    -0.136 C  
HETATM   14  C   UNL     1      -8.817   5.712  69.709  1.00  0.00    -0.130 C  
BRANCH  14  15
HETATM   15  C   UNL     1      -9.342   4.950  70.894  1.00  0.00    -0.152 C  
HETATM   16  H   UNL     1     -10.174   3.236  71.136  1.00  0.00     0.000 HD 
HETATM   17  O   UNL     1      -9.843   3.717  70.387  1.00  0.00    -0.185 OA 
BRANCH  15  18
HETATM   18  C   UNL     1     -10.438   5.735  71.630  1.00  0.00    -0.286 C  
BRANCH  18  19
HETATM   19  C   UNL     1     -10.078   6.071  73.089  1.00  0.00    -0.186 C  
HETATM   20  O   UNL     1     -11.148   5.684  73.966  1.00  0.00    -0.376 OA 
HETATM   21  H   UNL     1     -10.926   5.892  74.866  1.00  0.00     0.000 HD 
BRANCH  19  22
HETATM   22  C   UNL     1      -9.793   7.557  73.302  1.00  0.00    -0.343 C  
HETATM   23  C   UNL     1      -8.359   7.891  73.646  1.00  0.00    -0.227 C  
HETATM   24  O   UNL     1      -7.432   7.142  73.012  1.00  0.00    -0.073 OA 
HETATM   25  O   UNL     1      -8.054   8.825  74.374  1.00  0.00    -0.320 OA 
ENDBRANCH  19  22
ENDBRANCH  18  19
ENDBRANCH  15  18
ENDBRANCH  14  15
ENDBRANCH   5  13
BRANCH   7  26
HETATM   26  C   UNL     1      -8.632   5.688  66.183  1.00  0.00    -0.132 A  
HETATM   27  C   UNL     1      -7.516   3.688  65.313  1.00  0.00    -0.077 A  
HETATM   28  C   UNL     1      -9.892   3.646  65.689  1.00  0.00    -0.054 A  
HETATM   29  C   UNL     1      -8.724   3.010  65.304  1.00  0.00    -0.116 A  
HETATM   30  C   UNL     1      -7.471   5.012  65.769  1.00  0.00    -0.082 A  
HETATM   31  C   UNL     1      -9.848   4.985  66.096  1.00  0.00    -0.214 A  
HETATM   32  F   UNL     1      -8.761   1.726  64.925  1.00  0.00    -0.089 F  
ENDBRANCH   7  26
ENDBRANCH   2   4
TORSDOF 7
ENDMDL
MODEL      190
REMARK 921   NORMALIZED FREE ENERGY PREDICTED BY IDOCK:   -3.33 KCAL/MOL
REMARK 922        TOTAL FREE ENERGY PREDICTED BY IDOCK:   -6.40 KCAL/MOL
REMARK 923 INTER-LIGAND FREE ENERGY PREDICTED BY IDOCK:   -5.33 KCAL/MOL
REMARK 924 INTRA-LIGAND FREE ENERGY PREDICTED BY IDOCK:   -1.07 KCAL/MOL
REMARK 927      BINDING AFFINITY PREDICTED BY RF-SCORE:    0.00 PKD
ROOT
HETATM    1  C   UNL     1      -7.315   6.752  71.024  1.00  0.00    -0.078 C  
HETATM    2  C   UNL     1      -7.823   7.645  69.888  1.00  0.00    -0.102 C  
HETATM    3  C   UNL     1      -7.804   6.998  68.503  1.00  0.00    -0.122 C  
ENDROOT
BRANCH   2   4
HETATM    4  N   UNL     1      -9.084   8.341  70.178  1.00  0.00    -0.146 NA 
HETATM    5  C   UNL     1      -9.358   9.702  70.073  1.00  0.00    -0.241 A  
HETATM    6  C   UNL     1     -12.713   6.758  71.428  1.00  0.00    -0.317 A  
HETATM    7  C   UNL     1     -10.730   9.882  70.317  1.00  0.00    -0.367 A  
HETATM    8  C   UNL     1     -11.642   5.880  71.407  1.00  0.00    -0.112 A  
HETATM    9  C   UNL     1     -10.208   7.667  70.638  1.00  0.00    -0.199 A  
HETATM   10  C   UNL     1     -11.261   8.587  70.681  1.00  0.00    -0.278 A  
HETATM   11  C   UNL     1     -12.538   8.096  71.054  1.00  0.00    -0.068 A  
HETATM   12  C   UNL     1     -10.382   6.316  71.001  1.00  0.00    -0.258 A  
BRANCH   5  13
HETATM   13  C   UNL     1      -8.319  10.602  69.705  1.00  0.00     0.075 C  
HETATM   14  C   UNL     1      -8.203  11.090  68.458  1.00  0.00    -0.146 C  
BRANCH  14  15
HETATM   15  C   UNL     1      -7.156  12.085  68.042  1.00  0.00    -0.086 C  
HETATM   16  H   UNL     1      -7.178  13.937  67.534  1.00  0.00     0.000 HD 
HETATM   17  O   UNL     1      -7.841  13.309  67.797  1.00  0.00    -0.128 OA 
BRANCH  15  18
HETATM   18  C   UNL     1      -6.394  11.615  66.794  1.00  0.00    -0.114 C  
BRANCH  18  19
HETATM   19  C   UNL     1      -6.712  10.163  66.390  1.00  0.00    -0.092 C  
HETATM   20  O   UNL     1      -5.650   9.629  65.583  1.00  0.00    -0.047 OA 
HETATM   21  H   UNL     1      -5.847   8.734  65.334  1.00  0.00     0.000 HD 
BRANCH  19  22
HETATM   22  C   UNL     1      -8.020  10.039  65.611  1.00  0.00    -0.140 C  
HETATM   23  C   UNL     1      -8.093   8.860  64.666  1.00  0.00    -0.151 C  
HETATM   24  O   UNL     1      -7.501   7.733  65.116  1.00  0.00    -0.075 OA 
HETATM   25  O   UNL     1      -8.715   8.893  63.614  1.00  0.00    -0.147 OA 
ENDBRANCH  19  22
ENDBRANCH  18  19
ENDBRANCH  15  18
ENDBRANCH  14  15
ENDBRANCH   5  13
BRANCH   7  26
HETATM   26  C   UNL     1     -11.417  11.191  70.273  1.00  0.00    -0.329 A  
HETATM   27  C   UNL     1     -12.829  12.881  71.347  1.00  0.00    -0.377 A  
HETATM   28  C   UNL     1     -11.866  13.343  69.191  1.00  0.00    -0.383 A  
HETATM   29  C   UNL     1     -12.627  13.739  70.278  1.00  0.00    -0.222 A  
HETATM   30  C   UNL     1     -12.211  11.624  71.350  1.00  0.00    -0.029 A  
HETATM   31  C   UNL     1     -11.292  12.066  69.177  1.00  0.00    -0.338 A  
HETATM   32  F   UNL     1     -13.168  14.964  70.298  1.00  0.00    -0.313 F  
ENDBRANCH   7  26
ENDBRANCH   2   4
TORSDOF 7
ENDMDL
MODEL      191
REMARK 921   NORMALIZED FREE ENERGY PREDICTED BY IDOCK:   -3.29 KCAL/MOL
REMARK 922        TOTAL FREE ENERGY PREDICTED BY IDOCK:   -6.34 KCAL/MOL
REMARK 923 INTER-LIGAND FREE ENERGY PREDICTED BY IDOCK:   -5.40 KCAL/MOL
REMARK 924 INTRA-LIGAND FREE ENERGY PREDICTED BY IDOCK:   -0.93 KCAL/MOL
REMARK 927      BINDING AFFINITY PREDICTED BY RF-SCORE:    0.00 PKD
ROOT
HETATM    1  C   UNL     1     -12.173  15.097  67.193  1.00  0.00     0.417 C  
HETATM    2  C   UNL     1     -11.150  14.522  66.207  1.00  0.00    -0.332 C  
HETATM    3  C   UNL     1     -11.053  15.265  64.874  1.00  0.00    -0.435 C  
ENDROOT
BRANCH   2   4
HETATM    4  N   UNL     1      -9.837  14.227  66.795  1.00  0.00    -0.261 NA 
HETATM    5  C   UNL     1      -9.443  13.088  67.492  1.00  0.00    -0.198 A  
HETATM    6  C   UNL     1      -6.374  16.518  66.736  1.00  0.00    -0.091 A  
HETATM    7  C   UNL     1      -8.064  13.191  67.738  1.00  0.00    -0.165 A  
HETATM    8  C   UNL     1      -7.517  17.133  66.251  1.00  0.00    -0.344 A  
HETATM    9  C   UNL     1      -8.781  15.128  66.729  1.00  0.00    -0.273 A  
HETATM   10  C   UNL     1      -7.653  14.491  67.256  1.00  0.00    -0.150 A  
HETATM   11  C   UNL     1      -6.428  15.205  67.220  1.00  0.00     0.092 A  
HETATM   12  C   UNL     1      -8.729  16.445  66.229  1.00  0.00    -0.369 A  
BRANCH   5  13
HETATM   13  C   UNL     1     -10.396  12.064  67.761  1.00  0.00    -0.210 C  
HETATM   14  C   UNL     1     -10.258  11.212  68.790  1.00  0.00    -0.219 C  
BRANCH  14  15
HETATM   15  C   UNL     1     -11.267  10.154  69.142  1.00  0.00    -0.183 C  
HETATM   16  H   UNL     1     -13.148   9.924  68.826  1.00  0.00     0.000 HD 
HETATM   17  O   UNL     1     -12.511  10.593  68.604  1.00  0.00    -0.252 OA 
BRANCH  15  18
HETATM   18  C   UNL     1     -11.361   9.944  70.661  1.00  0.00    -0.413 C  
BRANCH  18  19
HETATM   19  C   UNL     1     -12.751   9.475  71.131  1.00  0.00    -0.291 C  
HETATM   20  O   UNL     1     -13.071  10.068  72.400  1.00  0.00    -0.497 OA 
HETATM   21  H   UNL     1     -13.928   9.779  72.690  1.00  0.00     0.000 HD 
BRANCH  19  22
HETATM   22  C   UNL     1     -12.848   7.957  71.269  1.00  0.00    -0.244 C  
HETATM   23  C   UNL     1     -11.822   7.330  72.188  1.00  0.00    -0.286 C  
HETATM   24  O   UNL     1     -11.518   8.059  73.283  1.00  0.00    -0.254 OA 
HETATM   25  O   UNL     1     -11.365   6.212  72.003  1.00  0.00    -0.269 OA 
ENDBRANCH  19  22
ENDBRANCH  18  19
ENDBRANCH  15  18
ENDBRANCH  14  15
ENDBRANCH   5  13
BRANCH   7  26
HETATM   26  C   UNL     1      -7.265  12.161  68.436  1.00  0.00    -0.097 A  
HETATM   27  C   UNL     1      -6.117  11.376  70.453  1.00  0.00    -0.110 A  
HETATM   28  C   UNL     1      -6.253   9.932  68.533  1.00  0.00    -0.049 A  
HETATM   29  C   UNL     1      -5.858  10.160  69.841  1.00  0.00    -0.048 A  
HETATM   30  C   UNL     1      -6.833  12.360  69.760  1.00  0.00     0.233 A  
HETATM   31  C   UNL     1      -6.924  10.938  67.828  1.00  0.00    -0.077 A  
HETATM   32  F   UNL     1      -5.226   9.195  70.522  1.00  0.00    -0.024 F  
ENDBRANCH   7  26
ENDBRANCH   2   4
TORSDOF 7
ENDMDL
MODEL      192
REMARK 921   NORMALIZED FREE ENERGY PREDICTED BY IDOCK:   -3.08 KCAL/MOL
REMARK 922        TOTAL FREE ENERGY PREDICTED BY IDOCK:   -6.04 KCAL/MOL
REMARK 923 INTER-LIGAND FREE ENERGY PREDICTED BY IDOCK:   -3.92 KCAL/MOL
REMARK 924 INTRA-LIGAND FREE ENERGY PREDICTED BY IDOCK:   -2.12 KCAL/MOL
REMARK 927      BINDING AFFINITY PREDICTED BY RF-SCORE:    0.00 PKD
ROOT
HETATM    1  C   UNL     1      -9.923   3.131  72.923  1.00  0.00    -0.206 C  
HETATM    2  C   UNL     1     -10.634   4.312  72.253  1.00  0.00    -0.029 C  
HETATM    3  C   UNL     1     -11.799   4.898  73.053  1.00  0.00    -0.127 C  
ENDROOT
BRANCH   2   4
HETATM    4  N   UNL     1      -9.734   5.340  71.716  1.00  0.00    -0.154 NA 
HETATM    5  C   UNL     1      -9.354   5.543  70.393  1.00  0.00    -0.159 A  
HETATM    6  C   UNL     1      -7.757   8.390  73.725  1.00  0.00    -0.167 A  
HETATM    7  C   UNL     1      -8.597   6.725  70.341  1.00  0.00    -0.146 A  
HETATM    8  C   UNL     1      -8.401   7.456  74.520  1.00  0.00    -0.240 A  
HETATM    9  C   UNL     1      -9.107   6.271  72.535  1.00  0.00    -0.141 A  
HETATM   10  C   UNL     1      -8.439   7.178  71.705  1.00  0.00    -0.114 A  
HETATM   11  C   UNL     1      -7.785   8.270  72.330  1.00  0.00    -0.168 A  
HETATM   12  C   UNL     1      -9.093   6.395  73.939  1.00  0.00    -0.148 A  
BRANCH   5  13
HETATM   13  C   UNL     1      -9.806   4.644  69.385  1.00  0.00    -0.272 C  
HETATM   14  C   UNL     1      -9.016   3.683  68.877  1.00  0.00    -0.182 C  
BRANCH  14  15
HETATM   15  C   UNL     1      -9.471   2.680  67.854  1.00  0.00    -0.132 C  
HETATM   16  H   UNL     1     -10.092   0.863  67.928  1.00  0.00     0.000 HD 
HETATM   17  O   UNL     1      -9.805   1.497  68.575  1.00  0.00    -0.132 OA 
BRANCH  15  18
HETATM   18  C   UNL     1      -8.380   2.404  66.808  1.00  0.00    -0.091 C  
BRANCH  18  19
HETATM   19  C   UNL     1      -8.700   2.985  65.419  1.00  0.00    -0.122 C  
HETATM   20  O   UNL     1      -8.630   1.952  64.422  1.00  0.00    -0.088 OA 
HETATM   21  H   UNL     1      -8.828   2.311  63.565  1.00  0.00     0.000 HD 
BRANCH  19  22
HETATM   22  C   UNL     1      -7.751   4.111  65.014  1.00  0.00    -0.082 C  
HETATM   23  C   UNL     1      -8.381   5.484  64.941  1.00  0.00    -0.142 C  
HETATM   24  O   UNL     1      -9.312   5.734  65.886  1.00  0.00    -0.152 OA 
HETATM   25  O   UNL     1      -8.017   6.337  64.144  1.00  0.00    -0.114 OA 
ENDBRANCH  19  22
ENDBRANCH  18  19
ENDBRANCH  15  18
ENDBRANCH  14  15
ENDBRANCH   5  13
BRANCH   7  26
HETATM   26  C   UNL     1      -8.030   7.296  69.099  1.00  0.00    -0.119 A  
HETATM   27  C   UNL     1      -6.375   7.219  67.294  1.00  0.00    -0.054 A  
HETATM   28  C   UNL     1      -8.117   8.877  67.230  1.00  0.00    -0.104 A  
HETATM   29  C   UNL     1      -7.008   8.275  66.659  1.00  0.00    -0.069 A  
HETATM   30  C   UNL     1      -6.896   6.722  68.496  1.00  0.00    -0.074 A  
HETATM   31  C   UNL     1      -8.604   8.409  68.457  1.00  0.00    -0.136 A  
HETATM   32  F   UNL     1      -6.548   8.714  65.481  1.00  0.00    -0.060 F  
ENDBRANCH   7  26
ENDBRANCH   2   4
TORSDOF 7
ENDMDL
MODEL      193
REMARK 921   NORMALIZED FREE ENERGY PREDICTED BY IDOCK:   -3.04 KCAL/MOL
REMARK 922        TOTAL FREE ENERGY PREDICTED BY IDOCK:   -5.98 KCAL/MOL
REMARK 923 INTER-LIGAND FREE ENERGY PREDICTED BY IDOCK:   -6.04 KCAL/MOL
REMARK 924 INTRA-LIGAND FREE ENERGY PREDICTED BY IDOCK:    0.05 KCAL/MOL
REMARK 927      BINDING AFFINITY PREDICTED BY RF-SCORE:    0.00 PKD
ROOT
HETATM    1  C   UNL     1     -12.106  15.652  64.111  1.00  0.00    -0.002 C  
HETATM    2  C   UNL     1     -11.686  14.522  65.056  1.00  0.00    -0.392 C  
HETATM    3  C   UNL     1     -11.480  13.165  64.384  1.00  0.00    -0.407 C  
ENDROOT
BRANCH   2   4
HETATM    4  N   UNL     1     -10.600  14.874  65.981  1.00  0.00    -0.302 NA 
HETATM    5  C   UNL     1      -9.889  14.032  66.831  1.00  0.00    -0.267 A  
HETATM    6  C   UNL     1      -8.841  18.574  66.657  1.00  0.00    -0.300 A  
HETATM    7  C   UNL     1      -8.857  14.785  67.415  1.00  0.00    -0.203 A  
HETATM    8  C   UNL     1      -9.970  18.576  65.855  1.00  0.00    -0.101 A  
HETATM    9  C   UNL     1     -10.151  16.181  66.126  1.00  0.00    -0.338 A  
HETATM   10  C   UNL     1      -9.034  16.149  66.968  1.00  0.00    -0.232 A  
HETATM   11  C   UNL     1      -8.360  17.375  67.199  1.00  0.00    -0.232 A  
HETATM   12  C   UNL     1     -10.631  17.383  65.568  1.00  0.00    -0.115 A  
BRANCH   5  13
HETATM   13  C   UNL     1     -10.244  12.656  66.916  1.00  0.00    -0.242 C  
HETATM   14  C   UNL     1     -10.984  12.168  67.924  1.00  0.00    -0.272 C  
BRANCH  14  15
HETATM   15  C   UNL     1     -11.426  10.734  68.022  1.00  0.00    -0.256 C  
HETATM   16  H   UNL     1     -12.877   9.825  68.893  1.00  0.00     0.000 HD 
HETATM   17  O   UNL     1     -12.598  10.731  68.832  1.00  0.00    -0.283 OA 
BRANCH  15  18
HETATM   18  C   UNL     1     -10.330   9.844  68.626  1.00  0.00    -0.217 C  
BRANCH  18  19
HETATM   19  C   UNL     1      -9.534   9.050  67.574  1.00  0.00    -0.137 C  
HETATM   20  O   UNL     1     -10.106   9.243  66.270  1.00  0.00    -0.278 OA 
HETATM   21  H   UNL     1      -9.615   8.753  65.622  1.00  0.00     0.000 HD 
BRANCH  19  22
HETATM   22  C   UNL     1      -9.496   7.551  67.868  1.00  0.00    -0.153 C  
HETATM   23  C   UNL     1      -9.263   6.668  66.662  1.00  0.00    -0.157 C  
HETATM   24  O   UNL     1      -8.404   7.168  65.747  1.00  0.00    -0.132 OA 
HETATM   25  O   UNL     1      -9.745   5.549  66.559  1.00  0.00    -0.146 OA 
ENDBRANCH  19  22
ENDBRANCH  18  19
ENDBRANCH  15  18
ENDBRANCH  14  15
ENDBRANCH   5  13
BRANCH   7  26
HETATM   26  C   UNL     1      -7.863  14.238  68.364  1.00  0.00    -0.140 A  
HETATM   27  C   UNL     1      -6.479  14.500  70.369  1.00  0.00    -0.111 A  
HETATM   28  C   UNL     1      -6.511  12.384  69.223  1.00  0.00    -0.107 A  
HETATM   29  C   UNL     1      -6.073  13.179  70.270  1.00  0.00    -0.079 A  
HETATM   30  C   UNL     1      -7.383  15.017  69.432  1.00  0.00    -0.194 A  
HETATM   31  C   UNL     1      -7.375  12.922  68.261  1.00  0.00    -0.118 A  
HETATM   32  F   UNL     1      -5.256  12.664  71.197  1.00  0.00    -0.122 F  
ENDBRANCH   7  26
ENDBRANCH   2   4
TORSDOF 7
ENDMDL
MODEL      194
REMARK 921   NORMALIZED FREE ENERGY PREDICTED BY IDOCK:   -3.02 KCAL/MOL
REMARK 922        TOTAL FREE ENERGY PREDICTED BY IDOCK:   -5.96 KCAL/MOL
REMARK 923 INTER-LIGAND FREE ENERGY PREDICTED BY IDOCK:   -4.50 KCAL/MOL
REMARK 924 INTRA-LIGAND FREE ENERGY PREDICTED BY IDOCK:   -1.46 KCAL/MOL
REMARK 927      BINDING AFFINITY PREDICTED BY RF-SCORE:    0.00 PKD
ROOT
HETATM    1  C   UNL     1      -9.718   4.737  70.145  1.00  0.00    -0.288 C  
HETATM    2  C   UNL     1     -10.413   5.819  69.311  1.00  0.00    -0.287 C  
HETATM    3  C   UNL     1     -11.644   6.444  69.968  1.00  0.00    -0.446 C  
ENDROOT
BRANCH   2   4
HETATM    4  N   UNL     1      -9.504   6.817  68.730  1.00  0.00    -0.131 NA 
HETATM    5  C   UNL     1      -9.215   7.036  67.387  1.00  0.00    -0.126 A  
HETATM    6  C   UNL     1      -7.234   9.715  70.652  1.00  0.00    -0.114 A  
HETATM    7  C   UNL     1      -8.406   8.181  67.304  1.00  0.00    -0.121 A  
HETATM    8  C   UNL     1      -7.862   8.792  71.473  1.00  0.00    -0.147 A  
HETATM    9  C   UNL     1      -8.773   7.695  69.521  1.00  0.00    -0.136 A  
HETATM   10  C   UNL     1      -8.125   8.590  68.663  1.00  0.00    -0.121 A  
HETATM   11  C   UNL     1      -7.372   9.633  69.261  1.00  0.00    -0.079 A  
HETATM   12  C   UNL     1      -8.648   7.781  70.922  1.00  0.00    -0.128 A  
BRANCH   5  13
HETATM   13  C   UNL     1      -9.785   6.186  66.397  1.00  0.00    -0.152 C  
HETATM   14  C   UNL     1      -9.041   5.341  65.665  1.00  0.00    -0.158 C  
BRANCH  14  15
HETATM   15  C   UNL     1      -9.609   4.389  64.649  1.00  0.00    -0.122 C  
HETATM   16  H   UNL     1     -11.355   3.662  64.309  1.00  0.00     0.000 HD 
HETATM   17  O   UNL     1     -10.996   4.264  64.951  1.00  0.00    -0.253 OA 
BRANCH  15  18
HETATM   18  C   UNL     1      -8.905   3.024  64.697  1.00  0.00    -0.110 C  
BRANCH  18  19
HETATM   19  C   UNL     1      -8.707   2.485  66.126  1.00  0.00    -0.126 C  
HETATM   20  O   UNL     1      -9.782   2.921  66.974  1.00  0.00    -0.407 OA 
HETATM   21  H   UNL     1      -9.659   2.589  67.855  1.00  0.00     0.000 HD 
BRANCH  19  22
HETATM   22  C   UNL     1      -7.386   2.933  66.750  1.00  0.00    -0.070 C  
HETATM   23  C   UNL     1      -7.322   2.826  68.257  1.00  0.00    -0.049 C  
HETATM   24  O   UNL     1      -7.949   1.750  68.779  1.00  0.00    -0.049 OA 
HETATM   25  O   UNL     1      -6.678   3.603  68.948  1.00  0.00    -0.043 OA 
ENDBRANCH  19  22
ENDBRANCH  18  19
ENDBRANCH  15  18
ENDBRANCH  14  15
ENDBRANCH   5  13
BRANCH   7  26
HETATM   26  C   UNL     1      -7.906   8.757  66.037  1.00  0.00    -0.105 A  
HETATM   27  C   UNL     1      -6.072   9.124  64.454  1.00  0.00    -0.071 A  
HETATM   28  C   UNL     1      -8.286   9.880  63.893  1.00  0.00    -0.172 A  
HETATM   29  C   UNL     1      -6.950   9.721  63.564  1.00  0.00    -0.116 A  
HETATM   30  C   UNL     1      -6.553   8.629  65.673  1.00  0.00    -0.060 A  
HETATM   31  C   UNL     1      -8.751   9.428  65.134  1.00  0.00    -0.210 A  
HETATM   32  F   UNL     1      -6.505  10.142  62.374  1.00  0.00    -0.102 F  
ENDBRANCH   7  26
ENDBRANCH   2   4
TORSDOF 7
ENDMDL
MODEL      195
REMARK 921   NORMALIZED FREE ENERGY PREDICTED BY IDOCK:   -2.76 KCAL/MOL
REMARK 922        TOTAL FREE ENERGY PREDICTED BY IDOCK:   -5.60 KCAL/MOL
REMARK 923 INTER-LIGAND FREE ENERGY PREDICTED BY IDOCK:   -5.83 KCAL/MOL
REMARK 924 INTRA-LIGAND FREE ENERGY PREDICTED BY IDOCK:    0.23 KCAL/MOL
REMARK 927      BINDING AFFINITY PREDICTED BY RF-SCORE:    0.00 PKD
ROOT
HETATM    1  C   UNL     1     -11.026  13.348  64.212  1.00  0.00    -0.391 C  
HETATM    2  C   UNL     1     -10.855  12.294  65.310  1.00  0.00    -0.293 C  
HETATM    3  C   UNL     1     -11.278  10.878  64.914  1.00  0.00     0.242 C  
ENDROOT
BRANCH   2   4
HETATM    4  N   UNL     1      -9.555  12.332  65.995  1.00  0.00    -0.239 NA 
HETATM    5  C   UNL     1      -9.127  13.222  66.975  1.00  0.00    -0.232 A  
HETATM    6  C   UNL     1      -6.295   9.798  65.556  1.00  0.00    -0.079 A  
HETATM    7  C   UNL     1      -7.872  12.785  67.431  1.00  0.00    -0.172 A  
HETATM    8  C   UNL     1      -7.325   9.627  64.645  1.00  0.00    -0.123 A  
HETATM    9  C   UNL     1      -8.540  11.431  65.698  1.00  0.00     0.044 A  
HETATM   10  C   UNL     1      -7.504  11.652  66.611  1.00  0.00    -0.037 A  
HETATM   11  C   UNL     1      -6.382  10.787  66.543  1.00  0.00    -0.115 A  
HETATM   12  C   UNL     1      -8.463  10.429  64.710  1.00  0.00    -0.176 A  
BRANCH   5  13
HETATM   13  C   UNL     1      -9.976  14.294  67.372  1.00  0.00    -0.242 C  
HETATM   14  C   UNL     1      -9.732  15.033  68.466  1.00  0.00    -0.217 C  
BRANCH  14  15
HETATM   15  C   UNL     1     -10.571  16.207  68.889  1.00  0.00    -0.275 C  
HETATM   16  H   UNL     1     -12.349  16.413  69.586  1.00  0.00     0.000 HD 
HETATM   17  O   UNL     1     -11.819  15.672  69.319  1.00  0.00    -0.353 OA 
BRANCH  15  18
HETATM   18  C   UNL     1     -10.762  17.209  67.741  1.00  0.00    -0.329 C  
BRANCH  18  19
HETATM   19  C   UNL     1      -9.711  18.335  67.727  1.00  0.00    -0.297 C  
HETATM   20  O   UNL     1     -10.308  19.564  67.282  1.00  0.00    -0.386 OA 
HETATM   21  H   UNL     1      -9.660  20.259  67.274  1.00  0.00     0.000 HD 
BRANCH  19  22
HETATM   22  C   UNL     1      -8.519  18.022  66.825  1.00  0.00    -0.274 C  
HETATM   23  C   UNL     1      -7.862  19.228  66.191  1.00  0.00    -0.300 C  
HETATM   24  O   UNL     1      -7.805  20.325  66.977  1.00  0.00    -0.307 OA 
HETATM   25  O   UNL     1      -7.343  19.192  65.085  1.00  0.00    -0.348 OA 
ENDBRANCH  19  22
ENDBRANCH  18  19
ENDBRANCH  15  18
ENDBRANCH  14  15
ENDBRANCH   5  13
BRANCH   7  26
HETATM   26  C   UNL     1      -7.095  13.456  68.496  1.00  0.00    -0.108 A  
HETATM   27  C   UNL     1      -6.306  15.513  69.569  1.00  0.00    -0.155 A  
HETATM   28  C   UNL     1      -5.799  13.386  70.574  1.00  0.00    -0.159 A  
HETATM   29  C   UNL     1      -5.737  14.770  70.591  1.00  0.00    -0.155 A  
HETATM   30  C   UNL     1      -6.996  14.858  68.540  1.00  0.00    -0.107 A  
HETATM   31  C   UNL     1      -6.447  12.736  69.517  1.00  0.00    -0.077 A  
HETATM   32  F   UNL     1      -5.128  15.395  71.606  1.00  0.00    -0.166 F  
ENDBRANCH   7  26
ENDBRANCH   2   4
TORSDOF 7
ENDMDL
MODEL      196
REMARK 921   NORMALIZED FREE ENERGY PREDICTED BY IDOCK:   -2.76 KCAL/MOL
REMARK 922        TOTAL FREE ENERGY PREDICTED BY IDOCK:   -5.59 KCAL/MOL
REMARK 923 INTER-LIGAND FREE ENERGY PREDICTED BY IDOCK:   -6.06 KCAL/MOL
REMARK 924 INTRA-LIGAND FREE ENERGY PREDICTED BY IDOCK:    0.46 KCAL/MOL
REMARK 927      BINDING AFFINITY PREDICTED BY RF-SCORE:    0.00 PKD
ROOT
HETATM    1  C   UNL     1     -14.302  11.683  72.293  1.00  0.00     1.217 C  
HETATM    2  C   UNL     1     -12.918  11.523  71.656  1.00  0.00    -0.394 C  
HETATM    3  C   UNL     1     -12.813  10.403  70.620  1.00  0.00    -0.393 C  
ENDROOT
BRANCH   2   4
HETATM    4  N   UNL     1     -12.306  12.780  71.204  1.00  0.00    -0.252 NA 
HETATM    5  C   UNL     1     -11.594  13.016  70.032  1.00  0.00    -0.124 A  
HETATM    6  C   UNL     1     -12.327  16.504  73.041  1.00  0.00    -0.357 A  
HETATM    7  C   UNL     1     -11.326  14.393  69.963  1.00  0.00    -0.253 A  
HETATM    8  C   UNL     1     -12.835  15.454  73.790  1.00  0.00    -0.651 A  
HETATM    9  C   UNL     1     -12.363  13.941  71.965  1.00  0.00    -0.006 A  
HETATM   10  C   UNL     1     -11.812  14.972  71.197  1.00  0.00    -0.382 A  
HETATM   11  C   UNL     1     -11.834  16.278  71.750  1.00  0.00    -0.510 A  
HETATM   12  C   UNL     1     -12.872  14.166  73.259  1.00  0.00    -0.131 A  
BRANCH   5  13
HETATM   13  C   UNL     1     -11.332  11.938  69.139  1.00  0.00    -0.338 C  
HETATM   14  C   UNL     1     -10.088  11.487  68.907  1.00  0.00    -0.144 C  
BRANCH  14  15
HETATM   15  C   UNL     1      -9.774  10.317  68.016  1.00  0.00    -0.149 C  
HETATM   16  H   UNL     1      -9.363  10.114  66.150  1.00  0.00     0.000 HD 
HETATM   17  O   UNL     1      -9.561  10.853  66.713  1.00  0.00    -0.178 OA 
BRANCH  15  18
HETATM   18  C   UNL     1     -10.913   9.286  68.013  1.00  0.00    -0.076 C  
BRANCH  18  19
HETATM   19  C   UNL     1     -10.649   8.077  68.928  1.00  0.00    -0.140 C  
HETATM   20  O   UNL     1     -11.493   8.140  70.090  1.00  0.00    -0.453 OA 
HETATM   21  H   UNL     1     -11.329   7.394  70.654  1.00  0.00     0.000 HD 
BRANCH  19  22
HETATM   22  C   UNL     1      -9.196   7.990  69.391  1.00  0.00    -0.152 C  
HETATM   23  C   UNL     1      -8.981   7.254  70.694  1.00  0.00    -0.156 C  
HETATM   24  O   UNL     1      -9.782   6.182  70.881  1.00  0.00    -0.174 OA 
HETATM   25  O   UNL     1      -8.094   7.548  71.482  1.00  0.00    -0.097 OA 
ENDBRANCH  19  22
ENDBRANCH  18  19
ENDBRANCH  15  18
ENDBRANCH  14  15
ENDBRANCH   5  13
BRANCH   7  26
HETATM   26  C   UNL     1     -10.607  15.046  68.848  1.00  0.00    -0.242 A  
HETATM   27  C   UNL     1      -8.590  16.124  67.970  1.00  0.00    -0.171 A  
HETATM   28  C   UNL     1     -10.442  15.703  66.494  1.00  0.00    -0.303 A  
HETATM   29  C   UNL     1      -9.156  16.171  66.706  1.00  0.00    -0.230 A  
HETATM   30  C   UNL     1      -9.305  15.547  69.027  1.00  0.00    -0.235 A  
HETATM   31  C   UNL     1     -11.171  15.173  67.565  1.00  0.00    -0.331 A  
HETATM   32  F   UNL     1      -8.453  16.668  65.681  1.00  0.00    -0.253 F  
ENDBRANCH   7  26
ENDBRANCH   2   4
TORSDOF 7
ENDMDL
MODEL      197
REMARK 921   NORMALIZED FREE ENERGY PREDICTED BY IDOCK:   -2.70 KCAL/MOL
REMARK 922        TOTAL FREE ENERGY PREDICTED BY IDOCK:   -5.51 KCAL/MOL
REMARK 923 INTER-LIGAND FREE ENERGY PREDICTED BY IDOCK:   -4.19 KCAL/MOL
REMARK 924 INTRA-LIGAND FREE ENERGY PREDICTED BY IDOCK:   -1.32 KCAL/MOL
REMARK 927      BINDING AFFINITY PREDICTED BY RF-SCORE:    0.00 PKD
ROOT
HETATM    1  C   UNL     1      -6.402   6.158  65.664  1.00  0.00    -0.038 C  
HETATM    2  C   UNL     1      -7.243   7.435  65.767  1.00  0.00    -0.066 C  
HETATM    3  C   UNL     1      -8.238   7.644  64.625  1.00  0.00    -0.067 C  
ENDROOT
BRANCH   2   4
HETATM    4  N   UNL     1      -7.833   7.669  67.092  1.00  0.00    -0.115 NA 
HETATM    5  C   UNL     1      -8.698   6.845  67.805  1.00  0.00    -0.120 A  
HETATM    6  C   UNL     1      -7.293  10.888  69.659  1.00  0.00    -0.068 A  
HETATM    7  C   UNL     1      -8.883   7.415  69.076  1.00  0.00    -0.132 A  
HETATM    8  C   UNL     1      -6.746  11.022  68.394  1.00  0.00    -0.060 A  
HETATM    9  C   UNL     1      -7.587   8.832  67.812  1.00  0.00    -0.097 A  
HETATM   10  C   UNL     1      -8.180   8.679  69.070  1.00  0.00    -0.122 A  
HETATM   11  C   UNL     1      -7.990   9.724  70.009  1.00  0.00    -0.196 A  
HETATM   12  C   UNL     1      -6.874   9.995  67.460  1.00  0.00    -0.081 A  
BRANCH   5  13
HETATM   13  C   UNL     1      -9.162   5.634  67.216  1.00  0.00    -0.110 C  
HETATM   14  C   UNL     1      -8.621   4.441  67.514  1.00  0.00    -0.106 C  
BRANCH  14  15
HETATM   15  C   UNL     1      -9.116   3.135  66.958  1.00  0.00    -0.175 C  
HETATM   16  H   UNL     1      -9.667   1.462  67.725  1.00  0.00     0.000 HD 
HETATM   17  O   UNL     1      -9.354   2.287  68.077  1.00  0.00    -0.192 OA 
BRANCH  15  18
HETATM   18  C   UNL     1      -8.098   2.508  65.993  1.00  0.00    -0.084 C  
BRANCH  18  19
HETATM   19  C   UNL     1      -8.740   1.607  64.922  1.00  0.00    -0.105 C  
HETATM   20  O   UNL     1      -7.930   1.594  63.735  1.00  0.00    -0.060 OA 
HETATM   21  H   UNL     1      -8.327   1.038  63.075  1.00  0.00     0.000 HD 
BRANCH  19  22
HETATM   22  C   UNL     1     -10.150   2.052  64.541  1.00  0.00     0.241 C  
HETATM   23  C   UNL     1     -10.269   3.494  64.098  1.00  0.00    -0.219 C  
HETATM   24  O   UNL     1      -9.229   3.953  63.370  1.00  0.00    -0.114 OA 
HETATM   25  O   UNL     1     -11.267   4.169  64.306  1.00  0.00    -0.277 OA 
ENDBRANCH  19  22
ENDBRANCH  18  19
ENDBRANCH  15  18
ENDBRANCH  14  15
ENDBRANCH   5  13
BRANCH   7  26
HETATM   26  C   UNL     1      -9.720   6.820  70.140  1.00  0.00    -0.175 A  
HETATM   27  C   UNL     1     -11.861   6.678  71.323  1.00  0.00    -0.403 A  
HETATM   28  C   UNL     1     -10.089   5.157  71.901  1.00  0.00    -0.255 A  
HETATM   29  C   UNL     1     -11.386   5.611  72.069  1.00  0.00    -0.176 A  
HETATM   30  C   UNL     1     -11.038   7.263  70.352  1.00  0.00    -0.291 A  
HETATM   31  C   UNL     1      -9.254   5.778  70.964  1.00  0.00    -0.166 A  
HETATM   32  F   UNL     1     -12.190   5.011  72.956  1.00  0.00    -0.359 F  
ENDBRANCH   7  26
ENDBRANCH   2   4
TORSDOF 7
ENDMDL
MODEL      198
REMARK 921   NORMALIZED FREE ENERGY PREDICTED BY IDOCK:   -2.67 KCAL/MOL
REMARK 922        TOTAL FREE ENERGY PREDICTED BY IDOCK:   -5.47 KCAL/MOL
REMARK 923 INTER-LIGAND FREE ENERGY PREDICTED BY IDOCK:   -5.32 KCAL/MOL
REMARK 924 INTRA-LIGAND FREE ENERGY PREDICTED BY IDOCK:   -0.15 KCAL/MOL
REMARK 927      BINDING AFFINITY PREDICTED BY RF-SCORE:    0.00 PKD
ROOT
HETATM    1  C   UNL     1      -6.724  13.004  67.262  1.00  0.00    -0.020 C  
HETATM    2  C   UNL     1      -6.193  11.932  68.219  1.00  0.00    -0.050 C  
HETATM    3  C   UNL     1      -5.273  12.454  69.323  1.00  0.00    -0.068 C  
ENDROOT
BRANCH   2   4
HETATM    4  N   UNL     1      -7.213  11.000  68.717  1.00  0.00    -0.083 NA 
HETATM    5  C   UNL     1      -8.482  11.297  69.206  1.00  0.00     0.213 A  
HETATM    6  C   UNL     1      -7.076   6.856  68.952  1.00  0.00    -0.089 A  
HETATM    7  C   UNL     1      -9.150  10.082  69.431  1.00  0.00    -0.228 A  
HETATM    8  C   UNL     1      -5.892   7.485  68.604  1.00  0.00    -0.024 A  
HETATM    9  C   UNL     1      -6.994   9.629  68.774  1.00  0.00    -0.066 A  
HETATM   10  C   UNL     1      -8.196   9.028  69.161  1.00  0.00    -0.121 A  
HETATM   11  C   UNL     1      -8.227   7.611  69.213  1.00  0.00    -0.133 A  
HETATM   12  C   UNL     1      -5.837   8.873  68.498  1.00  0.00    -0.042 A  
BRANCH   5  13
HETATM   13  C   UNL     1      -8.889  12.656  69.326  1.00  0.00     0.964 C  
HETATM   14  C   UNL     1      -9.509  13.308  68.328  1.00  0.00    -0.209 C  
BRANCH  14  15
HETATM   15  C   UNL     1     -10.005  14.723  68.433  1.00  0.00    -0.223 C  
HETATM   16  H   UNL     1     -11.018  15.706  69.736  1.00  0.00     0.000 HD 
HETATM   17  O   UNL     1     -10.705  14.812  69.670  1.00  0.00    -0.240 OA 
BRANCH  15  18
HETATM   18  C   UNL     1     -10.914  15.094  67.251  1.00  0.00    -0.327 C  
BRANCH  18  19
HETATM   19  C   UNL     1     -10.723  14.187  66.022  1.00  0.00    -0.299 C  
HETATM   20  O   UNL     1      -9.499  14.518  65.346  1.00  0.00    -0.510 OA 
HETATM   21  H   UNL     1      -9.382  13.959  64.588  1.00  0.00     0.000 HD 
BRANCH  19  22
HETATM   22  C   UNL     1     -11.872  14.296  65.021  1.00  0.00    -0.396 C  
HETATM   23  C   UNL     1     -12.380  12.977  64.482  1.00  0.00    -0.398 C  
HETATM   24  O   UNL     1     -12.400  11.967  65.378  1.00  0.00    -0.352 OA 
HETATM   25  O   UNL     1     -12.823  12.852  63.350  1.00  0.00    -0.650 OA 
ENDBRANCH  19  22
ENDBRANCH  18  19
ENDBRANCH  15  18
ENDBRANCH  14  15
ENDBRANCH   5  13
BRANCH   7  26
HETATM   26  C   UNL     1     -10.538   9.976  69.929  1.00  0.00    -0.324 A  
HETATM   27  C   UNL     1     -12.241   8.777  71.221  1.00  0.00    -0.332 A  
HETATM   28  C   UNL     1     -12.782  10.908  70.243  1.00  0.00    -0.285 A  
HETATM   29  C   UNL     1     -13.139   9.811  71.010  1.00  0.00    -0.291 A  
HETATM   30  C   UNL     1     -10.944   8.871  70.700  1.00  0.00    -0.287 A  
HETATM   31  C   UNL     1     -11.500  10.972  69.682  1.00  0.00    -0.375 A  
HETATM   32  F   UNL     1     -14.360   9.752  71.556  1.00  0.00    -0.077 F  
ENDBRANCH   7  26
ENDBRANCH   2   4
TORSDOF 7
ENDMDL
MODEL      199
REMARK 921   NORMALIZED FREE ENERGY PREDICTED BY IDOCK:   -2.67 KCAL/MOL
REMARK 922        TOTAL FREE ENERGY PREDICTED BY IDOCK:   -5.46 KCAL/MOL
REMARK 923 INTER-LIGAND FREE ENERGY PREDICTED BY IDOCK:   -5.11 KCAL/MOL
REMARK 924 INTRA-LIGAND FREE ENERGY PREDICTED BY IDOCK:   -0.36 KCAL/MOL
REMARK 927      BINDING AFFINITY PREDICTED BY RF-SCORE:    0.00 PKD
ROOT
HETATM    1  C   UNL     1      -5.361   5.607  67.752  1.00  0.00    -0.004 C  
HETATM    2  C   UNL     1      -5.985   6.923  68.225  1.00  0.00    -0.028 C  
HETATM    3  C   UNL     1      -6.426   7.865  67.105  1.00  0.00    -0.056 C  
ENDROOT
BRANCH   2   4
HETATM    4  N   UNL     1      -6.998   6.773  69.279  1.00  0.00    -0.072 NA 
HETATM    5  C   UNL     1      -8.220   7.427  69.395  1.00  0.00    -0.131 A  
HETATM    6  C   UNL     1      -6.972   4.265  72.588  1.00  0.00    -0.057 A  
HETATM    7  C   UNL     1      -8.908   6.861  70.481  1.00  0.00    -0.155 A  
HETATM    8  C   UNL     1      -5.795   4.322  71.860  1.00  0.00    -0.012 A  
HETATM    9  C   UNL     1      -6.817   5.915  70.357  1.00  0.00    -0.057 A  
HETATM   10  C   UNL     1      -8.008   5.907  71.090  1.00  0.00    -0.113 A  
HETATM   11  C   UNL     1      -8.078   5.033  72.205  1.00  0.00    -0.112 A  
HETATM   12  C   UNL     1      -5.705   5.134  70.731  1.00  0.00    -0.016 A  
BRANCH   5  13
HETATM   13  C   UNL     1      -8.577   8.426  68.444  1.00  0.00    -0.139 C  
HETATM   14  C   UNL     1      -9.023   9.638  68.812  1.00  0.00    -0.134 C  
BRANCH  14  15
HETATM   15  C   UNL     1      -9.357  10.738  67.843  1.00  0.00    -0.150 C  
HETATM   16  H   UNL     1     -10.980  11.396  67.055  1.00  0.00     0.000 HD 
HETATM   17  O   UNL     1     -10.770  10.701  67.668  1.00  0.00    -0.226 OA 
BRANCH  15  18
HETATM   18  C   UNL     1      -8.626  10.553  66.504  1.00  0.00    -0.140 C  
BRANCH  18  19
HETATM   19  C   UNL     1      -9.576  10.394  65.303  1.00  0.00    -0.259 C  
HETATM   20  O   UNL     1     -10.031   9.034  65.207  1.00  0.00    -0.353 OA 
HETATM   21  H   UNL     1     -10.616   8.936  64.466  1.00  0.00     0.000 HD 
BRANCH  19  22
HETATM   22  C   UNL     1      -8.923  10.779  63.976  1.00  0.00    -0.167 C  
HETATM   23  C   UNL     1      -7.686   9.986  63.618  1.00  0.00    -0.143 C  
HETATM   24  O   UNL     1      -7.726   8.681  63.961  1.00  0.00    -0.119 OA 
HETATM   25  O   UNL     1      -6.754  10.465  62.987  1.00  0.00    -0.138 OA 
ENDBRANCH  19  22
ENDBRANCH  18  19
ENDBRANCH  15  18
ENDBRANCH  14  15
ENDBRANCH   5  13
BRANCH   7  26
HETATM   26  C   UNL     1     -10.263   7.270  70.913  1.00  0.00    -0.203 A  
HETATM   27  C   UNL     1     -12.686   6.912  70.911  1.00  0.00    -0.196 A  
HETATM   28  C   UNL     1     -11.752   8.665  72.268  1.00  0.00    -0.428 A  
HETATM   29  C   UNL     1     -12.846   7.940  71.826  1.00  0.00    -0.328 A  
HETATM   30  C   UNL     1     -11.400   6.569  70.474  1.00  0.00    -0.426 A  
HETATM   31  C   UNL     1     -10.474   8.350  71.790  1.00  0.00    -0.353 A  
HETATM   32  F   UNL     1     -14.067   8.231  72.291  1.00  0.00    -0.391 F  
ENDBRANCH   7  26
ENDBRANCH   2   4
TORSDOF 7
ENDMDL
MODEL      200
REMARK 921   NORMALIZED FREE ENERGY PREDICTED BY IDOCK:   -2.58 KCAL/MOL
REMARK 922        TOTAL FREE ENERGY PREDICTED BY IDOCK:   -5.34 KCAL/MOL
REMARK 923 INTER-LIGAND FREE ENERGY PREDICTED BY IDOCK:   -3.73 KCAL/MOL
REMARK 924 INTRA-LIGAND FREE ENERGY PREDICTED BY IDOCK:   -1.61 KCAL/MOL
REMARK 927      BINDING AFFINITY PREDICTED BY RF-SCORE:    0.00 PKD
ROOT
HETATM    1  C   UNL     1      -5.320   5.803  68.220  1.00  0.00    -0.004 C  
HETATM    2  C   UNL     1      -5.778   7.068  68.953  1.00  0.00    -0.018 C  
HETATM    3  C   UNL     1      -6.391   8.145  68.056  1.00  0.00    -0.055 C  
ENDROOT
BRANCH   2   4
HETATM    4  N   UNL     1      -6.568   6.816  70.166  1.00  0.00    -0.043 NA 
HETATM    5  C   UNL     1      -7.604   5.904  70.343  1.00  0.00    -0.091 A  
HETATM    6  C   UNL     1      -6.229   8.571  73.914  1.00  0.00    -0.137 A  
HETATM    7  C   UNL     1      -7.959   5.917  71.702  1.00  0.00    -0.113 A  
HETATM    8  C   UNL     1      -5.464   9.137  72.907  1.00  0.00    -0.073 A  
HETATM    9  C   UNL     1      -6.360   7.528  71.341  1.00  0.00    -0.035 A  
HETATM   10  C   UNL     1      -7.170   6.956  72.327  1.00  0.00    -0.078 A  
HETATM   11  C   UNL     1      -7.064   7.480  73.640  1.00  0.00    -0.101 A  
HETATM   12  C   UNL     1      -5.509   8.618  71.615  1.00  0.00    -0.041 A  
BRANCH   5  13
HETATM   13  C   UNL     1      -8.051   5.125  69.238  1.00  0.00    -0.084 C  
HETATM   14  C   UNL     1      -9.123   5.471  68.506  1.00  0.00    -0.122 C  
BRANCH  14  15
HETATM   15  C   UNL     1      -9.595   4.707  67.300  1.00  0.00    -0.175 C  
HETATM   16  H   UNL     1      -9.942   2.856  66.925  1.00  0.00     0.000 HD 
HETATM   17  O   UNL     1      -9.643   3.337  67.687  1.00  0.00    -0.206 OA 
BRANCH  15  18
HETATM   18  C   UNL     1      -8.660   4.913  66.099  1.00  0.00    -0.116 C  
BRANCH  18  19
HETATM   19  C   UNL     1      -9.240   4.387  64.772  1.00  0.00    -0.157 C  
HETATM   20  O   UNL     1     -10.190   3.339  65.027  1.00  0.00    -0.386 OA 
HETATM   21  H   UNL     1     -10.546   3.015  64.209  1.00  0.00     0.000 HD 
BRANCH  19  22
HETATM   22  C   UNL     1      -8.166   3.846  63.830  1.00  0.00    -0.091 C  
HETATM   23  C   UNL     1      -7.359   2.689  64.374  1.00  0.00    -0.062 C  
HETATM   24  O   UNL     1      -8.058   1.811  65.125  1.00  0.00    -0.072 OA 
HETATM   25  O   UNL     1      -6.184   2.509  64.088  1.00  0.00    -0.017 OA 
ENDBRANCH  19  22
ENDBRANCH  18  19
ENDBRANCH  15  18
ENDBRANCH  14  15
ENDBRANCH   5  13
BRANCH   7  26
HETATM   26  C   UNL     1      -9.010   5.062  72.295  1.00  0.00    -0.142 A  
HETATM   27  C   UNL     1     -11.229   4.824  73.305  1.00  0.00    -0.421 A  
HETATM   28  C   UNL     1      -9.923   2.856  72.847  1.00  0.00    -0.204 A  
HETATM   29  C   UNL     1     -11.089   3.445  73.305  1.00  0.00    -0.131 A  
HETATM   30  C   UNL     1     -10.203   5.623  72.785  1.00  0.00    -0.213 A  
HETATM   31  C   UNL     1      -8.880   3.663  72.374  1.00  0.00    -0.117 A  
HETATM   32  F   UNL     1     -12.092   2.676  73.747  1.00  0.00    -0.225 F  
ENDBRANCH   7  26
ENDBRANCH   2   4
TORSDOF 7
ENDMDL
MODEL      201
REMARK 921   NORMALIZED FREE ENERGY PREDICTED BY IDOCK:   -2.57 KCAL/MOL
REMARK 922        TOTAL FREE ENERGY PREDICTED BY IDOCK:   -5.32 KCAL/MOL
REMARK 923 INTER-LIGAND FREE ENERGY PREDICTED BY IDOCK:   -4.35 KCAL/MOL
REMARK 924 INTRA-LIGAND FREE ENERGY PREDICTED BY IDOCK:   -0.97 KCAL/MOL
REMARK 927      BINDING AFFINITY PREDICTED BY RF-SCORE:    0.00 PKD
ROOT
HETATM    1  C   UNL     1     -10.101   3.753  72.065  1.00  0.00    -0.209 C  
HETATM    2  C   UNL     1     -10.652   5.143  71.728  1.00  0.00    -0.168 C  
HETATM    3  C   UNL     1     -11.609   5.724  72.770  1.00  0.00    -0.266 C  
ENDROOT
BRANCH   2   4
HETATM    4  N   UNL     1      -9.639   6.108  71.280  1.00  0.00    -0.170 NA 
HETATM    5  C   UNL     1      -9.331   6.487  69.977  1.00  0.00    -0.157 A  
HETATM    6  C   UNL     1      -7.051   8.425  73.554  1.00  0.00    -0.124 A  
HETATM    7  C   UNL     1      -8.399   7.535  70.044  1.00  0.00    -0.136 A  
HETATM    8  C   UNL     1      -7.776   7.469  74.246  1.00  0.00    -0.178 A  
HETATM    9  C   UNL     1      -8.811   6.775  72.174  1.00  0.00    -0.133 A  
HETATM   10  C   UNL     1      -8.069   7.708  71.442  1.00  0.00    -0.096 A  
HETATM   11  C   UNL     1      -7.202   8.563  72.169  1.00  0.00    -0.102 A  
HETATM   12  C   UNL     1      -8.672   6.642  73.570  1.00  0.00    -0.138 A  
BRANCH   5  13
HETATM   13  C   UNL     1      -9.997   5.859  68.886  1.00  0.00    -0.201 C  
HETATM   14  C   UNL     1      -9.350   5.072  68.010  1.00  0.00    -0.152 C  
BRANCH  14  15
HETATM   15  C   UNL     1     -10.024   4.347  66.878  1.00  0.00    -0.177 C  
HETATM   16  H   UNL     1     -10.034   2.530  66.255  1.00  0.00     0.000 HD 
HETATM   17  O   UNL     1      -9.608   2.988  66.970  1.00  0.00    -0.118 OA 
BRANCH  15  18
HETATM   18  C   UNL     1      -9.651   4.951  65.517  1.00  0.00    -0.145 C  
BRANCH  18  19
HETATM   19  C   UNL     1      -9.890   3.995  64.334  1.00  0.00    -0.180 C  
HETATM   20  O   UNL     1     -11.253   3.540  64.331  1.00  0.00    -0.635 OA 
HETATM   21  H   UNL     1     -11.400   2.950  63.602  1.00  0.00     0.000 HD 
BRANCH  19  22
HETATM   22  C   UNL     1      -8.973   2.774  64.364  1.00  0.00    -0.116 C  
HETATM   23  C   UNL     1      -7.918   2.737  63.281  1.00  0.00    -0.069 C  
HETATM   24  O   UNL     1      -7.383   3.936  62.966  1.00  0.00    -0.048 OA 
HETATM   25  O   UNL     1      -7.515   1.694  62.787  1.00  0.00    -0.041 OA 
ENDBRANCH  19  22
ENDBRANCH  18  19
ENDBRANCH  15  18
ENDBRANCH  14  15
ENDBRANCH   5  13
BRANCH   7  26
HETATM   26  C   UNL     1      -7.841   8.230  68.863  1.00  0.00    -0.111 A  
HETATM   27  C   UNL     1      -7.710  10.221  67.442  1.00  0.00    -0.095 A  
HETATM   28  C   UNL     1      -6.268   8.349  66.989  1.00  0.00    -0.056 A  
HETATM   29  C   UNL     1      -6.698   9.634  66.700  1.00  0.00    -0.079 A  
HETATM   30  C   UNL     1      -8.262   9.529  68.528  1.00  0.00    -0.113 A  
HETATM   31  C   UNL     1      -6.859   7.643  68.044  1.00  0.00    -0.067 A  
HETATM   32  F   UNL     1      -6.128  10.315  65.699  1.00  0.00    -0.072 F  
ENDBRANCH   7  26
ENDBRANCH   2   4
TORSDOF 7
ENDMDL
MODEL      202
REMARK 921   NORMALIZED FREE ENERGY PREDICTED BY IDOCK:   -2.36 KCAL/MOL
REMARK 922        TOTAL FREE ENERGY PREDICTED BY IDOCK:   -5.03 KCAL/MOL
REMARK 923 INTER-LIGAND FREE ENERGY PREDICTED BY IDOCK:   -4.69 KCAL/MOL
REMARK 924 INTRA-LIGAND FREE ENERGY PREDICTED BY IDOCK:   -0.34 KCAL/MOL
REMARK 927      BINDING AFFINITY PREDICTED BY RF-SCORE:    0.00 PKD
ROOT
HETATM    1  C   UNL     1     -14.315  12.601  71.482  1.00  0.00     1.946 C  
HETATM    2  C   UNL     1     -12.799  12.514  71.278  1.00  0.00    -0.241 C  
HETATM    3  C   UNL     1     -12.342  11.422  70.310  1.00  0.00    -0.379 C  
ENDROOT
BRANCH   2   4
HETATM    4  N   UNL     1     -12.141  13.805  71.036  1.00  0.00    -0.310 NA 
HETATM    5  C   UNL     1     -11.434  14.211  69.909  1.00  0.00    -0.226 A  
HETATM    6  C   UNL     1     -11.987  17.157  73.483  1.00  0.00     0.217 A  
HETATM    7  C   UNL     1     -11.111  15.569  70.071  1.00  0.00    -0.326 A  
HETATM    8  C   UNL     1     -12.529  16.015  74.050  1.00  0.00    -0.742 A  
HETATM    9  C   UNL     1     -12.141  14.820  71.985  1.00  0.00    -0.325 A  
HETATM   10  C   UNL     1     -11.558  15.946  71.394  1.00  0.00    -0.529 A  
HETATM   11  C   UNL     1     -11.519  17.137  72.163  1.00  0.00     0.937 A  
HETATM   12  C   UNL     1     -12.625  14.839  73.309  1.00  0.00    -0.554 A  
BRANCH   5  13
HETATM   13  C   UNL     1     -11.228  13.293  68.840  1.00  0.00    -0.322 C  
HETATM   14  C   UNL     1     -10.062  13.218  68.177  1.00  0.00    -0.241 C  
BRANCH  14  15
HETATM   15  C   UNL     1      -9.785  12.227  67.080  1.00  0.00    -0.201 C  
HETATM   16  H   UNL     1      -9.623  12.337  65.170  1.00  0.00     0.000 HD 
HETATM   17  O   UNL     1      -9.798  12.964  65.862  1.00  0.00    -0.268 OA 
BRANCH  15  18
HETATM   18  C   UNL     1     -10.828  11.099  67.060  1.00  0.00    -0.338 C  
BRANCH  18  19
HETATM   19  C   UNL     1     -10.248   9.733  66.652  1.00  0.00    -0.226 C  
HETATM   20  O   UNL     1     -11.070   8.672  67.167  1.00  0.00    -0.336 OA 
HETATM   21  H   UNL     1     -10.711   7.829  66.915  1.00  0.00     0.000 HD 
BRANCH  19  22
HETATM   22  C   UNL     1      -8.819   9.523  67.152  1.00  0.00    -0.141 C  
HETATM   23  C   UNL     1      -8.411   8.078  67.335  1.00  0.00    -0.123 C  
HETATM   24  O   UNL     1      -8.901   7.226  66.409  1.00  0.00    -0.138 OA 
HETATM   25  O   UNL     1      -7.626   7.718  68.200  1.00  0.00    -0.110 OA 
ENDBRANCH  19  22
ENDBRANCH  18  19
ENDBRANCH  15  18
ENDBRANCH  14  15
ENDBRANCH   5  13
BRANCH   7  26
HETATM   26  C   UNL     1     -10.379  16.375  69.070  1.00  0.00    -0.278 A  
HETATM   27  C   UNL     1     -10.367  18.130  67.361  1.00  0.00    -0.402 A  
HETATM   28  C   UNL     1      -8.294  17.090  68.002  1.00  0.00    -0.211 A  
HETATM   29  C   UNL     1      -8.990  18.024  67.252  1.00  0.00    -0.251 A  
HETATM   30  C   UNL     1     -11.051  17.323  68.279  1.00  0.00    -0.064 A  
HETATM   31  C   UNL     1      -8.990  16.252  68.882  1.00  0.00    -0.248 A  
HETATM   32  F   UNL     1      -8.325  18.834  66.418  1.00  0.00    -0.263 F  
ENDBRANCH   7  26
ENDBRANCH   2   4
TORSDOF 7
ENDMDL
MODEL      203
REMARK 921   NORMALIZED FREE ENERGY PREDICTED BY IDOCK:   -2.22 KCAL/MOL
REMARK 922        TOTAL FREE ENERGY PREDICTED BY IDOCK:   -4.83 KCAL/MOL
REMARK 923 INTER-LIGAND FREE ENERGY PREDICTED BY IDOCK:   -4.26 KCAL/MOL
REMARK 924 INTRA-LIGAND FREE ENERGY PREDICTED BY IDOCK:   -0.57 KCAL/MOL
REMARK 927      BINDING AFFINITY PREDICTED BY RF-SCORE:    0.00 PKD
ROOT
HETATM    1  C   UNL     1      -8.961   5.222  66.209  1.00  0.00    -0.133 C  
HETATM    2  C   UNL     1      -9.672   6.567  66.030  1.00  0.00     0.173 C  
HETATM    3  C   UNL     1     -10.992   6.704  66.791  1.00  0.00    -0.286 C  
ENDROOT
BRANCH   2   4
HETATM    4  N   UNL     1      -8.801   7.741  66.180  1.00  0.00    -0.157 NA 
HETATM    5  C   UNL     1      -8.662   8.572  67.288  1.00  0.00    -0.130 A  
HETATM    6  C   UNL     1      -6.106   9.359  63.466  1.00  0.00    -0.092 A  
HETATM    7  C   UNL     1      -7.616   9.471  67.021  1.00  0.00    -0.091 A  
HETATM    8  C   UNL     1      -6.925   8.351  62.983  1.00  0.00    -0.090 A  
HETATM    9  C   UNL     1      -7.982   8.187  65.150  1.00  0.00    -0.126 A  
HETATM   10  C   UNL     1      -7.194   9.224  65.660  1.00  0.00    -0.090 A  
HETATM   11  C   UNL     1      -6.221   9.786  64.795  1.00  0.00    -0.095 A  
HETATM   12  C   UNL     1      -7.862   7.744  63.818  1.00  0.00    -0.132 A  
BRANCH   5  13
HETATM   13  C   UNL     1      -9.478   8.356  68.436  1.00  0.00    -0.145 C  
HETATM   14  C   UNL     1      -9.917   9.368  69.201  1.00  0.00    -0.184 C  
BRANCH  14  15
HETATM   15  C   UNL     1     -10.824   9.189  70.387  1.00  0.00    -0.242 C  
HETATM   16  H   UNL     1     -11.865  10.375  71.482  1.00  0.00     0.000 HD 
HETATM   17  O   UNL     1     -11.292  10.489  70.733  1.00  0.00    -0.327 OA 
BRANCH  15  18
HETATM   18  C   UNL     1     -10.091   8.531  71.566  1.00  0.00    -0.315 C  
BRANCH  18  19
HETATM   19  C   UNL     1      -8.670   8.052  71.215  1.00  0.00    -0.138 C  
HETATM   20  O   UNL     1      -8.615   6.616  71.219  1.00  0.00    -0.125 OA 
HETATM   21  H   UNL     1      -7.739   6.321  71.003  1.00  0.00     0.000 HD 
BRANCH  19  22
HETATM   22  C   UNL     1      -7.612   8.578  72.183  1.00  0.00    -0.122 C  
HETATM   23  C   UNL     1      -7.816   8.187  73.630  1.00  0.00    -0.185 C  
HETATM   24  O   UNL     1      -8.301   6.941  73.820  1.00  0.00    -0.120 OA 
HETATM   25  O   UNL     1      -7.488   8.907  74.562  1.00  0.00    -0.419 OA 
ENDBRANCH  19  22
ENDBRANCH  18  19
ENDBRANCH  15  18
ENDBRANCH  14  15
ENDBRANCH   5  13
BRANCH   7  26
HETATM   26  C   UNL     1      -7.144  10.503  67.970  1.00  0.00    -0.086 A  
HETATM   27  C   UNL     1      -7.064  12.844  68.688  1.00  0.00    -0.103 A  
HETATM   28  C   UNL     1      -6.033  11.153  70.054  1.00  0.00    -0.125 A  
HETATM   29  C   UNL     1      -6.377  12.476  69.834  1.00  0.00    -0.039 A  
HETATM   30  C   UNL     1      -7.460  11.859  67.774  1.00  0.00    -0.121 A  
HETATM   31  C   UNL     1      -6.388  10.180  69.112  1.00  0.00    -0.044 A  
HETATM   32  F   UNL     1      -6.048  13.407  70.738  1.00  0.00    -0.175 F  
ENDBRANCH   7  26
ENDBRANCH   2   4
TORSDOF 7
ENDMDL
MODEL      204
REMARK 921   NORMALIZED FREE ENERGY PREDICTED BY IDOCK:   -2.06 KCAL/MOL
REMARK 922        TOTAL FREE ENERGY PREDICTED BY IDOCK:   -4.61 KCAL/MOL
REMARK 923 INTER-LIGAND FREE ENERGY PREDICTED BY IDOCK:   -4.43 KCAL/MOL
REMARK 924 INTRA-LIGAND FREE ENERGY PREDICTED BY IDOCK:   -0.18 KCAL/MOL
REMARK 927      BINDING AFFINITY PREDICTED BY RF-SCORE:    0.00 PKD
ROOT
HETATM    1  C   UNL     1      -8.914  10.174  68.338  1.00  0.00    -0.123 C  
HETATM    2  C   UNL     1      -7.577  10.916  68.427  1.00  0.00    -0.104 C  
HETATM    3  C   UNL     1      -6.523  10.466  67.415  1.00  0.00    -0.066 C  
ENDROOT
BRANCH   2   4
HETATM    4  N   UNL     1      -7.696  12.378  68.517  1.00  0.00    -0.134 NA 
HETATM    5  C   UNL     1      -8.466  13.227  67.729  1.00  0.00    -0.181 A  
HETATM    6  C   UNL     1      -5.899  14.984  71.205  1.00  0.00     0.105 A  
HETATM    7  C   UNL     1      -8.372  14.519  68.273  1.00  0.00    -0.152 A  
HETATM    8  C   UNL     1      -5.460  13.671  71.246  1.00  0.00    -0.210 A  
HETATM    9  C   UNL     1      -6.985  13.118  69.454  1.00  0.00     0.097 A  
HETATM   10  C   UNL     1      -7.425  14.442  69.363  1.00  0.00    -0.022 A  
HETATM   11  C   UNL     1      -6.883  15.372  70.288  1.00  0.00     0.138 A  
HETATM   12  C   UNL     1      -6.003  12.720  70.384  1.00  0.00    -0.104 A  
BRANCH   5  13
HETATM   13  C   UNL     1      -9.212  12.693  66.640  1.00  0.00    -0.218 C  
HETATM   14  C   UNL     1      -8.620  12.107  65.586  1.00  0.00     0.602 C  
BRANCH  14  15
HETATM   15  C   UNL     1      -9.371  11.482  64.444  1.00  0.00    -0.005 C  
HETATM   16  H   UNL     1      -9.724  11.985  62.624  1.00  0.00     0.000 HD 
HETATM   17  O   UNL     1      -9.249  12.381  63.346  1.00  0.00     0.128 OA 
BRANCH  15  18
HETATM   18  C   UNL     1     -10.845  11.238  64.802  1.00  0.00    -0.314 C  
BRANCH  18  19
HETATM   19  C   UNL     1     -11.824  11.643  63.684  1.00  0.00    -0.285 C  
HETATM   20  O   UNL     1     -11.147  12.441  62.698  1.00  0.00    -0.272 OA 
HETATM   21  H   UNL     1     -11.751  12.691  62.009  1.00  0.00     0.000 HD 
BRANCH  19  22
HETATM   22  C   UNL     1     -13.023  12.433  64.205  1.00  0.00    -0.267 C  
HETATM   23  C   UNL     1     -12.678  13.658  65.021  1.00  0.00    -0.336 C  
HETATM   24  O   UNL     1     -11.594  14.340  64.594  1.00  0.00    -0.378 OA 
HETATM   25  O   UNL     1     -13.374  14.054  65.945  1.00  0.00    -0.400 OA 
ENDBRANCH  19  22
ENDBRANCH  18  19
ENDBRANCH  15  18
ENDBRANCH  14  15
ENDBRANCH   5  13
BRANCH   7  26
HETATM   26  C   UNL     1      -9.074  15.703  67.730  1.00  0.00    -0.181 A  
HETATM   27  C   UNL     1     -10.972  17.251  67.785  1.00  0.00    -0.163 A  
HETATM   28  C   UNL     1      -9.155  17.662  66.262  1.00  0.00    -0.212 A  
HETATM   29  C   UNL     1     -10.371  18.033  66.812  1.00  0.00    -0.367 A  
HETATM   30  C   UNL     1     -10.316  16.105  68.253  1.00  0.00    -0.266 A  
HETATM   31  C   UNL     1      -8.529  16.488  66.698  1.00  0.00    -0.299 A  
HETATM   32  F   UNL     1     -10.967  19.161  66.405  1.00  0.00    -0.443 F  
ENDBRANCH   7  26
ENDBRANCH   2   4
TORSDOF 7
ENDMDL
MODEL      205
REMARK 921   NORMALIZED FREE ENERGY PREDICTED BY IDOCK:   -1.97 KCAL/MOL
REMARK 922        TOTAL FREE ENERGY PREDICTED BY IDOCK:   -4.48 KCAL/MOL
REMARK 923 INTER-LIGAND FREE ENERGY PREDICTED BY IDOCK:   -4.23 KCAL/MOL
REMARK 924 INTRA-LIGAND FREE ENERGY PREDICTED BY IDOCK:   -0.25 KCAL/MOL
REMARK 927      BINDING AFFINITY PREDICTED BY RF-SCORE:    0.00 PKD
ROOT
HETATM    1  C   UNL     1      -5.380   5.620  67.763  1.00  0.00    -0.004 C  
HETATM    2  C   UNL     1      -6.014   6.917  68.276  1.00  0.00    -0.028 C  
HETATM    3  C   UNL     1      -6.443   7.899  67.185  1.00  0.00    -0.056 C  
ENDROOT
BRANCH   2   4
HETATM    4  N   UNL     1      -7.040   6.727  69.310  1.00  0.00    -0.084 NA 
HETATM    5  C   UNL     1      -8.255   7.390  69.448  1.00  0.00    -0.131 A  
HETATM    6  C   UNL     1      -7.082   4.051  72.486  1.00  0.00    -0.056 A  
HETATM    7  C   UNL     1      -8.962   6.778  70.496  1.00  0.00    -0.152 A  
HETATM    8  C   UNL     1      -5.896   4.130  71.773  1.00  0.00    -0.009 A  
HETATM    9  C   UNL     1      -6.881   5.812  70.344  1.00  0.00    -0.049 A  
HETATM   10  C   UNL     1      -8.081   5.781  71.064  1.00  0.00    -0.120 A  
HETATM   11  C   UNL     1      -8.174   4.853  72.131  1.00  0.00    -0.115 A  
HETATM   12  C   UNL     1      -5.784   4.998  70.689  1.00  0.00    -0.016 A  
BRANCH   5  13
HETATM   13  C   UNL     1      -8.589   8.441  68.546  1.00  0.00    -0.136 C  
HETATM   14  C   UNL     1      -9.778   8.499  67.924  1.00  0.00    -0.193 C  
BRANCH  14  15
HETATM   15  C   UNL     1     -10.190   9.619  67.009  1.00  0.00    -0.244 C  
HETATM   16  H   UNL     1     -10.129   9.902  65.110  1.00  0.00     0.000 HD 
HETATM   17  O   UNL     1      -9.868   9.195  65.688  1.00  0.00    -0.264 OA 
BRANCH  15  18
HETATM   18  C   UNL     1      -9.473  10.931  67.361  1.00  0.00    -0.170 C  
BRANCH  18  19
HETATM   19  C   UNL     1      -8.648  11.511  66.198  1.00  0.00    -0.094 C  
HETATM   20  O   UNL     1      -7.362  10.872  66.136  1.00  0.00    -0.158 OA 
HETATM   21  H   UNL     1      -6.853  11.230  65.418  1.00  0.00     0.000 HD 
BRANCH  19  22
HETATM   22  C   UNL     1      -8.432  13.019  66.319  1.00  0.00     0.547 C  
HETATM   23  C   UNL     1      -7.732  13.466  67.583  1.00  0.00    -0.177 C  
HETATM   24  O   UNL     1      -6.756  12.639  68.017  1.00  0.00    -0.073 OA 
HETATM   25  O   UNL     1      -7.966  14.537  68.124  1.00  0.00    -0.117 OA 
ENDBRANCH  19  22
ENDBRANCH  18  19
ENDBRANCH  15  18
ENDBRANCH  14  15
ENDBRANCH   5  13
BRANCH   7  26
HETATM   26  C   UNL     1     -10.316   7.182  70.934  1.00  0.00    -0.214 A  
HETATM   27  C   UNL     1     -12.743   6.856  70.890  1.00  0.00    -0.196 A  
HETATM   28  C   UNL     1     -11.801   8.525  72.345  1.00  0.00    -0.437 A  
HETATM   29  C   UNL     1     -12.900   7.838  71.855  1.00  0.00    -0.292 A  
HETATM   30  C   UNL     1     -11.457   6.519  70.449  1.00  0.00    -0.465 A  
HETATM   31  C   UNL     1     -10.523   8.219  71.863  1.00  0.00    -0.342 A  
HETATM   32  F   UNL     1     -14.122   8.122  72.322  1.00  0.00    -0.382 F  
ENDBRANCH   7  26
ENDBRANCH   2   4
TORSDOF 7
ENDMDL
MODEL      206
REMARK 921   NORMALIZED FREE ENERGY PREDICTED BY IDOCK:   -1.90 KCAL/MOL
REMARK 922        TOTAL FREE ENERGY PREDICTED BY IDOCK:   -4.38 KCAL/MOL
REMARK 923 INTER-LIGAND FREE ENERGY PREDICTED BY IDOCK:   -4.05 KCAL/MOL
REMARK 924 INTRA-LIGAND FREE ENERGY PREDICTED BY IDOCK:   -0.34 KCAL/MOL
REMARK 927      BINDING AFFINITY PREDICTED BY RF-SCORE:    0.00 PKD
ROOT
HETATM    1  C   UNL     1      -7.476  11.060  69.375  1.00  0.00    -0.074 C  
HETATM    2  C   UNL     1      -8.034   9.827  70.093  1.00  0.00    -0.186 C  
HETATM    3  C   UNL     1      -9.428  10.010  70.696  1.00  0.00     0.316 C  
ENDROOT
BRANCH   2   4
HETATM    4  N   UNL     1      -7.894   8.570  69.345  1.00  0.00    -0.096 NA 
HETATM    5  C   UNL     1      -8.435   8.244  68.105  1.00  0.00    -0.132 A  
HETATM    6  C   UNL     1      -5.750   5.158  70.346  1.00  0.00    -0.016 A  
HETATM    7  C   UNL     1      -7.917   6.994  67.727  1.00  0.00    -0.114 A  
HETATM    8  C   UNL     1      -5.847   6.126  71.333  1.00  0.00    -0.027 A  
HETATM    9  C   UNL     1      -7.172   7.493  69.843  1.00  0.00    -0.080 A  
HETATM   10  C   UNL     1      -7.122   6.521  68.839  1.00  0.00    -0.082 A  
HETATM   11  C   UNL     1      -6.364   5.352  69.103  1.00  0.00    -0.034 A  
HETATM   12  C   UNL     1      -6.545   7.308  71.092  1.00  0.00    -0.044 A  
BRANCH   5  13
HETATM   13  C   UNL     1      -9.291   9.171  67.445  1.00  0.00    -0.161 C  
HETATM   14  C   UNL     1      -8.861   9.956  66.443  1.00  0.00    -0.159 C  
BRANCH  14  15
HETATM   15  C   UNL     1      -9.745  10.906  65.685  1.00  0.00    -0.232 C  
HETATM   16  H   UNL     1      -9.481  12.115  64.216  1.00  0.00     0.000 HD 
HETATM   17  O   UNL     1      -8.922  11.515  64.695  1.00  0.00     0.049 OA 
BRANCH  15  18
HETATM   18  C   UNL     1     -10.371  11.959  66.612  1.00  0.00    -0.242 C  
BRANCH  18  19
HETATM   19  C   UNL     1     -11.779  12.403  66.176  1.00  0.00    -0.400 C  
HETATM   20  O   UNL     1     -11.888  12.370  64.743  1.00  0.00    -0.356 OA 
HETATM   21  H   UNL     1     -12.757  12.644  64.475  1.00  0.00     0.000 HD 
BRANCH  19  22
HETATM   22  C   UNL     1     -12.133  13.809  66.656  1.00  0.00    -0.471 C  
HETATM   23  C   UNL     1     -11.280  14.332  67.790  1.00  0.00    -0.291 C  
HETATM   24  O   UNL     1      -9.978  13.979  67.734  1.00  0.00    -0.228 OA 
HETATM   25  O   UNL     1     -11.713  15.089  68.647  1.00  0.00    -0.329 OA 
ENDBRANCH  19  22
ENDBRANCH  18  19
ENDBRANCH  15  18
ENDBRANCH  14  15
ENDBRANCH   5  13
BRANCH   7  26
HETATM   26  C   UNL     1      -8.235   6.313  66.453  1.00  0.00    -0.114 A  
HETATM   27  C   UNL     1      -9.593   4.716  65.185  1.00  0.00    -0.139 A  
HETATM   28  C   UNL     1      -7.948   6.044  64.035  1.00  0.00    -0.117 A  
HETATM   29  C   UNL     1      -8.959   5.097  64.013  1.00  0.00     0.084 A  
HETATM   30  C   UNL     1      -9.245   5.336  66.391  1.00  0.00    -0.145 A  
HETATM   31  C   UNL     1      -7.570   6.624  65.252  1.00  0.00    -0.088 A  
HETATM   32  F   UNL     1      -9.330   4.549  62.849  1.00  0.00    -0.138 F  
ENDBRANCH   7  26
ENDBRANCH   2   4
TORSDOF 7
ENDMDL
MODEL      207
REMARK 921   NORMALIZED FREE ENERGY PREDICTED BY IDOCK:   -1.89 KCAL/MOL
REMARK 922        TOTAL FREE ENERGY PREDICTED BY IDOCK:   -4.37 KCAL/MOL
REMARK 923 INTER-LIGAND FREE ENERGY PREDICTED BY IDOCK:   -5.22 KCAL/MOL
REMARK 924 INTRA-LIGAND FREE ENERGY PREDICTED BY IDOCK:    0.85 KCAL/MOL
REMARK 927      BINDING AFFINITY PREDICTED BY RF-SCORE:    0.00 PKD
ROOT
HETATM    1  C   UNL     1     -10.146  15.813  65.924  1.00  0.00    -0.381 C  
HETATM    2  C   UNL     1      -9.585  16.935  66.804  1.00  0.00    -0.262 C  
HETATM    3  C   UNL     1     -10.636  17.880  67.388  1.00  0.00    -0.370 C  
ENDROOT
BRANCH   2   4
HETATM    4  N   UNL     1      -8.597  16.494  67.797  1.00  0.00    -0.176 NA 
HETATM    5  C   UNL     1      -8.351  15.202  68.250  1.00  0.00    -0.149 A  
HETATM    6  C   UNL     1      -5.810  18.753  69.889  1.00  0.00    -0.255 A  
HETATM    7  C   UNL     1      -7.225  15.248  69.089  1.00  0.00    -0.169 A  
HETATM    8  C   UNL     1      -6.736  19.467  69.147  1.00  0.00    -0.368 A  
HETATM    9  C   UNL     1      -7.759  17.390  68.449  1.00  0.00    -0.258 A  
HETATM   10  C   UNL     1      -6.860  16.641  69.216  1.00  0.00    -0.232 A  
HETATM   11  C   UNL     1      -5.852  17.353  69.916  1.00  0.00    -0.249 A  
HETATM   12  C   UNL     1      -7.712  18.798  68.409  1.00  0.00    -0.344 A  
BRANCH   5  13
HETATM   13  C   UNL     1      -9.160  14.127  67.782  1.00  0.00    -0.190 C  
HETATM   14  C   UNL     1      -8.635  13.036  67.200  1.00  0.00    -0.195 C  
BRANCH  14  15
HETATM   15  C   UNL     1      -9.448  11.857  66.743  1.00  0.00    -0.201 C  
HETATM   16  H   UNL     1     -10.652  10.632  67.603  1.00  0.00     0.000 HD 
HETATM   17  O   UNL     1     -10.138  11.377  67.893  1.00  0.00    -0.176 OA 
BRANCH  15  18
HETATM   18  C   UNL     1      -8.561  10.762  66.131  1.00  0.00    -0.171 C  
BRANCH  18  19
HETATM   19  C   UNL     1      -9.360   9.627  65.464  1.00  0.00    -0.248 C  
HETATM   20  O   UNL     1     -10.307   9.074  66.393  1.00  0.00    -0.261 OA 
HETATM   21  H   UNL     1     -10.799   8.374  65.982  1.00  0.00     0.000 HD 
BRANCH  19  22
HETATM   22  C   UNL     1      -8.468   8.496  64.953  1.00  0.00    -0.166 C  
HETATM   23  C   UNL     1      -8.659   8.139  63.496  1.00  0.00     0.241 C  
HETATM   24  O   UNL     1      -8.902   9.187  62.680  1.00  0.00    -0.227 OA 
HETATM   25  O   UNL     1      -8.519   7.001  63.071  1.00  0.00     0.079 OA 
ENDBRANCH  19  22
ENDBRANCH  18  19
ENDBRANCH  15  18
ENDBRANCH  14  15
ENDBRANCH   5  13
BRANCH   7  26
HETATM   26  C   UNL     1      -6.631  14.065  69.749  1.00  0.00    -0.081 A  
HETATM   27  C   UNL     1      -5.530  13.051  71.688  1.00  0.00    -0.007 A  
HETATM   28  C   UNL     1      -6.163  11.662  69.828  1.00  0.00    -0.139 A  
HETATM   29  C   UNL     1      -5.615  11.802  71.093  1.00  0.00     0.054 A  
HETATM   30  C   UNL     1      -6.053  14.169  71.027  1.00  0.00    -0.123 A  
HETATM   31  C   UNL     1      -6.639  12.791  69.151  1.00  0.00    -0.101 A  
HETATM   32  F   UNL     1      -5.169  10.723  71.747  1.00  0.00    -0.093 F  
ENDBRANCH   7  26
ENDBRANCH   2   4
TORSDOF 7
ENDMDL
MODEL      208
REMARK 921   NORMALIZED FREE ENERGY PREDICTED BY IDOCK:   -1.85 KCAL/MOL
REMARK 922        TOTAL FREE ENERGY PREDICTED BY IDOCK:   -4.31 KCAL/MOL
REMARK 923 INTER-LIGAND FREE ENERGY PREDICTED BY IDOCK:   -3.85 KCAL/MOL
REMARK 924 INTRA-LIGAND FREE ENERGY PREDICTED BY IDOCK:   -0.46 KCAL/MOL
REMARK 927      BINDING AFFINITY PREDICTED BY RF-SCORE:    0.00 PKD
ROOT
HETATM    1  C   UNL     1      -9.986  11.498  65.407  1.00  0.00    -0.288 C  
HETATM    2  C   UNL     1     -10.394  11.676  66.874  1.00  0.00    -0.220 C  
HETATM    3  C   UNL     1     -11.645  10.903  67.291  1.00  0.00     0.060 C  
ENDROOT
BRANCH   2   4
HETATM    4  N   UNL     1      -9.290  11.541  67.834  1.00  0.00    -0.166 NA 
HETATM    5  C   UNL     1      -8.975  10.445  68.631  1.00  0.00    -0.146 A  
HETATM    6  C   UNL     1      -6.312  14.271  68.792  1.00  0.00    -0.087 A  
HETATM    7  C   UNL     1      -7.760  10.722  69.279  1.00  0.00    -0.129 A  
HETATM    8  C   UNL     1      -7.328  14.742  67.978  1.00  0.00    -0.140 A  
HETATM    9  C   UNL     1      -8.395  12.575  68.077  1.00  0.00    -0.171 A  
HETATM   10  C   UNL     1      -7.402  12.078  68.927  1.00  0.00    -0.067 A  
HETATM   11  C   UNL     1      -6.330  12.948  69.253  1.00  0.00    -0.108 A  
HETATM   12  C   UNL     1      -8.374  13.901  67.600  1.00  0.00    -0.183 A  
BRANCH   5  13
HETATM   13  C   UNL     1      -9.817   9.296  68.613  1.00  0.00    -0.173 C  
HETATM   14  C   UNL     1      -9.466   8.161  67.986  1.00  0.00    -0.155 C  
BRANCH  14  15
HETATM   15  C   UNL     1     -10.300   6.910  67.990  1.00  0.00    -0.192 C  
HETATM   16  H   UNL     1     -11.520   6.097  66.749  1.00  0.00     0.000 HD 
HETATM   17  O   UNL     1     -10.994   6.888  66.746  1.00  0.00    -0.329 OA 
BRANCH  15  18
HETATM   18  C   UNL     1     -11.280   6.887  69.173  1.00  0.00    -0.163 C  
BRANCH  18  19
HETATM   19  C   UNL     1     -10.994   5.762  70.185  1.00  0.00    -0.298 C  
HETATM   20  O   UNL     1     -10.293   6.287  71.325  1.00  0.00    -0.203 OA 
HETATM   21  H   UNL     1     -10.117   5.593  71.949  1.00  0.00     0.000 HD 
BRANCH  19  22
HETATM   22  C   UNL     1     -10.166   4.625  69.590  1.00  0.00    -0.118 C  
HETATM   23  C   UNL     1      -9.405   3.792  70.596  1.00  0.00    -0.155 C  
HETATM   24  O   UNL     1     -10.053   3.575  71.761  1.00  0.00    -0.163 OA 
HETATM   25  O   UNL     1      -8.324   3.278  70.347  1.00  0.00    -0.051 OA 
ENDBRANCH  19  22
ENDBRANCH  18  19
ENDBRANCH  15  18
ENDBRANCH  14  15
ENDBRANCH   5  13
BRANCH   7  26
HETATM   26  C   UNL     1      -7.075   9.787  70.199  1.00  0.00    -0.130 A  
HETATM   27  C   UNL     1      -5.568   9.397  72.091  1.00  0.00    -0.037 A  
HETATM   28  C   UNL     1      -6.719   7.534  71.094  1.00  0.00    -0.046 A  
HETATM   29  C   UNL     1      -5.862   8.044  72.055  1.00  0.00    -0.037 A  
HETATM   30  C   UNL     1      -6.187  10.263  71.180  1.00  0.00     0.142 A  
HETATM   31  C   UNL     1      -7.296   8.397  70.154  1.00  0.00    -0.058 A  
HETATM   32  F   UNL     1      -5.318   7.222  72.962  1.00  0.00    -0.037 F  
ENDBRANCH   7  26
ENDBRANCH   2   4
TORSDOF 7
ENDMDL
MODEL      209
REMARK 921   NORMALIZED FREE ENERGY PREDICTED BY IDOCK:   -1.71 KCAL/MOL
REMARK 922        TOTAL FREE ENERGY PREDICTED BY IDOCK:   -4.12 KCAL/MOL
REMARK 923 INTER-LIGAND FREE ENERGY PREDICTED BY IDOCK:   -4.21 KCAL/MOL
REMARK 924 INTRA-LIGAND FREE ENERGY PREDICTED BY IDOCK:    0.10 KCAL/MOL
REMARK 927      BINDING AFFINITY PREDICTED BY RF-SCORE:    0.00 PKD
ROOT
HETATM    1  C   UNL     1     -10.143  15.818  65.931  1.00  0.00    -0.381 C  
HETATM    2  C   UNL     1      -9.583  16.978  66.761  1.00  0.00    -0.264 C  
HETATM    3  C   UNL     1     -10.636  17.936  67.320  1.00  0.00    -0.341 C  
ENDROOT
BRANCH   2   4
HETATM    4  N   UNL     1      -8.580  16.583  67.759  1.00  0.00    -0.176 NA 
HETATM    5  C   UNL     1      -8.352  15.320  68.295  1.00  0.00    -0.148 A  
HETATM    6  C   UNL     1      -5.693  18.914  69.623  1.00  0.00    -0.249 A  
HETATM    7  C   UNL     1      -7.205  15.397  69.102  1.00  0.00    -0.171 A  
HETATM    8  C   UNL     1      -6.621  19.597  68.854  1.00  0.00    -0.346 A  
HETATM    9  C   UNL     1      -7.707  17.502  68.328  1.00  0.00    -0.247 A  
HETATM   10  C   UNL     1      -6.805  16.787  69.123  1.00  0.00    -0.227 A  
HETATM   11  C   UNL     1      -5.765  17.521  69.748  1.00  0.00    -0.238 A  
HETATM   12  C   UNL     1      -7.630  18.903  68.188  1.00  0.00    -0.305 A  
BRANCH   5  13
HETATM   13  C   UNL     1      -9.195  14.235  67.922  1.00  0.00    -0.194 C  
HETATM   14  C   UNL     1      -8.707  13.089  67.418  1.00  0.00    -0.205 C  
BRANCH  14  15
HETATM   15  C   UNL     1      -9.558  11.901  67.064  1.00  0.00    -0.189 C  
HETATM   16  H   UNL     1     -11.245  11.664  66.176  1.00  0.00     0.000 HD 
HETATM   17  O   UNL     1     -10.708  12.415  66.400  1.00  0.00    -0.239 OA 
BRANCH  15  18
HETATM   18  C   UNL     1      -9.950  11.094  68.311  1.00  0.00    -0.196 C  
BRANCH  18  19
HETATM   19  C   UNL     1     -10.664   9.769  67.986  1.00  0.00    -0.247 C  
HETATM   20  O   UNL     1     -11.793  10.011  67.130  1.00  0.00     0.299 OA 
HETATM   21  H   UNL     1     -12.233   9.193  66.930  1.00  0.00     0.000 HD 
BRANCH  19  22
HETATM   22  C   UNL     1     -11.153   9.037  69.235  1.00  0.00     0.037 C  
HETATM   23  C   UNL     1     -10.704   7.598  69.351  1.00  0.00    -0.184 C  
HETATM   24  O   UNL     1      -9.450   7.356  68.911  1.00  0.00    -0.145 OA 
HETATM   25  O   UNL     1     -11.386   6.733  69.881  1.00  0.00    -0.315 OA 
ENDBRANCH  19  22
ENDBRANCH  18  19
ENDBRANCH  15  18
ENDBRANCH  14  15
ENDBRANCH   5  13
BRANCH   7  26
HETATM   26  C   UNL     1      -6.620  14.249  69.829  1.00  0.00    -0.125 A  
HETATM   27  C   UNL     1      -5.876  13.226  71.927  1.00  0.00     0.535 A  
HETATM   28  C   UNL     1      -5.843  11.927  69.902  1.00  0.00    -0.137 A  
HETATM   29  C   UNL     1      -5.637  12.031  71.268  1.00  0.00     0.128 A  
HETATM   30  C   UNL     1      -6.382  14.320  71.214  1.00  0.00     0.234 A  
HETATM   31  C   UNL     1      -6.302  13.039  69.185  1.00  0.00    -0.105 A  
HETATM   32  F   UNL     1      -5.209  10.966  71.958  1.00  0.00    -0.074 F  
ENDBRANCH   7  26
ENDBRANCH   2   4
TORSDOF 7
ENDMDL
MODEL      210
REMARK 921   NORMALIZED FREE ENERGY PREDICTED BY IDOCK:   -1.42 KCAL/MOL
REMARK 922        TOTAL FREE ENERGY PREDICTED BY IDOCK:   -3.70 KCAL/MOL
REMARK 923 INTER-LIGAND FREE ENERGY PREDICTED BY IDOCK:   -3.29 KCAL/MOL
REMARK 924 INTRA-LIGAND FREE ENERGY PREDICTED BY IDOCK:   -0.41 KCAL/MOL
REMARK 927      BINDING AFFINITY PREDICTED BY RF-SCORE:    0.00 PKD
ROOT
HETATM    1  C   UNL     1     -14.409  13.283  71.573  1.00  0.00     0.968 C  
HETATM    2  C   UNL     1     -12.910  13.031  71.386  1.00  0.00    -0.292 C  
HETATM    3  C   UNL     1     -12.565  11.867  70.456  1.00  0.00    -0.212 C  
ENDROOT
BRANCH   2   4
HETATM    4  N   UNL     1     -12.118  14.237  71.112  1.00  0.00    -0.345 NA 
HETATM    5  C   UNL     1     -11.343  14.521  69.992  1.00  0.00    -0.224 A  
HETATM    6  C   UNL     1     -11.689  17.661  73.424  1.00  0.00     1.064 A  
HETATM    7  C   UNL     1     -10.889  15.845  70.108  1.00  0.00    -0.359 A  
HETATM    8  C   UNL     1     -12.359  16.605  74.020  1.00  0.00    -0.396 A  
HETATM    9  C   UNL     1     -12.040  15.288  72.018  1.00  0.00    -0.385 A  
HETATM   10  C   UNL     1     -11.330  16.322  71.400  1.00  0.00    -0.247 A  
HETATM   11  C   UNL     1     -11.190  17.536  72.121  1.00  0.00     1.904 A  
HETATM   12  C   UNL     1     -12.555  15.413  73.324  1.00  0.00    -0.618 A  
BRANCH   5  13
HETATM   13  C   UNL     1     -11.203  13.541  68.968  1.00  0.00    -0.314 C  
HETATM   14  C   UNL     1     -10.599  13.809  67.798  1.00  0.00    -0.250 C  
BRANCH  14  15
HETATM   15  C   UNL     1     -10.381  12.790  66.715  1.00  0.00    -0.240 C  
HETATM   16  H   UNL     1     -11.316  11.216  66.135  1.00  0.00     0.000 HD 
HETATM   17  O   UNL     1     -11.455  11.859  66.820  1.00  0.00    -0.364 OA 
BRANCH  15  18
HETATM   18  C   UNL     1      -9.022  12.090  66.862  1.00  0.00    -0.199 C  
BRANCH  18  19
HETATM   19  C   UNL     1      -8.005  12.891  67.696  1.00  0.00    -0.167 C  
HETATM   20  O   UNL     1      -6.874  13.251  66.886  1.00  0.00    -0.394 OA 
HETATM   21  H   UNL     1      -6.247  13.744  67.400  1.00  0.00     0.000 HD 
BRANCH  19  22
HETATM   22  C   UNL     1      -7.501  12.121  68.915  1.00  0.00    -0.027 C  
HETATM   23  C   UNL     1      -6.355  12.773  69.655  1.00  0.00    -0.091 C  
HETATM   24  O   UNL     1      -6.414  14.121  69.723  1.00  0.00    -0.132 OA 
HETATM   25  O   UNL     1      -5.485  12.130  70.225  1.00  0.00    -0.107 OA 
ENDBRANCH  19  22
ENDBRANCH  18  19
ENDBRANCH  15  18
ENDBRANCH  14  15
ENDBRANCH   5  13
BRANCH   7  26
HETATM   26  C   UNL     1     -10.052  16.528  69.098  1.00  0.00    -0.287 A  
HETATM   27  C   UNL     1      -7.899  16.795  67.959  1.00  0.00    -0.178 A  
HETATM   28  C   UNL     1      -9.794  18.083  67.223  1.00  0.00    -0.306 A  
HETATM   29  C   UNL     1      -8.465  17.715  67.091  1.00  0.00    -0.226 A  
HETATM   30  C   UNL     1      -8.695  16.193  68.942  1.00  0.00    -0.248 A  
HETATM   31  C   UNL     1     -10.571  17.515  68.240  1.00  0.00    -0.354 A  
HETATM   32  F   UNL     1      -7.723  18.248  66.112  1.00  0.00    -0.260 F  
ENDBRANCH   7  26
ENDBRANCH   2   4
TORSDOF 7
ENDMDL
MODEL      211
REMARK 921   NORMALIZED FREE ENERGY PREDICTED BY IDOCK:   -1.28 KCAL/MOL
REMARK 922        TOTAL FREE ENERGY PREDICTED BY IDOCK:   -3.51 KCAL/MOL
REMARK 923 INTER-LIGAND FREE ENERGY PREDICTED BY IDOCK:   -2.00 KCAL/MOL
REMARK 924 INTRA-LIGAND FREE ENERGY PREDICTED BY IDOCK:   -1.51 KCAL/MOL
REMARK 927      BINDING AFFINITY PREDICTED BY RF-SCORE:    0.00 PKD
ROOT
HETATM    1  C   UNL     1      -6.926  11.200  70.171  1.00  0.00     0.256 C  
HETATM    2  C   UNL     1      -7.601   9.947  70.738  1.00  0.00     0.268 C  
HETATM    3  C   UNL     1      -9.129   9.996  70.766  1.00  0.00     0.686 C  
ENDROOT
BRANCH   2   4
HETATM    4  N   UNL     1      -7.078   8.681  70.206  1.00  0.00    -0.040 NA 
HETATM    5  C   UNL     1      -7.094   8.231  68.889  1.00  0.00    -0.066 A  
HETATM    6  C   UNL     1      -5.137   5.607  72.212  1.00  0.00    -0.017 A  
HETATM    7  C   UNL     1      -6.359   7.035  68.836  1.00  0.00    -0.028 A  
HETATM    8  C   UNL     1      -5.679   6.604  73.007  1.00  0.00    -0.042 A  
HETATM    9  C   UNL     1      -6.490   7.725  71.025  1.00  0.00    -0.038 A  
HETATM   10  C   UNL     1      -5.985   6.717  70.197  1.00  0.00    -0.023 A  
HETATM   11  C   UNL     1      -5.268   5.663  70.819  1.00  0.00    -0.009 A  
HETATM   12  C   UNL     1      -6.349   7.679  72.426  1.00  0.00    -0.051 A  
BRANCH   5  13
HETATM   13  C   UNL     1      -7.734   9.013  67.886  1.00  0.00    -0.097 C  
HETATM   14  C   UNL     1      -7.041   9.666  66.937  1.00  0.00    -0.086 C  
BRANCH  14  15
HETATM   15  C   UNL     1      -7.679  10.456  65.829  1.00  0.00    -0.146 C  
HETATM   16  H   UNL     1      -7.019  11.585  64.422  1.00  0.00     0.000 HD 
HETATM   17  O   UNL     1      -6.615  11.086  65.123  1.00  0.00     0.161 OA 
BRANCH  15  18
HETATM   18  C   UNL     1      -8.674  11.492  66.373  1.00  0.00    -0.179 C  
BRANCH  18  19
HETATM   19  C   UNL     1      -9.811  11.828  65.390  1.00  0.00    -0.233 C  
HETATM   20  O   UNL     1      -9.361  11.658  64.036  1.00  0.00    -0.431 OA 
HETATM   21  H   UNL     1     -10.062  11.866  63.430  1.00  0.00     0.000 HD 
BRANCH  19  22
HETATM   22  C   UNL     1     -10.331  13.255  65.551  1.00  0.00    -0.298 C  
HETATM   23  C   UNL     1     -11.670  13.526  64.902  1.00  0.00    -0.357 C  
HETATM   24  O   UNL     1     -12.553  12.507  64.971  1.00  0.00    -0.592 OA 
HETATM   25  O   UNL     1     -11.966  14.613  64.426  1.00  0.00    -0.457 OA 
ENDBRANCH  19  22
ENDBRANCH  18  19
ENDBRANCH  15  18
ENDBRANCH  14  15
ENDBRANCH   5  13
BRANCH   7  26
HETATM   26  C   UNL     1      -6.122   6.258  67.599  1.00  0.00    -0.021 A  
HETATM   27  C   UNL     1      -6.596   4.303  66.202  1.00  0.00    -0.041 A  
HETATM   28  C   UNL     1      -5.132   6.022  65.372  1.00  0.00    -0.013 A  
HETATM   29  C   UNL     1      -5.799   4.821  65.194  1.00  0.00    -0.018 A  
HETATM   30  C   UNL     1      -6.770   5.028  67.388  1.00  0.00    -0.055 A  
HETATM   31  C   UNL     1      -5.269   6.718  66.579  1.00  0.00    -0.017 A  
HETATM   32  F   UNL     1      -5.678   4.159  64.037  1.00  0.00    -0.012 F  
ENDBRANCH   7  26
ENDBRANCH   2   4
TORSDOF 7
ENDMDL
MODEL      212
REMARK 921   NORMALIZED FREE ENERGY PREDICTED BY IDOCK:   -0.62 KCAL/MOL
REMARK 922        TOTAL FREE ENERGY PREDICTED BY IDOCK:   -2.58 KCAL/MOL
REMARK 923 INTER-LIGAND FREE ENERGY PREDICTED BY IDOCK:   -3.86 KCAL/MOL
REMARK 924 INTRA-LIGAND FREE ENERGY PREDICTED BY IDOCK:    1.28 KCAL/MOL
REMARK 927      BINDING AFFINITY PREDICTED BY RF-SCORE:    0.00 PKD
ROOT
HETATM    1  C   UNL     1      -6.368  16.073  68.126  1.00  0.00    -0.129 C  
HETATM    2  C   UNL     1      -7.143  15.179  69.100  1.00  0.00    -0.154 C  
HETATM    3  C   UNL     1      -8.546  15.675  69.450  1.00  0.00    -0.248 C  
ENDROOT
BRANCH   2   4
HETATM    4  N   UNL     1      -7.107  13.747  68.772  1.00  0.00    -0.103 NA 
HETATM    5  C   UNL     1      -7.691  13.099  67.688  1.00  0.00    -0.168 A  
HETATM    6  C   UNL     1      -5.194  10.656  70.779  1.00  0.00    -0.087 A  
HETATM    7  C   UNL     1      -7.272  11.758  67.713  1.00  0.00    -0.097 A  
HETATM    8  C   UNL     1      -5.203  11.883  71.422  1.00  0.00    -0.035 A  
HETATM    9  C   UNL     1      -6.455  12.824  69.579  1.00  0.00    -0.077 A  
HETATM   10  C   UNL     1      -6.492  11.590  68.920  1.00  0.00    -0.065 A  
HETATM   11  C   UNL     1      -5.815  10.505  69.533  1.00  0.00    -0.040 A  
HETATM   12  C   UNL     1      -5.820  12.983  70.828  1.00  0.00    -0.091 A  
BRANCH   5  13
HETATM   13  C   UNL     1      -8.491  13.841  66.773  1.00  0.00     0.007 C  
HETATM   14  C   UNL     1      -8.304  15.154  66.560  1.00  0.00    -0.060 C  
BRANCH  14  15
HETATM   15  C   UNL     1      -9.089  15.961  65.564  1.00  0.00     0.275 C  
HETATM   16  H   UNL     1      -9.028  17.781  64.953  1.00  0.00     0.000 HD 
HETATM   17  O   UNL     1      -8.532  17.272  65.583  1.00  0.00    -0.475 OA 
BRANCH  15  18
HETATM   18  C   UNL     1     -10.586  15.988  65.910  1.00  0.00    -0.338 C  
BRANCH  18  19
HETATM   19  C   UNL     1     -11.120  17.399  66.216  1.00  0.00     0.472 C  
HETATM   20  O   UNL     1     -10.966  18.248  65.067  1.00  0.00    -0.684 OA 
HETATM   21  H   UNL     1     -11.295  19.118  65.256  1.00  0.00     0.000 HD 
BRANCH  19  22
HETATM   22  C   UNL     1     -10.413  18.057  67.400  1.00  0.00    -0.399 C  
HETATM   23  C   UNL     1     -10.486  19.567  67.432  1.00  0.00    -0.471 C  
HETATM   24  O   UNL     1     -11.658  20.089  67.010  1.00  0.00     0.447 OA 
HETATM   25  O   UNL     1      -9.589  20.263  67.885  1.00  0.00    -0.355 OA 
ENDBRANCH  19  22
ENDBRANCH  18  19
ENDBRANCH  15  18
ENDBRANCH  14  15
ENDBRANCH   5  13
BRANCH   7  26
HETATM   26  C   UNL     1      -7.660  10.746  66.707  1.00  0.00    -0.129 A  
HETATM   27  C   UNL     1      -7.108   9.392  64.742  1.00  0.00    -0.102 A  
HETATM   28  C   UNL     1      -9.219   9.063  65.849  1.00  0.00    -0.290 A  
HETATM   29  C   UNL     1      -8.316   8.722  64.855  1.00  0.00    -0.170 A  
HETATM   30  C   UNL     1      -6.777  10.383  65.674  1.00  0.00    -0.127 A  
HETATM   31  C   UNL     1      -8.904  10.089  66.748  1.00  0.00    -0.144 A  
HETATM   32  F   UNL     1      -8.610   7.734  64.001  1.00  0.00    -0.025 F  
ENDBRANCH   7  26
ENDBRANCH   2   4
TORSDOF 7
ENDMDL
MODEL      213
REMARK 921   NORMALIZED FREE ENERGY PREDICTED BY IDOCK:   -0.13 KCAL/MOL
REMARK 922        TOTAL FREE ENERGY PREDICTED BY IDOCK:   -1.89 KCAL/MOL
REMARK 923 INTER-LIGAND FREE ENERGY PREDICTED BY IDOCK:   -3.56 KCAL/MOL
REMARK 924 INTRA-LIGAND FREE ENERGY PREDICTED BY IDOCK:    1.67 KCAL/MOL
REMARK 927      BINDING AFFINITY PREDICTED BY RF-SCORE:    0.00 PKD
ROOT
HETATM    1  C   UNL     1     -12.597  13.432  70.737  1.00  0.00    -0.369 C  
HETATM    2  C   UNL     1     -11.793  13.933  69.532  1.00  0.00    -0.329 C  
HETATM    3  C   UNL     1     -11.621  15.451  69.461  1.00  0.00    -0.346 C  
ENDROOT
BRANCH   2   4
HETATM    4  N   UNL     1     -10.543  13.202  69.287  1.00  0.00     0.041 NA 
HETATM    5  C   UNL     1     -10.216  11.905  69.670  1.00  0.00     0.802 A  
HETATM    6  C   UNL     1      -7.152  14.443  67.235  1.00  0.00     0.024 A  
HETATM    7  C   UNL     1      -8.974  11.588  69.096  1.00  0.00     0.264 A  
HETATM    8  C   UNL     1      -8.114  15.413  67.462  1.00  0.00    -0.187 A  
HETATM    9  C   UNL     1      -9.472  13.780  68.617  1.00  0.00    -0.099 A  
HETATM   10  C   UNL     1      -8.505  12.786  68.434  1.00  0.00    -0.115 A  
HETATM   11  C   UNL     1      -7.345  13.135  67.698  1.00  0.00    -0.155 A  
HETATM   12  C   UNL     1      -9.288  15.095  68.142  1.00  0.00    -0.192 A  
BRANCH   5  13
HETATM   13  C   UNL     1     -11.136  11.151  70.454  1.00  0.00     0.157 C  
HETATM   14  C   UNL     1     -11.321   9.833  70.268  1.00  0.00    -0.333 C  
BRANCH  14  15
HETATM   15  C   UNL     1     -12.239   8.990  71.109  1.00  0.00    -0.275 C  
HETATM   16  H   UNL     1     -12.695   8.938  72.974  1.00  0.00     0.000 HD 
HETATM   17  O   UNL     1     -12.115   9.471  72.443  1.00  0.00    -0.147 OA 
BRANCH  15  18
HETATM   18  C   UNL     1     -11.879   7.499  71.019  1.00  0.00    -0.319 C  
BRANCH  18  19
HETATM   19  C   UNL     1     -11.103   6.981  72.244  1.00  0.00    -0.252 C  
HETATM   20  O   UNL     1     -10.267   8.021  72.778  1.00  0.00    -0.279 OA 
HETATM   21  H   UNL     1      -9.788   7.701  73.534  1.00  0.00     0.000 HD 
BRANCH  19  22
HETATM   22  C   UNL     1     -10.225   5.773  71.922  1.00  0.00    -0.246 C  
HETATM   23  C   UNL     1     -10.121   5.431  70.452  1.00  0.00    -0.244 C  
HETATM   24  O   UNL     1     -10.085   6.494  69.621  1.00  0.00    -0.174 OA 
HETATM   25  O   UNL     1      -9.992   4.284  70.048  1.00  0.00    -0.223 OA 
ENDBRANCH  19  22
ENDBRANCH  18  19
ENDBRANCH  15  18
ENDBRANCH  14  15
ENDBRANCH   5  13
BRANCH   7  26
HETATM   26  C   UNL     1      -8.296  10.282  69.249  1.00  0.00    -0.167 A  
HETATM   27  C   UNL     1      -7.463   8.483  70.689  1.00  0.00    -0.066 A  
HETATM   28  C   UNL     1      -7.332   8.241  68.298  1.00  0.00    -0.095 A  
HETATM   29  C   UNL     1      -7.130   7.734  69.571  1.00  0.00    -0.063 A  
HETATM   30  C   UNL     1      -8.060   9.740  70.525  1.00  0.00    -0.046 A  
HETATM   31  C   UNL     1      -7.882   9.519  68.142  1.00  0.00    -0.083 A  
HETATM   32  F   UNL     1      -6.614   6.508  69.724  1.00  0.00    -0.041 F  
ENDBRANCH   7  26
ENDBRANCH   2   4
TORSDOF 7
ENDMDL
MODEL      214
REMARK 921   NORMALIZED FREE ENERGY PREDICTED BY IDOCK:    0.17 KCAL/MOL
REMARK 922        TOTAL FREE ENERGY PREDICTED BY IDOCK:   -1.47 KCAL/MOL
REMARK 923 INTER-LIGAND FREE ENERGY PREDICTED BY IDOCK:   -1.68 KCAL/MOL
REMARK 924 INTRA-LIGAND FREE ENERGY PREDICTED BY IDOCK:    0.21 KCAL/MOL
REMARK 927      BINDING AFFINITY PREDICTED BY RF-SCORE:    0.00 PKD
ROOT
HETATM    1  C   UNL     1     -12.341  15.623  68.947  1.00  0.00     0.111 C  
HETATM    2  C   UNL     1     -11.176  14.979  69.705  1.00  0.00    -0.277 C  
HETATM    3  C   UNL     1     -11.587  13.973  70.782  1.00  0.00    -0.064 C  
ENDROOT
BRANCH   2   4
HETATM    4  N   UNL     1     -10.089  14.487  68.848  1.00  0.00    -0.237 NA 
HETATM    5  C   UNL     1      -9.770  13.169  68.536  1.00  0.00    -0.137 A  
HETATM    6  C   UNL     1      -7.268  16.655  66.706  1.00  0.00    -0.272 A  
HETATM    7  C   UNL     1      -8.747  13.192  67.574  1.00  0.00    -0.201 A  
HETATM    8  C   UNL     1      -8.064  17.384  67.574  1.00  0.00    -0.205 A  
HETATM    9  C   UNL     1      -9.190  15.349  68.232  1.00  0.00    -0.188 A  
HETATM   10  C   UNL     1      -8.380  14.579  67.391  1.00  0.00    -0.217 A  
HETATM   11  C   UNL     1      -7.429  15.268  66.596  1.00  0.00     0.437 A  
HETATM   12  C   UNL     1      -9.041  16.747  68.337  1.00  0.00    -0.233 A  
BRANCH   5  13
HETATM   13  C   UNL     1     -10.506  12.107  69.134  1.00  0.00     0.019 C  
HETATM   14  C   UNL     1     -11.812  11.911  68.883  1.00  0.00    -0.366 C  
BRANCH  14  15
HETATM   15  C   UNL     1     -12.612  10.771  69.449  1.00  0.00     0.242 C  
HETATM   16  H   UNL     1     -14.162  10.638  70.575  1.00  0.00     0.000 HD 
HETATM   17  O   UNL     1     -13.657  11.359  70.218  1.00  0.00     0.974 OA 
BRANCH  15  18
HETATM   18  C   UNL     1     -11.742   9.843  70.310  1.00  0.00    -0.286 C  
BRANCH  18  19
HETATM   19  C   UNL     1     -10.801   8.944  69.487  1.00  0.00    -0.153 C  
HETATM   20  O   UNL     1     -11.365   7.629  69.351  1.00  0.00    -0.445 OA 
HETATM   21  H   UNL     1     -10.784   7.075  68.843  1.00  0.00     0.000 HD 
BRANCH  19  22
HETATM   22  C   UNL     1      -9.413   8.811  70.111  1.00  0.00    -0.182 C  
HETATM   23  C   UNL     1      -8.638   7.581  69.694  1.00  0.00    -0.136 C  
HETATM   24  O   UNL     1      -8.803   7.214  68.405  1.00  0.00    -0.128 OA 
HETATM   25  O   UNL     1      -7.854   7.011  70.438  1.00  0.00    -0.103 OA 
ENDBRANCH  19  22
ENDBRANCH  18  19
ENDBRANCH  15  18
ENDBRANCH  14  15
ENDBRANCH   5  13
BRANCH   7  26
HETATM   26  C   UNL     1      -8.149  11.983  66.967  1.00  0.00    -0.158 A  
HETATM   27  C   UNL     1      -7.103   9.782  67.217  1.00  0.00    -0.085 A  
HETATM   28  C   UNL     1      -7.619  10.601  65.015  1.00  0.00     0.056 A  
HETATM   29  C   UNL     1      -7.129   9.605  65.843  1.00  0.00    -0.098 A  
HETATM   30  C   UNL     1      -7.628  10.955  67.773  1.00  0.00    -0.095 A  
HETATM   31  C   UNL     1      -8.096  11.793  65.573  1.00  0.00     0.805 A  
HETATM   32  F   UNL     1      -6.682   8.460  65.312  1.00  0.00    -0.054 F  
ENDBRANCH   7  26
ENDBRANCH   2   4
TORSDOF 7
ENDMDL
MODEL      215
REMARK 921   NORMALIZED FREE ENERGY PREDICTED BY IDOCK:    0.43 KCAL/MOL
REMARK 922        TOTAL FREE ENERGY PREDICTED BY IDOCK:   -1.10 KCAL/MOL
REMARK 923 INTER-LIGAND FREE ENERGY PREDICTED BY IDOCK:   -1.57 KCAL/MOL
REMARK 924 INTRA-LIGAND FREE ENERGY PREDICTED BY IDOCK:    0.47 KCAL/MOL
REMARK 927      BINDING AFFINITY PREDICTED BY RF-SCORE:    0.00 PKD
ROOT
HETATM    1  C   UNL     1     -11.900  10.970  68.541  1.00  0.00    -0.286 C  
HETATM    2  C   UNL     1     -10.858  11.065  67.423  1.00  0.00    -0.274 C  
HETATM    3  C   UNL     1     -10.780   9.840  66.511  1.00  0.00    -0.059 C  
ENDROOT
BRANCH   2   4
HETATM    4  N   UNL     1     -10.875  12.332  66.679  1.00  0.00    -0.249 NA 
HETATM    5  C   UNL     1     -10.332  13.556  67.055  1.00  0.00    -0.252 A  
HETATM    6  C   UNL     1     -12.477  13.141  62.934  1.00  0.00     0.391 A  
HETATM    7  C   UNL     1     -10.469  14.438  65.970  1.00  0.00    -0.307 A  
HETATM    8  C   UNL     1     -12.767  11.893  63.463  1.00  0.00    -0.530 A  
HETATM    9  C   UNL     1     -11.500  12.451  65.444  1.00  0.00    -0.358 A  
HETATM   10  C   UNL     1     -11.217  13.731  64.954  1.00  0.00    -0.352 A  
HETATM   11  C   UNL     1     -11.696  14.051  63.658  1.00  0.00     0.092 A  
HETATM   12  C   UNL     1     -12.274  11.527  64.714  1.00  0.00     0.441 A  
BRANCH   5  13
HETATM   13  C   UNL     1      -9.719  13.691  68.334  1.00  0.00    -0.217 C  
HETATM   14  C   UNL     1      -9.456  14.890  68.879  1.00  0.00    -0.209 C  
BRANCH  14  15
HETATM   15  C   UNL     1      -8.862  15.076  70.247  1.00  0.00     0.878 C  
HETATM   16  H   UNL     1      -9.574  15.480  71.985  1.00  0.00     0.000 HD 
HETATM   17  O   UNL     1      -9.950  15.363  71.120  1.00  0.00     0.651 OA 
BRANCH  15  18
HETATM   18  C   UNL     1      -7.823  16.208  70.264  1.00  0.00     1.498 C  
BRANCH  18  19
HETATM   19  C   UNL     1      -7.507  16.772  68.866  1.00  0.00    -0.240 C  
HETATM   20  O   UNL     1      -6.166  16.425  68.483  1.00  0.00    -0.123 OA 
HETATM   21  H   UNL     1      -5.972  16.773  67.621  1.00  0.00     0.000 HD 
BRANCH  19  22
HETATM   22  C   UNL     1      -7.652  18.291  68.794  1.00  0.00    -0.294 C  
HETATM   23  C   UNL     1      -6.436  19.073  69.239  1.00  0.00    -0.292 C  
HETATM   24  O   UNL     1      -5.251  18.522  68.902  1.00  0.00    -0.184 OA 
HETATM   25  O   UNL     1      -6.515  20.163  69.786  1.00  0.00    -0.339 OA 
ENDBRANCH  19  22
ENDBRANCH  18  19
ENDBRANCH  15  18
ENDBRANCH  14  15
ENDBRANCH   5  13
BRANCH   7  26
HETATM   26  C   UNL     1      -9.987  15.836  65.969  1.00  0.00    -0.358 A  
HETATM   27  C   UNL     1     -10.425  18.228  66.265  1.00  0.00    -0.397 A  
HETATM   28  C   UNL     1      -8.176  17.481  65.849  1.00  0.00    -0.023 A  
HETATM   29  C   UNL     1      -9.076  18.502  66.109  1.00  0.00    -0.114 A  
HETATM   30  C   UNL     1     -10.872  16.902  66.214  1.00  0.00     0.026 A  
HETATM   31  C   UNL     1      -8.636  16.163  65.750  1.00  0.00     0.231 A  
HETATM   32  F   UNL     1      -8.637  19.762  66.216  1.00  0.00    -0.321 F  
ENDBRANCH   7  26
ENDBRANCH   2   4
TORSDOF 7
ENDMDL
MODEL      216
REMARK 921   NORMALIZED FREE ENERGY PREDICTED BY IDOCK:    1.23 KCAL/MOL
REMARK 922        TOTAL FREE ENERGY PREDICTED BY IDOCK:    0.03 KCAL/MOL
REMARK 923 INTER-LIGAND FREE ENERGY PREDICTED BY IDOCK:   -1.77 KCAL/MOL
REMARK 924 INTRA-LIGAND FREE ENERGY PREDICTED BY IDOCK:    1.79 KCAL/MOL
REMARK 927      BINDING AFFINITY PREDICTED BY RF-SCORE:    0.00 PKD
ROOT
HETATM    1  C   UNL     1      -6.950  11.499  70.278  1.00  0.00     0.791 C  
HETATM    2  C   UNL     1      -7.640  10.143  70.457  1.00  0.00     0.262 C  
HETATM    3  C   UNL     1      -9.163  10.207  70.572  1.00  0.00     0.498 C  
ENDROOT
BRANCH   2   4
HETATM    4  N   UNL     1      -7.179   9.098  69.533  1.00  0.00    -0.058 NA 
HETATM    5  C   UNL     1      -7.148   9.133  68.143  1.00  0.00    -0.078 A  
HETATM    6  C   UNL     1      -5.586   5.362  70.400  1.00  0.00    -0.008 A  
HETATM    7  C   UNL     1      -6.498   7.970  67.699  1.00  0.00    -0.057 A  
HETATM    8  C   UNL     1      -6.102   6.067  71.476  1.00  0.00    -0.035 A  
HETATM    9  C   UNL     1      -6.711   7.870  69.985  1.00  0.00    -0.041 A  
HETATM   10  C   UNL     1      -6.230   7.170  68.874  1.00  0.00    -0.027 A  
HETATM   11  C   UNL     1      -5.630   5.907  69.111  1.00  0.00    -0.008 A  
HETATM   12  C   UNL     1      -6.657   7.331  71.287  1.00  0.00    -0.043 A  
BRANCH   5  13
HETATM   13  C   UNL     1      -7.668  10.267  67.456  1.00  0.00    -0.094 C  
HETATM   14  C   UNL     1      -7.760  11.475  68.037  1.00  0.00    -0.119 C  
BRANCH  14  15
HETATM   15  C   UNL     1      -8.251  12.708  67.331  1.00  0.00    -0.184 C  
HETATM   16  H   UNL     1      -8.888  14.428  67.903  1.00  0.00     0.000 HD 
HETATM   17  O   UNL     1      -8.578  13.649  68.349  1.00  0.00    -0.170 OA 
BRANCH  15  18
HETATM   18  C   UNL     1      -9.468  12.405  66.443  1.00  0.00    -0.240 C  
BRANCH  18  19
HETATM   19  C   UNL     1      -9.762  13.506  65.407  1.00  0.00    -0.016 C  
HETATM   20  O   UNL     1     -10.514  14.570  66.014  1.00  0.00    -0.288 OA 
HETATM   21  H   UNL     1     -10.695  15.248  65.374  1.00  0.00     0.000 HD 
BRANCH  19  22
HETATM   22  C   UNL     1     -10.542  12.990  64.199  1.00  0.00    -0.421 C  
HETATM   23  C   UNL     1     -11.961  12.555  64.492  1.00  0.00    -0.404 C  
HETATM   24  O   UNL     1     -12.611  13.308  65.405  1.00  0.00    -0.478 OA 
HETATM   25  O   UNL     1     -12.511  11.646  63.887  1.00  0.00    -0.291 OA 
ENDBRANCH  19  22
ENDBRANCH  18  19
ENDBRANCH  15  18
ENDBRANCH  14  15
ENDBRANCH   5  13
BRANCH   7  26
HETATM   26  C   UNL     1      -6.244   7.650  66.277  1.00  0.00    -0.045 A  
HETATM   27  C   UNL     1      -5.236   8.232  64.122  1.00  0.00    -0.040 A  
HETATM   28  C   UNL     1      -6.346   6.112  64.373  1.00  0.00    -0.030 A  
HETATM   29  C   UNL     1      -5.625   7.008  63.601  1.00  0.00    -0.036 A  
HETATM   30  C   UNL     1      -5.528   8.540  65.456  1.00  0.00    -0.035 A  
HETATM   31  C   UNL     1      -6.679   6.447  65.691  1.00  0.00    -0.048 A  
HETATM   32  F   UNL     1      -5.296   6.686  62.344  1.00  0.00    -0.024 F  
ENDBRANCH   7  26
ENDBRANCH   2   4
TORSDOF 7
ENDMDL
MODEL      217
REMARK 921   NORMALIZED FREE ENERGY PREDICTED BY IDOCK:    1.94 KCAL/MOL
REMARK 922        TOTAL FREE ENERGY PREDICTED BY IDOCK:    1.02 KCAL/MOL
REMARK 923 INTER-LIGAND FREE ENERGY PREDICTED BY IDOCK:   -0.74 KCAL/MOL
REMARK 924 INTRA-LIGAND FREE ENERGY PREDICTED BY IDOCK:    1.76 KCAL/MOL
REMARK 927      BINDING AFFINITY PREDICTED BY RF-SCORE:    0.00 PKD
ROOT
HETATM    1  C   UNL     1      -6.949  11.504  70.283  1.00  0.00     0.791 C  
HETATM    2  C   UNL     1      -7.644  10.150  70.460  1.00  0.00     0.262 C  
HETATM    3  C   UNL     1      -9.168  10.218  70.560  1.00  0.00     0.770 C  
ENDROOT
BRANCH   2   4
HETATM    4  N   UNL     1      -7.177   9.101  69.543  1.00  0.00    -0.058 NA 
HETATM    5  C   UNL     1      -7.114   9.140  68.154  1.00  0.00    -0.078 A  
HETATM    6  C   UNL     1      -5.656   5.341  70.434  1.00  0.00    -0.012 A  
HETATM    7  C   UNL     1      -6.471   7.969  67.721  1.00  0.00    -0.053 A  
HETATM    8  C   UNL     1      -6.185   6.050  71.500  1.00  0.00    -0.044 A  
HETATM    9  C   UNL     1      -6.736   7.866  70.002  1.00  0.00    -0.041 A  
HETATM   10  C   UNL     1      -6.240   7.162  68.899  1.00  0.00    -0.027 A  
HETATM   11  C   UNL     1      -5.663   5.891  69.146  1.00  0.00    -0.012 A  
HETATM   12  C   UNL     1      -6.719   7.323  71.302  1.00  0.00    -0.051 A  
BRANCH   5  13
HETATM   13  C   UNL     1      -7.604  10.283  67.459  1.00  0.00    -0.094 C  
HETATM   14  C   UNL     1      -7.693  11.490  68.042  1.00  0.00    -0.119 C  
BRANCH  14  15
HETATM   15  C   UNL     1      -8.152  12.732  67.329  1.00  0.00    -0.172 C  
HETATM   16  H   UNL     1      -7.262  14.205  66.476  1.00  0.00     0.000 HD 
HETATM   17  O   UNL     1      -6.971  13.421  66.927  1.00  0.00     0.121 OA 
BRANCH  15  18
HETATM   18  C   UNL     1      -9.028  13.612  68.232  1.00  0.00    -0.187 C  
BRANCH  18  19
HETATM   19  C   UNL     1      -9.845  14.664  67.460  1.00  0.00    -0.218 C  
HETATM   20  O   UNL     1      -9.476  14.655  66.070  1.00  0.00    -0.381 OA 
HETATM   21  H   UNL     1      -9.980  15.305  65.594  1.00  0.00     0.000 HD 
BRANCH  19  22
HETATM   22  C   UNL     1      -9.651  16.079  68.001  1.00  0.00    -0.215 C  
HETATM   23  C   UNL     1      -8.269  16.659  67.801  1.00  0.00    -0.177 C  
HETATM   24  O   UNL     1      -7.678  16.330  66.632  1.00  0.00    -0.234 OA 
HETATM   25  O   UNL     1      -7.757  17.436  68.593  1.00  0.00    -0.256 OA 
ENDBRANCH  19  22
ENDBRANCH  18  19
ENDBRANCH  15  18
ENDBRANCH  14  15
ENDBRANCH   5  13
BRANCH   7  26
HETATM   26  C   UNL     1      -6.190   7.649  66.304  1.00  0.00    -0.045 A  
HETATM   27  C   UNL     1      -5.126   8.223  64.173  1.00  0.00    -0.040 A  
HETATM   28  C   UNL     1      -6.270   6.118  64.394  1.00  0.00    -0.030 A  
HETATM   29  C   UNL     1      -5.520   7.006  63.641  1.00  0.00    -0.032 A  
HETATM   30  C   UNL     1      -5.444   8.531  65.502  1.00  0.00    -0.035 A  
HETATM   31  C   UNL     1      -6.627   6.453  65.705  1.00  0.00    -0.047 A  
HETATM   32  F   UNL     1      -5.167   6.683  62.390  1.00  0.00    -0.023 F  
ENDBRANCH   7  26
ENDBRANCH   2   4
TORSDOF 7
ENDMDL
MODEL      218
REMARK 921   NORMALIZED FREE ENERGY PREDICTED BY IDOCK:    2.42 KCAL/MOL
REMARK 922        TOTAL FREE ENERGY PREDICTED BY IDOCK:    1.71 KCAL/MOL
REMARK 923 INTER-LIGAND FREE ENERGY PREDICTED BY IDOCK:    0.93 KCAL/MOL
REMARK 924 INTRA-LIGAND FREE ENERGY PREDICTED BY IDOCK:    0.78 KCAL/MOL
REMARK 927      BINDING AFFINITY PREDICTED BY RF-SCORE:    0.00 PKD
ROOT
HETATM    1  C   UNL     1     -10.040  15.837  68.972  1.00  0.00    -0.225 C  
HETATM    2  C   UNL     1     -10.032  14.784  70.084  1.00  0.00     0.396 C  
HETATM    3  C   UNL     1     -10.796  15.179  71.349  1.00  0.00     0.023 C  
ENDROOT
BRANCH   2   4
HETATM    4  N   UNL     1     -10.338  13.420  69.634  1.00  0.00     0.547 NA 
HETATM    5  C   UNL     1      -9.734  12.698  68.609  1.00  0.00    -0.042 A  
HETATM    6  C   UNL     1     -13.140  10.742  71.125  1.00  0.00    -0.381 A  
HETATM    7  C   UNL     1     -10.258  11.394  68.636  1.00  0.00    -0.217 A  
HETATM    8  C   UNL     1     -13.198  12.029  71.635  1.00  0.00    -0.361 A  
HETATM    9  C   UNL     1     -11.349  12.662  70.213  1.00  0.00     0.426 A  
HETATM   10  C   UNL     1     -11.286  11.382  69.653  1.00  0.00    -0.347 A  
HETATM   11  C   UNL     1     -12.187  10.408  70.156  1.00  0.00    -0.305 A  
HETATM   12  C   UNL     1     -12.298  13.000  71.198  1.00  0.00    -0.270 A  
BRANCH   5  13
HETATM   13  C   UNL     1      -8.727  13.315  67.813  1.00  0.00    -0.194 C  
HETATM   14  C   UNL     1      -7.516  13.623  68.304  1.00  0.00    -0.124 C  
BRANCH  14  15
HETATM   15  C   UNL     1      -6.407  14.223  67.485  1.00  0.00    -0.006 C  
HETATM   16  H   UNL     1      -5.053  13.515  66.322  1.00  0.00     0.000 HD 
HETATM   17  O   UNL     1      -5.753  13.135  66.839  1.00  0.00    -0.129 OA 
BRANCH  15  18
HETATM   18  C   UNL     1      -5.428  15.023  68.357  1.00  0.00    -0.109 C  
BRANCH  18  19
HETATM   19  C   UNL     1      -6.124  15.926  69.392  1.00  0.00    -0.143 C  
HETATM   20  O   UNL     1      -7.286  16.541  68.812  1.00  0.00    -0.182 OA 
HETATM   21  H   UNL     1      -7.715  17.098  69.450  1.00  0.00     0.000 HD 
BRANCH  19  22
HETATM   22  C   UNL     1      -5.210  17.028  69.926  1.00  0.00    -0.181 C  
HETATM   23  C   UNL     1      -5.853  17.965  70.924  1.00  0.00     0.377 C  
HETATM   24  O   UNL     1      -6.723  17.381  71.775  1.00  0.00     3.861 OA 
HETATM   25  O   UNL     1      -5.547  19.145  71.014  1.00  0.00    -0.231 OA 
ENDBRANCH  19  22
ENDBRANCH  18  19
ENDBRANCH  15  18
ENDBRANCH  14  15
ENDBRANCH   5  13
BRANCH   7  26
HETATM   26  C   UNL     1      -9.846  10.313  67.715  1.00  0.00    -0.195 A  
HETATM   27  C   UNL     1      -9.151   7.993  67.346  1.00  0.00    -0.147 A  
HETATM   28  C   UNL     1      -9.514   9.433  65.453  1.00  0.00    -0.322 A  
HETATM   29  C   UNL     1      -9.190   8.192  65.975  1.00  0.00    -0.147 A  
HETATM   30  C   UNL     1      -9.496   9.043  68.206  1.00  0.00    -0.156 A  
HETATM   31  C   UNL     1      -9.809  10.493  66.319  1.00  0.00    -0.269 A  
HETATM   32  F   UNL     1      -8.918   7.174  65.149  1.00  0.00    -0.020 F  
ENDBRANCH   7  26
ENDBRANCH   2   4
TORSDOF 7
ENDMDL
MODEL      219
REMARK 921   NORMALIZED FREE ENERGY PREDICTED BY IDOCK:    9.52 KCAL/MOL
REMARK 922        TOTAL FREE ENERGY PREDICTED BY IDOCK:   11.71 KCAL/MOL
REMARK 923 INTER-LIGAND FREE ENERGY PREDICTED BY IDOCK:    6.30 KCAL/MOL
REMARK 924 INTRA-LIGAND FREE ENERGY PREDICTED BY IDOCK:    5.41 KCAL/MOL
REMARK 927      BINDING AFFINITY PREDICTED BY RF-SCORE:    0.00 PKD
ROOT
HETATM    1  C   UNL     1      -8.709  10.519  67.053  1.00  0.00    -0.132 C  
HETATM    2  C   UNL     1      -8.187  11.237  68.302  1.00  0.00    -0.143 C  
HETATM    3  C   UNL     1      -6.827  10.747  68.803  1.00  0.00    -0.067 C  
ENDROOT
BRANCH   2   4
HETATM    4  N   UNL     1      -8.283  12.702  68.248  1.00  0.00    -0.164 NA 
HETATM    5  C   UNL     1      -8.908  13.487  67.284  1.00  0.00    -0.224 A  
HETATM    6  C   UNL     1      -6.839  15.515  70.940  1.00  0.00     1.094 A  
HETATM    7  C   UNL     1      -8.864  14.821  67.724  1.00  0.00    -0.175 A  
HETATM    8  C   UNL     1      -6.442  14.206  71.158  1.00  0.00     0.364 A  
HETATM    9  C   UNL     1      -7.699  13.513  69.213  1.00  0.00     0.345 A  
HETATM   10  C   UNL     1      -8.090  14.830  68.945  1.00  0.00    -0.160 A  
HETATM   11  C   UNL     1      -7.668  15.831  69.857  1.00  0.00     0.239 A  
HETATM   12  C   UNL     1      -6.875  13.188  70.309  1.00  0.00     0.768 A  
BRANCH   5  13
HETATM   13  C   UNL     1      -9.498  12.867  66.146  1.00  0.00    -0.161 C  
HETATM   14  C   UNL     1     -10.241  11.752  66.244  1.00  0.00    -0.255 C  
BRANCH  14  15
HETATM   15  C   UNL     1     -10.926  11.097  65.076  1.00  0.00    -0.104 C  
HETATM   16  H   UNL     1     -12.168   9.645  64.881  1.00  0.00     0.000 HD 
HETATM   17  O   UNL     1     -11.735  10.058  65.619  1.00  0.00     2.159 OA 
BRANCH  15  18
HETATM   18  C   UNL     1      -9.913  10.542  64.064  1.00  0.00    -0.363 C  
BRANCH  18  19
HETATM   19  C   UNL     1      -9.293   9.198  64.490  1.00  0.00     0.233 C  
HETATM   20  O   UNL     1      -7.975   9.407  65.024  1.00  0.00    -0.110 OA 
HETATM   21  H   UNL     1      -7.593   8.578  65.287  1.00  0.00     0.000 HD 
BRANCH  19  22
HETATM   22  C   UNL     1      -9.194   8.199  63.339  1.00  0.00     1.589 C  
HETATM   23  C   UNL     1      -8.144   7.124  63.511  1.00  0.00     0.001 C  
HETATM   24  O   UNL     1      -7.999   6.668  64.774  1.00  0.00    -0.114 OA 
HETATM   25  O   UNL     1      -7.533   6.640  62.570  1.00  0.00    -0.061 OA 
ENDBRANCH  19  22
ENDBRANCH  18  19
ENDBRANCH  15  18
ENDBRANCH  14  15
ENDBRANCH   5  13
BRANCH   7  26
HETATM   26  C   UNL     1      -9.450  15.960  66.983  1.00  0.00    -0.234 A  
HETATM   27  C   UNL     1     -11.009  17.846  66.885  1.00  0.00     0.105 A  
HETATM   28  C   UNL     1      -9.491  17.472  65.057  1.00  0.00     2.483 A  
HETATM   29  C   UNL     1     -10.491  18.220  65.656  1.00  0.00    -0.095 A  
HETATM   30  C   UNL     1     -10.477  16.735  67.551  1.00  0.00    -0.319 A  
HETATM   31  C   UNL     1      -8.997  16.333  65.704  1.00  0.00     0.158 A  
HETATM   32  F   UNL     1     -10.957  19.316  65.044  1.00  0.00    -0.353 F  
ENDBRANCH   7  26
ENDBRANCH   2   4
TORSDOF 7
ENDMDL
MODEL      220
REMARK 921   NORMALIZED FREE ENERGY PREDICTED BY IDOCK:   13.05 KCAL/MOL
REMARK 922        TOTAL FREE ENERGY PREDICTED BY IDOCK:   16.68 KCAL/MOL
REMARK 923 INTER-LIGAND FREE ENERGY PREDICTED BY IDOCK:   16.01 KCAL/MOL
REMARK 924 INTRA-LIGAND FREE ENERGY PREDICTED BY IDOCK:    0.67 KCAL/MOL
REMARK 927      BINDING AFFINITY PREDICTED BY RF-SCORE:    0.00 PKD
ROOT
HETATM    1  C   UNL     1     -12.148  15.689  68.730  1.00  0.00    -0.131 C  
HETATM    2  C   UNL     1     -10.775  15.053  68.971  1.00  0.00    -0.239 C  
HETATM    3  C   UNL     1     -10.378  14.919  70.442  1.00  0.00     0.168 C  
ENDROOT
BRANCH   2   4
HETATM    4  N   UNL     1     -10.526  13.829  68.197  1.00  0.00    -0.243 NA 
HETATM    5  C   UNL     1     -10.412  12.524  68.666  1.00  0.00    -0.200 A  
HETATM    6  C   UNL     1     -10.064  13.383  64.094  1.00  0.00     0.217 A  
HETATM    7  C   UNL     1     -10.317  11.675  67.551  1.00  0.00    -0.220 A  
HETATM    8  C   UNL     1     -10.110  14.686  64.562  1.00  0.00     0.452 A  
HETATM    9  C   UNL     1     -10.346  13.854  66.819  1.00  0.00    -0.272 A  
HETATM   10  C   UNL     1     -10.269  12.527  66.383  1.00  0.00    -0.260 A  
HETATM   11  C   UNL     1     -10.159  12.307  64.987  1.00  0.00    -0.277 A  
HETATM   12  C   UNL     1     -10.264  14.939  65.924  1.00  0.00    -0.333 A  
BRANCH   5  13
HETATM   13  C   UNL     1     -10.472  12.273  70.066  1.00  0.00     1.488 C  
HETATM   14  C   UNL     1     -11.543  12.602  70.807  1.00  0.00     0.676 C  
BRANCH  14  15
HETATM   15  C   UNL     1     -11.669  12.304  72.276  1.00  0.00     4.198 C  
HETATM   16  H   UNL     1     -10.790  12.937  73.862  1.00  0.00     0.000 HD 
HETATM   17  O   UNL     1     -10.710  13.126  72.934  1.00  0.00     8.237 OA 
BRANCH  15  18
HETATM   18  C   UNL     1     -11.425  10.817  72.574  1.00  0.00     4.655 C  
BRANCH  18  19
HETATM   19  C   UNL     1     -12.477   9.884  71.945  1.00  0.00    -0.347 C  
HETATM   20  O   UNL     1     -13.407   9.439  72.947  1.00  0.00    -0.576 OA 
HETATM   21  H   UNL     1     -14.055   8.863  72.559  1.00  0.00     0.000 HD 
BRANCH  19  22
HETATM   22  C   UNL     1     -11.857   8.656  71.281  1.00  0.00    -0.344 C  
HETATM   23  C   UNL     1     -12.817   7.516  71.020  1.00  0.00    -0.135 C  
HETATM   24  O   UNL     1     -14.059   7.892  70.648  1.00  0.00     0.291 OA 
HETATM   25  O   UNL     1     -12.475   6.343  71.057  1.00  0.00    -0.134 OA 
ENDBRANCH  19  22
ENDBRANCH  18  19
ENDBRANCH  15  18
ENDBRANCH  14  15
ENDBRANCH   5  13
BRANCH   7  26
HETATM   26  C   UNL     1     -10.206  10.202  67.635  1.00  0.00    -0.246 A  
HETATM   27  C   UNL     1      -9.226   8.206  68.662  1.00  0.00    -0.143 A  
HETATM   28  C   UNL     1     -10.957   7.956  67.009  1.00  0.00     0.064 A  
HETATM   29  C   UNL     1     -10.071   7.399  67.917  1.00  0.00    -0.178 A  
HETATM   30  C   UNL     1      -9.309   9.598  68.534  1.00  0.00    -0.138 A  
HETATM   31  C   UNL     1     -11.000   9.346  66.849  1.00  0.00     0.102 A  
HETATM   32  F   UNL     1     -10.036   6.070  68.080  1.00  0.00    -0.122 F  
ENDBRANCH   7  26
ENDBRANCH   2   4
TORSDOF 7
ENDMDL
MODEL      221
REMARK 921   NORMALIZED FREE ENERGY PREDICTED BY IDOCK:   26.15 KCAL/MOL
REMARK 922        TOTAL FREE ENERGY PREDICTED BY IDOCK:   35.14 KCAL/MOL
REMARK 923 INTER-LIGAND FREE ENERGY PREDICTED BY IDOCK:   28.93 KCAL/MOL
REMARK 924 INTRA-LIGAND FREE ENERGY PREDICTED BY IDOCK:    6.22 KCAL/MOL
REMARK 927      BINDING AFFINITY PREDICTED BY RF-SCORE:    0.00 PKD
ROOT
HETATM    1  C   UNL     1      -5.232  19.814  65.468  1.00  0.00    -0.180 C  
HETATM    2  C   UNL     1      -6.463  20.499  66.070  1.00  0.00    -0.229 C  
HETATM    3  C   UNL     1      -7.543  20.886  65.059  1.00  0.00     0.768 C  
ENDROOT
BRANCH   2   4
HETATM    4  N   UNL     1      -7.006  19.835  67.263  1.00  0.00    -0.203 NA 
HETATM    5  C   UNL     1      -8.064  18.934  67.337  1.00  0.00    -0.261 A  
HETATM    6  C   UNL     1      -5.744  20.110  71.209  1.00  0.00    -0.367 A  
HETATM    7  C   UNL     1      -8.131  18.459  68.658  1.00  0.00    -0.319 A  
HETATM    8  C   UNL     1      -5.153  20.992  70.320  1.00  0.00    -0.332 A  
HETATM    9  C   UNL     1      -6.496  20.071  68.533  1.00  0.00    -0.295 A  
HETATM   10  C   UNL     1      -7.137  19.190  69.412  1.00  0.00    -0.248 A  
HETATM   11  C   UNL     1      -6.715  19.203  70.766  1.00  0.00     0.818 A  
HETATM   12  C   UNL     1      -5.510  20.976  68.972  1.00  0.00    -0.373 A  
BRANCH   5  13
HETATM   13  C   UNL     1      -8.799  18.613  66.161  1.00  0.00    -0.132 C  
HETATM   14  C   UNL     1      -8.375  17.691  65.281  1.00  0.00     1.970 C  
BRANCH  14  15
HETATM   15  C   UNL     1      -9.147  17.284  64.056  1.00  0.00    10.699 C  
HETATM   16  H   UNL     1     -10.822  17.814  63.278  1.00  0.00     0.000 HD 
HETATM   17  O   UNL     1     -10.334  18.072  64.052  1.00  0.00     4.041 OA 
BRANCH  15  18
HETATM   18  C   UNL     1      -9.476  15.784  64.068  1.00  0.00     6.629 C  
BRANCH  18  19
HETATM   19  C   UNL     1      -9.520  15.175  65.482  1.00  0.00    -0.070 C  
HETATM   20  O   UNL     1      -9.077  16.140  66.451  1.00  0.00    -0.248 OA 
HETATM   21  H   UNL     1      -9.104  15.765  67.322  1.00  0.00     0.000 HD 
BRANCH  19  22
HETATM   22  C   UNL     1      -8.653  13.924  65.615  1.00  0.00     1.833 C  
HETATM   23  C   UNL     1      -7.560  14.011  66.657  1.00  0.00     1.085 C  
HETATM   24  O   UNL     1      -7.894  14.686  67.778  1.00  0.00    -0.127 OA 
HETATM   25  O   UNL     1      -6.486  13.440  66.536  1.00  0.00     1.085 OA 
ENDBRANCH  19  22
ENDBRANCH  18  19
ENDBRANCH  15  18
ENDBRANCH  14  15
ENDBRANCH   5  13
BRANCH   7  26
HETATM   26  C   UNL     1      -9.112  17.460  69.134  1.00  0.00     0.039 A  
HETATM   27  C   UNL     1     -10.899  15.853  68.661  1.00  0.00    -0.291 A  
HETATM   28  C   UNL     1     -10.055  16.055  70.905  1.00  0.00     1.191 A  
HETATM   29  C   UNL     1     -10.900  15.452  69.987  1.00  0.00    -0.305 A  
HETATM   30  C   UNL     1      -9.997  16.836  68.236  1.00  0.00    -0.273 A  
HETATM   31  C   UNL     1      -9.191  17.073  70.485  1.00  0.00     3.315 A  
HETATM   32  F   UNL     1     -11.720  14.471  70.384  1.00  0.00    -0.294 F  
ENDBRANCH   7  26
ENDBRANCH   2   4
TORSDOF 7
ENDMDL
MODEL      222
REMARK 921   NORMALIZED FREE ENERGY PREDICTED BY IDOCK:   58.45 KCAL/MOL
REMARK 922        TOTAL FREE ENERGY PREDICTED BY IDOCK:   80.66 KCAL/MOL
REMARK 923 INTER-LIGAND FREE ENERGY PREDICTED BY IDOCK:   81.12 KCAL/MOL
REMARK 924 INTRA-LIGAND FREE ENERGY PREDICTED BY IDOCK:   -0.46 KCAL/MOL
REMARK 927      BINDING AFFINITY PREDICTED BY RF-SCORE:    0.00 PKD
ROOT
HETATM    1  C   UNL     1      -8.138  10.527  65.838  1.00  0.00    -0.154 C  
HETATM    2  C   UNL     1      -7.308  10.974  67.045  1.00  0.00    -0.123 C  
HETATM    3  C   UNL     1      -5.873  10.444  67.070  1.00  0.00    -0.051 C  
ENDROOT
BRANCH   2   4
HETATM    4  N   UNL     1      -7.393  12.409  67.346  1.00  0.00    -0.144 NA 
HETATM    5  C   UNL     1      -7.546  13.019  68.588  1.00  0.00    -0.089 A  
HETATM    6  C   UNL     1      -7.170  15.641  64.748  1.00  0.00    11.555 A  
HETATM    7  C   UNL     1      -7.434  14.407  68.400  1.00  0.00    -0.119 A  
HETATM    8  C   UNL     1      -7.237  14.390  64.157  1.00  0.00    20.668 A  
HETATM    9  C   UNL     1      -7.348  13.374  66.348  1.00  0.00     2.098 A  
HETATM   10  C   UNL     1      -7.315  14.624  66.975  1.00  0.00     0.225 A  
HETATM   11  C   UNL     1      -7.191  15.766  66.143  1.00  0.00     1.627 A  
HETATM   12  C   UNL     1      -7.314  13.243  64.945  1.00  0.00    10.407 A  
BRANCH   5  13
HETATM   13  C   UNL     1      -7.707  12.214  69.752  1.00  0.00     1.237 C  
HETATM   14  C   UNL     1      -6.660  11.790  70.479  1.00  0.00     0.764 C  
BRANCH  14  15
HETATM   15  C   UNL     1      -6.790  10.986  71.743  1.00  0.00     3.793 C  
HETATM   16  H   UNL     1      -5.704   9.668  72.621  1.00  0.00     0.000 HD 
HETATM   17  O   UNL     1      -5.622  10.175  71.822  1.00  0.00    -0.255 OA 
BRANCH  15  18
HETATM   18  C   UNL     1      -8.064  10.128  71.740  1.00  0.00     3.478 C  
BRANCH  18  19
HETATM   19  C   UNL     1      -7.991   8.924  70.784  1.00  0.00    -0.131 C  
HETATM   20  O   UNL     1      -8.623   9.245  69.533  1.00  0.00    -0.130 OA 
HETATM   21  H   UNL     1      -8.578   8.501  68.944  1.00  0.00     0.000 HD 
BRANCH  19  22
HETATM   22  C   UNL     1      -8.656   7.672  71.354  1.00  0.00    -0.127 C  
HETATM   23  C   UNL     1      -7.737   6.755  72.129  1.00  0.00    -0.095 C  
HETATM   24  O   UNL     1      -6.801   7.383  72.873  1.00  0.00    -0.063 OA 
HETATM   25  O   UNL     1      -7.881   5.542  72.154  1.00  0.00    -0.103 OA 
ENDBRANCH  19  22
ENDBRANCH  18  19
ENDBRANCH  15  18
ENDBRANCH  14  15
ENDBRANCH   5  13
BRANCH   7  26
HETATM   26  C   UNL     1      -7.516  15.402  69.491  1.00  0.00    -0.211 A  
HETATM   27  C   UNL     1      -6.916  17.593  70.409  1.00  0.00     1.709 A  
HETATM   28  C   UNL     1      -8.454  16.188  71.613  1.00  0.00     7.558 A  
HETATM   29  C   UNL     1      -7.759  17.379  71.488  1.00  0.00     8.695 A  
HETATM   30  C   UNL     1      -6.813  16.618  69.409  1.00  0.00    -0.218 A  
HETATM   31  C   UNL     1      -8.308  15.196  70.635  1.00  0.00     1.677 A  
HETATM   32  F   UNL     1      -7.905  18.334  72.416  1.00  0.00     7.643 F  
ENDBRANCH   7  26
ENDBRANCH   2   4
TORSDOF 7
ENDMDL
