MODEL        1
REMARK 921   NORMALIZED FREE ENERGY PREDICTED BY IDOCK:   -6.88 KCAL/MOL
REMARK 922        TOTAL FREE ENERGY PREDICTED BY IDOCK:  -11.59 KCAL/MOL
REMARK 923 INTER-LIGAND FREE ENERGY PREDICTED BY IDOCK:  -10.10 KCAL/MOL
REMARK 924 INTRA-LIGAND FREE ENERGY PREDICTED BY IDOCK:   -1.49 KCAL/MOL
REMARK 927      BINDING AFFINITY PREDICTED BY RF-SCORE:    0.00 PKD
ROOT
HETATM    1  C   UNL     1     -13.809  15.610  72.774  1.00  0.00    -0.545 C  
HETATM    2  O   UNL     1     -13.743  14.193  72.908  1.00  0.00    -0.658 OA 
ENDROOT
BRANCH   2   3
HETATM    3  C   UNL     1     -13.169  13.544  71.850  1.00  0.00    -0.422 A  
HETATM    4  C   UNL     1     -12.683  14.359  70.828  1.00  0.00    -0.427 A  
HETATM    5  C   UNL     1     -12.118  13.794  69.682  1.00  0.00    -0.392 A  
HETATM    6  C   UNL     1     -12.005  12.403  69.562  1.00  0.00    -0.324 A  
HETATM    7  C   UNL     1     -13.027  12.163  71.752  1.00  0.00    -0.437 A  
HETATM    8  C   UNL     1     -12.451  11.595  70.614  1.00  0.00    -0.386 A  
BRANCH   6   9
HETATM    9  C   UNL     1     -11.529  11.758  68.282  1.00  0.00    -0.370 C  
BRANCH   9  10
HETATM   10  C   UNL     1     -10.254  10.886  68.387  1.00  0.00    -0.178 C  
HETATM   11  C   UNL     1      -9.893  10.294  67.020  1.00  0.00    -0.238 C  
BRANCH  10  12
HETATM   12  N   UNL     1      -9.078  11.635  68.880  1.00  0.00    -0.396 NA 
HETATM   13  H   UNL     1      -8.390  11.004  69.291  1.00  0.00     0.000 HD 
BRANCH  12  14
HETATM   14  C   UNL     1      -8.465  12.481  67.848  1.00  0.00    -0.171 C  
BRANCH  14  15
HETATM   15  C   UNL     1      -8.641  14.001  68.102  1.00  0.00    -0.181 C  
HETATM   16  H   UNL     1      -7.459  15.544  68.390  1.00  0.00     0.000 HD 
HETATM   17  O   UNL     1      -7.351  14.613  68.234  1.00  0.00    -0.102 OA 
BRANCH  15  18
HETATM   18  C   UNL     1      -9.414  14.657  66.964  1.00  0.00    -0.249 A  
HETATM   19  C   UNL     1     -10.073  13.881  65.987  1.00  0.00    -0.324 A  
HETATM   20  C   UNL     1     -10.810  14.475  64.957  1.00  0.00    -0.412 A  
HETATM   21  H   UNL     1     -11.608  17.478  63.890  1.00  0.00     0.000 HD 
HETATM   22  C   UNL     1     -10.890  15.872  64.916  1.00  0.00    -0.400 A  
HETATM   23  C   UNL     1      -9.512  16.052  66.891  1.00  0.00    -0.242 A  
HETATM   24  C   UNL     1     -10.255  16.655  65.875  1.00  0.00    -0.358 A  
HETATM   25  O   UNL     1     -11.553  16.530  63.918  1.00  0.00    -1.175 OA 
BRANCH  20  26
HETATM   26  N   UNL     1     -11.497  13.718  63.989  1.00  0.00    -0.608 N  
HETATM   27  H   UNL     1     -11.576  14.132  63.061  1.00  0.00     0.000 HD 
HETATM   28  O   UNL     1     -12.676  11.923  63.255  1.00  0.00    -0.654 OA 
HETATM   29  C   UNL     1     -12.067  12.491  64.156  1.00  0.00    -0.447 C  
ENDBRANCH  20  26
ENDBRANCH  15  18
ENDBRANCH  14  15
ENDBRANCH  12  14
ENDBRANCH  10  12
ENDBRANCH   9  10
ENDBRANCH   6   9
ENDBRANCH   2   3
TORSDOF 8
ENDMDL
MODEL        2
REMARK 921   NORMALIZED FREE ENERGY PREDICTED BY IDOCK:   -6.71 KCAL/MOL
REMARK 922        TOTAL FREE ENERGY PREDICTED BY IDOCK:  -11.34 KCAL/MOL
REMARK 923 INTER-LIGAND FREE ENERGY PREDICTED BY IDOCK:   -9.82 KCAL/MOL
REMARK 924 INTRA-LIGAND FREE ENERGY PREDICTED BY IDOCK:   -1.52 KCAL/MOL
REMARK 927      BINDING AFFINITY PREDICTED BY RF-SCORE:    0.00 PKD
ROOT
HETATM    1  C   UNL     1      -7.079  19.360  65.709  1.00  0.00    -0.290 C  
HETATM    2  O   UNL     1      -7.487  18.006  65.532  1.00  0.00    -0.538 OA 
ENDROOT
BRANCH   2   3
HETATM    3  C   UNL     1      -8.486  17.595  66.369  1.00  0.00    -0.246 A  
HETATM    4  C   UNL     1      -8.384  16.287  66.841  1.00  0.00    -0.267 A  
HETATM    5  C   UNL     1      -9.377  15.755  67.667  1.00  0.00    -0.216 A  
HETATM    6  C   UNL     1     -10.469  16.541  68.057  1.00  0.00    -0.313 A  
HETATM    7  C   UNL     1      -9.550  18.392  66.782  1.00  0.00    -0.308 A  
HETATM    8  C   UNL     1     -10.538  17.868  67.619  1.00  0.00    -0.398 A  
BRANCH   6   9
HETATM    9  C   UNL     1     -11.626  15.955  68.832  1.00  0.00    -0.392 C  
BRANCH   9  10
HETATM   10  C   UNL     1     -11.290  15.367  70.224  1.00  0.00    -0.311 C  
HETATM   11  C   UNL     1     -12.309  15.838  71.267  1.00  0.00    -0.493 C  
BRANCH  10  12
HETATM   12  N   UNL     1     -11.275  13.888  70.241  1.00  0.00    -0.472 NA 
HETATM   13  H   UNL     1     -11.621  13.531  71.131  1.00  0.00     0.000 HD 
BRANCH  12  14
HETATM   14  C   UNL     1     -12.012  13.297  69.116  1.00  0.00    -0.296 C  
BRANCH  14  15
HETATM   15  C   UNL     1     -11.439  11.935  68.644  1.00  0.00    -0.294 C  
HETATM   16  H   UNL     1     -12.038  10.063  68.636  1.00  0.00     0.000 HD 
HETATM   17  O   UNL     1     -12.389  10.898  68.925  1.00  0.00    -0.486 OA 
BRANCH  15  18
HETATM   18  C   UNL     1     -11.127  11.963  67.153  1.00  0.00    -0.347 A  
HETATM   19  C   UNL     1     -11.437  13.092  66.364  1.00  0.00    -0.384 A  
HETATM   20  C   UNL     1     -11.125  13.138  65.001  1.00  0.00    -0.301 A  
HETATM   21  H   UNL     1      -9.751  11.234  62.704  1.00  0.00     0.000 HD 
HETATM   22  C   UNL     1     -10.484  12.034  64.427  1.00  0.00    -0.312 A  
HETATM   23  C   UNL     1     -10.489  10.875  66.545  1.00  0.00    -0.308 A  
HETATM   24  C   UNL     1     -10.161  10.916  65.189  1.00  0.00    -0.360 A  
HETATM   25  O   UNL     1     -10.186  11.983  63.094  1.00  0.00    -0.410 OA 
BRANCH  20  26
HETATM   26  N   UNL     1     -11.402  14.265  64.204  1.00  0.00    -0.608 N  
HETATM   27  H   UNL     1     -11.550  14.092  63.210  1.00  0.00     0.000 HD 
HETATM   28  O   UNL     1     -11.708  16.482  63.832  1.00  0.00    -1.148 OA 
HETATM   29  C   UNL     1     -11.493  15.561  64.613  1.00  0.00    -0.324 C  
ENDBRANCH  20  26
ENDBRANCH  15  18
ENDBRANCH  14  15
ENDBRANCH  12  14
ENDBRANCH  10  12
ENDBRANCH   9  10
ENDBRANCH   6   9
ENDBRANCH   2   3
TORSDOF 8
ENDMDL
MODEL        3
REMARK 921   NORMALIZED FREE ENERGY PREDICTED BY IDOCK:   -6.65 KCAL/MOL
REMARK 922        TOTAL FREE ENERGY PREDICTED BY IDOCK:  -11.26 KCAL/MOL
REMARK 923 INTER-LIGAND FREE ENERGY PREDICTED BY IDOCK:   -9.94 KCAL/MOL
REMARK 924 INTRA-LIGAND FREE ENERGY PREDICTED BY IDOCK:   -1.31 KCAL/MOL
REMARK 927      BINDING AFFINITY PREDICTED BY RF-SCORE:    0.00 PKD
ROOT
HETATM    1  C   UNL     1     -13.058  15.919  73.397  1.00  0.00    -0.587 C  
HETATM    2  O   UNL     1     -13.414  15.637  72.047  1.00  0.00    -0.452 OA 
ENDROOT
BRANCH   2   3
HETATM    3  C   UNL     1     -13.098  14.376  71.624  1.00  0.00    -0.350 A  
HETATM    4  C   UNL     1     -13.628  13.330  72.380  1.00  0.00    -0.694 A  
HETATM    5  C   UNL     1     -13.329  12.004  72.058  1.00  0.00    -0.447 A  
HETATM    6  C   UNL     1     -12.520  11.709  70.953  1.00  0.00    -0.440 A  
HETATM    7  C   UNL     1     -12.324  14.088  70.503  1.00  0.00    -0.437 A  
HETATM    8  C   UNL     1     -12.034  12.763  70.171  1.00  0.00    -0.371 A  
BRANCH   6   9
HETATM    9  C   UNL     1     -12.066  10.299  70.662  1.00  0.00    -0.433 C  
BRANCH   9  10
HETATM   10  C   UNL     1     -10.835  10.153  69.734  1.00  0.00    -0.279 C  
HETATM   11  C   UNL     1      -9.763   9.281  70.396  1.00  0.00    -0.293 C  
BRANCH  10  12
HETATM   12  N   UNL     1     -11.164   9.551  68.424  1.00  0.00    -0.489 NA 
HETATM   13  H   UNL     1     -12.168   9.594  68.246  1.00  0.00     0.000 HD 
BRANCH  12  14
HETATM   14  C   UNL     1     -10.407  10.145  67.315  1.00  0.00    -0.237 C  
BRANCH  14  15
HETATM   15  C   UNL     1      -9.918  11.590  67.598  1.00  0.00    -0.184 C  
HETATM   16  H   UNL     1      -8.201  12.544  67.569  1.00  0.00     0.000 HD 
HETATM   17  O   UNL     1      -8.501  11.659  67.396  1.00  0.00    -0.140 OA 
BRANCH  15  18
HETATM   18  C   UNL     1     -10.623  12.590  66.689  1.00  0.00    -0.259 A  
HETATM   19  C   UNL     1     -10.080  13.872  66.456  1.00  0.00    -0.286 A  
HETATM   20  C   UNL     1     -10.704  14.785  65.599  1.00  0.00    -0.336 A  
HETATM   21  H   UNL     1     -13.386  14.982  63.712  1.00  0.00     0.000 HD 
HETATM   22  C   UNL     1     -11.888  14.397  64.961  1.00  0.00    -0.400 A  
HETATM   23  C   UNL     1     -11.811  12.236  66.038  1.00  0.00    -0.409 A  
HETATM   24  C   UNL     1     -12.435  13.134  65.171  1.00  0.00    -0.539 A  
HETATM   25  O   UNL     1     -12.582  15.245  64.144  1.00  0.00    -0.681 OA 
BRANCH  20  26
HETATM   26  N   UNL     1     -10.164  16.057  65.333  1.00  0.00    -0.348 N  
HETATM   27  H   UNL     1      -9.706  16.175  64.429  1.00  0.00     0.000 HD 
HETATM   28  O   UNL     1      -9.656  18.210  65.839  1.00  0.00    -0.519 OA 
HETATM   29  C   UNL     1     -10.186  17.148  66.149  1.00  0.00    -0.334 C  
ENDBRANCH  20  26
ENDBRANCH  15  18
ENDBRANCH  14  15
ENDBRANCH  12  14
ENDBRANCH  10  12
ENDBRANCH   9  10
ENDBRANCH   6   9
ENDBRANCH   2   3
TORSDOF 8
ENDMDL
MODEL        4
REMARK 921   NORMALIZED FREE ENERGY PREDICTED BY IDOCK:   -6.51 KCAL/MOL
REMARK 922        TOTAL FREE ENERGY PREDICTED BY IDOCK:  -11.06 KCAL/MOL
REMARK 923 INTER-LIGAND FREE ENERGY PREDICTED BY IDOCK:   -9.65 KCAL/MOL
REMARK 924 INTRA-LIGAND FREE ENERGY PREDICTED BY IDOCK:   -1.41 KCAL/MOL
REMARK 927      BINDING AFFINITY PREDICTED BY RF-SCORE:    0.00 PKD
ROOT
HETATM    1  C   UNL     1     -13.487  15.703  72.974  1.00  0.00    -0.562 C  
HETATM    2  O   UNL     1     -13.779  14.309  73.003  1.00  0.00    -0.613 OA 
ENDROOT
BRANCH   2   3
HETATM    3  C   UNL     1     -13.229  13.588  71.981  1.00  0.00    -0.439 A  
HETATM    4  C   UNL     1     -12.676  14.332  70.939  1.00  0.00    -0.427 A  
HETATM    5  C   UNL     1     -12.128  13.691  69.826  1.00  0.00    -0.396 A  
HETATM    6  C   UNL     1     -12.098  12.292  69.759  1.00  0.00    -0.298 A  
HETATM    7  C   UNL     1     -13.169  12.197  71.936  1.00  0.00    -0.474 A  
HETATM    8  C   UNL     1     -12.610  11.553  70.831  1.00  0.00    -0.438 A  
BRANCH   6   9
HETATM    9  C   UNL     1     -11.641  11.572  68.512  1.00  0.00    -0.377 C  
BRANCH   9  10
HETATM   10  C   UNL     1     -10.408  10.649  68.667  1.00  0.00    -0.186 C  
HETATM   11  C   UNL     1     -10.211   9.798  67.408  1.00  0.00    -0.284 C  
BRANCH  10  12
HETATM   12  N   UNL     1      -9.153  11.394  68.910  1.00  0.00    -0.377 NA 
HETATM   13  H   UNL     1      -8.391  10.758  69.144  1.00  0.00     0.000 HD 
BRANCH  12  14
HETATM   14  C   UNL     1      -8.782  12.270  67.791  1.00  0.00    -0.174 C  
BRANCH  14  15
HETATM   15  C   UNL     1      -8.892  13.782  68.120  1.00  0.00    -0.185 C  
HETATM   16  H   UNL     1      -7.645  15.253  68.494  1.00  0.00     0.000 HD 
HETATM   17  O   UNL     1      -7.578  14.327  68.292  1.00  0.00    -0.111 OA 
BRANCH  15  18
HETATM   18  C   UNL     1      -9.623  14.528  67.010  1.00  0.00    -0.250 A  
HETATM   19  C   UNL     1      -9.823  15.923  67.078  1.00  0.00    -0.236 A  
HETATM   20  C   UNL     1     -10.466  16.620  66.049  1.00  0.00    -0.298 A  
HETATM   21  H   UNL     1     -11.879  16.012  63.146  1.00  0.00     0.000 HD 
HETATM   22  C   UNL     1     -10.906  15.901  64.931  1.00  0.00    -0.400 A  
HETATM   23  C   UNL     1     -10.079  13.839  65.879  1.00  0.00    -0.325 A  
HETATM   24  C   UNL     1     -10.710  14.526  64.840  1.00  0.00    -0.448 A  
HETATM   25  O   UNL     1     -11.581  16.500  63.904  1.00  0.00    -1.175 OA 
BRANCH  20  26
HETATM   26  N   UNL     1     -10.651  18.015  66.086  1.00  0.00    -0.329 N  
HETATM   27  H   UNL     1     -11.099  18.435  65.272  1.00  0.00     0.000 HD 
HETATM   28  O   UNL     1     -10.473  20.077  67.015  1.00  0.00    -0.434 OA 
HETATM   29  C   UNL     1     -10.298  18.866  67.090  1.00  0.00    -0.413 C  
ENDBRANCH  20  26
ENDBRANCH  15  18
ENDBRANCH  14  15
ENDBRANCH  12  14
ENDBRANCH  10  12
ENDBRANCH   9  10
ENDBRANCH   6   9
ENDBRANCH   2   3
TORSDOF 8
ENDMDL
MODEL        5
REMARK 921   NORMALIZED FREE ENERGY PREDICTED BY IDOCK:   -6.49 KCAL/MOL
REMARK 922        TOTAL FREE ENERGY PREDICTED BY IDOCK:  -11.02 KCAL/MOL
REMARK 923 INTER-LIGAND FREE ENERGY PREDICTED BY IDOCK:   -9.56 KCAL/MOL
REMARK 924 INTRA-LIGAND FREE ENERGY PREDICTED BY IDOCK:   -1.46 KCAL/MOL
REMARK 927      BINDING AFFINITY PREDICTED BY RF-SCORE:    0.00 PKD
ROOT
HETATM    1  C   UNL     1     -13.958  15.383  72.386  1.00  0.00    -0.560 C  
HETATM    2  O   UNL     1     -13.625  14.087  72.875  1.00  0.00    -0.676 OA 
ENDROOT
BRANCH   2   3
HETATM    3  C   UNL     1     -13.169  13.217  71.923  1.00  0.00    -0.431 A  
HETATM    4  C   UNL     1     -13.361  11.863  72.195  1.00  0.00    -0.361 A  
HETATM    5  C   UNL     1     -12.892  10.891  71.308  1.00  0.00    -0.536 A  
HETATM    6  C   UNL     1     -12.254  11.267  70.119  1.00  0.00    -0.410 A  
HETATM    7  C   UNL     1     -12.568  13.598  70.726  1.00  0.00    -0.397 A  
HETATM    8  C   UNL     1     -12.110  12.629  69.831  1.00  0.00    -0.322 A  
BRANCH   6   9
HETATM    9  C   UNL     1     -11.614  10.245  69.210  1.00  0.00    -0.186 C  
BRANCH   9  10
HETATM   10  C   UNL     1     -10.300   9.604  69.719  1.00  0.00    -0.241 C  
HETATM   11  C   UNL     1      -9.873   8.452  68.801  1.00  0.00    -0.180 C  
BRANCH  10  12
HETATM   12  N   UNL     1      -9.177  10.563  69.793  1.00  0.00    -0.399 NA 
HETATM   13  H   UNL     1      -8.464  10.240  70.448  1.00  0.00     0.000 HD 
BRANCH  12  14
HETATM   14  C   UNL     1      -8.589  10.858  68.480  1.00  0.00    -0.152 C  
BRANCH  14  15
HETATM   15  C   UNL     1      -8.744  12.339  68.046  1.00  0.00    -0.181 C  
HETATM   16  H   UNL     1      -7.542  13.819  67.573  1.00  0.00     0.000 HD 
HETATM   17  O   UNL     1      -7.446  12.912  67.839  1.00  0.00    -0.103 OA 
BRANCH  15  18
HETATM   18  C   UNL     1      -9.570  12.449  66.770  1.00  0.00    -0.224 A  
HETATM   19  C   UNL     1      -9.965  13.705  66.262  1.00  0.00    -0.305 A  
HETATM   20  C   UNL     1     -10.697  13.815  65.075  1.00  0.00    -0.382 A  
HETATM   21  H   UNL     1     -12.004  11.867  62.775  1.00  0.00     0.000 HD 
HETATM   22  C   UNL     1     -11.029  12.643  64.385  1.00  0.00    -0.351 A  
HETATM   23  C   UNL     1      -9.922  11.296  66.057  1.00  0.00    -0.273 A  
HETATM   24  C   UNL     1     -10.641  11.395  64.864  1.00  0.00    -0.368 A  
HETATM   25  O   UNL     1     -11.779  12.663  63.243  1.00  0.00    -0.495 OA 
BRANCH  20  26
HETATM   26  N   UNL     1     -11.077  15.060  64.538  1.00  0.00    -0.643 N  
HETATM   27  H   UNL     1     -11.640  15.035  63.689  1.00  0.00     0.000 HD 
HETATM   28  O   UNL     1     -11.128  17.327  64.469  1.00  0.00    -1.082 OA 
HETATM   29  C   UNL     1     -10.776  16.295  65.029  1.00  0.00    -0.298 C  
ENDBRANCH  20  26
ENDBRANCH  15  18
ENDBRANCH  14  15
ENDBRANCH  12  14
ENDBRANCH  10  12
ENDBRANCH   9  10
ENDBRANCH   6   9
ENDBRANCH   2   3
TORSDOF 8
ENDMDL
MODEL        6
REMARK 921   NORMALIZED FREE ENERGY PREDICTED BY IDOCK:   -6.34 KCAL/MOL
REMARK 922        TOTAL FREE ENERGY PREDICTED BY IDOCK:  -10.81 KCAL/MOL
REMARK 923 INTER-LIGAND FREE ENERGY PREDICTED BY IDOCK:   -9.46 KCAL/MOL
REMARK 924 INTRA-LIGAND FREE ENERGY PREDICTED BY IDOCK:   -1.35 KCAL/MOL
REMARK 927      BINDING AFFINITY PREDICTED BY RF-SCORE:    0.00 PKD
ROOT
HETATM    1  C   UNL     1     -10.784  18.139  65.577  1.00  0.00     0.062 C  
HETATM    2  O   UNL     1     -11.158  16.989  64.824  1.00  0.00    -0.850 OA 
ENDROOT
BRANCH   2   3
HETATM    3  C   UNL     1     -10.774  15.797  65.372  1.00  0.00    -0.404 A  
HETATM    4  C   UNL     1     -11.702  14.761  65.287  1.00  0.00    -0.311 A  
HETATM    5  C   UNL     1     -11.424  13.515  65.855  1.00  0.00    -0.338 A  
HETATM    6  C   UNL     1     -10.196  13.284  66.488  1.00  0.00    -0.283 A  
HETATM    7  C   UNL     1      -9.537  15.563  65.969  1.00  0.00    -0.380 A  
HETATM    8  C   UNL     1      -9.251  14.315  66.526  1.00  0.00    -0.259 A  
BRANCH   6   9
HETATM    9  C   UNL     1      -9.922  11.998  67.231  1.00  0.00    -0.205 C  
BRANCH   9  10
HETATM   10  C   UNL     1     -10.793  10.780  66.838  1.00  0.00    -0.229 C  
HETATM   11  C   UNL     1      -9.911   9.620  66.363  1.00  0.00    -0.323 C  
BRANCH  10  12
HETATM   12  N   UNL     1     -11.633  10.285  67.950  1.00  0.00    -0.670 NA 
HETATM   13  H   UNL     1     -11.885   9.307  67.809  1.00  0.00     0.000 HD 
BRANCH  12  14
HETATM   14  C   UNL     1     -11.013  10.484  69.267  1.00  0.00    -0.244 C  
BRANCH  14  15
HETATM   15  C   UNL     1     -12.025  10.455  70.442  1.00  0.00    -0.320 C  
HETATM   16  H   UNL     1     -12.051   9.770  72.284  1.00  0.00     0.000 HD 
HETATM   17  O   UNL     1     -11.431   9.788  71.564  1.00  0.00    -0.378 OA 
BRANCH  15  18
HETATM   18  C   UNL     1     -12.441  11.866  70.837  1.00  0.00    -0.397 A  
HETATM   19  C   UNL     1     -12.104  12.978  70.035  1.00  0.00    -0.367 A  
HETATM   20  C   UNL     1     -12.508  14.274  70.375  1.00  0.00    -0.362 A  
HETATM   21  H   UNL     1     -14.185  15.808  72.747  1.00  0.00     0.000 HD 
HETATM   22  C   UNL     1     -13.271  14.450  71.535  1.00  0.00    -0.346 A  
HETATM   23  C   UNL     1     -13.202  12.080  71.993  1.00  0.00    -0.481 A  
HETATM   24  C   UNL     1     -13.622  13.366  72.335  1.00  0.00    -0.708 A  
HETATM   25  O   UNL     1     -13.667  15.688  71.959  1.00  0.00    -0.476 OA 
BRANCH  20  26
HETATM   26  N   UNL     1     -12.205  15.390  69.574  1.00  0.00    -0.543 N  
HETATM   27  H   UNL     1     -12.943  15.716  68.951  1.00  0.00     0.000 HD 
HETATM   28  O   UNL     1     -10.853  17.030  68.778  1.00  0.00    -0.322 OA 
HETATM   29  C   UNL     1     -11.033  16.085  69.539  1.00  0.00    -0.326 C  
ENDBRANCH  20  26
ENDBRANCH  15  18
ENDBRANCH  14  15
ENDBRANCH  12  14
ENDBRANCH  10  12
ENDBRANCH   9  10
ENDBRANCH   6   9
ENDBRANCH   2   3
TORSDOF 8
ENDMDL
MODEL        7
REMARK 921   NORMALIZED FREE ENERGY PREDICTED BY IDOCK:   -6.30 KCAL/MOL
REMARK 922        TOTAL FREE ENERGY PREDICTED BY IDOCK:  -10.74 KCAL/MOL
REMARK 923 INTER-LIGAND FREE ENERGY PREDICTED BY IDOCK:   -9.48 KCAL/MOL
REMARK 924 INTRA-LIGAND FREE ENERGY PREDICTED BY IDOCK:   -1.26 KCAL/MOL
REMARK 927      BINDING AFFINITY PREDICTED BY RF-SCORE:    0.00 PKD
ROOT
HETATM    1  C   UNL     1     -12.385  14.963  64.332  1.00  0.00    -0.323 C  
HETATM    2  O   UNL     1     -12.449  13.636  63.817  1.00  0.00    -0.703 OA 
ENDROOT
BRANCH   2   3
HETATM    3  C   UNL     1     -11.800  12.698  64.570  1.00  0.00    -0.379 A  
HETATM    4  C   UNL     1     -11.939  12.825  65.952  1.00  0.00    -0.506 A  
HETATM    5  C   UNL     1     -11.280  11.944  66.812  1.00  0.00    -0.384 A  
HETATM    6  C   UNL     1     -10.499  10.902  66.295  1.00  0.00    -0.304 A  
HETATM    7  C   UNL     1     -11.055  11.643  64.050  1.00  0.00    -0.458 A  
HETATM    8  C   UNL     1     -10.405  10.752  64.907  1.00  0.00    -0.369 A  
BRANCH   6   9
HETATM    9  C   UNL     1      -9.664  10.021  67.194  1.00  0.00    -0.217 C  
BRANCH   9  10
HETATM   10  C   UNL     1     -10.365   9.479  68.464  1.00  0.00    -0.207 C  
HETATM   11  C   UNL     1     -10.161   7.965  68.585  1.00  0.00    -0.223 C  
BRANCH  10  12
HETATM   12  N   UNL     1      -9.870  10.103  69.710  1.00  0.00    -0.323 NA 
HETATM   13  H   UNL     1      -9.614  11.078  69.552  1.00  0.00     0.000 HD 
BRANCH  12  14
HETATM   14  C   UNL     1     -10.819   9.982  70.825  1.00  0.00    -0.260 C  
BRANCH  14  15
HETATM   15  C   UNL     1     -12.274  10.368  70.450  1.00  0.00    -0.303 C  
HETATM   16  H   UNL     1     -14.076   9.720  70.886  1.00  0.00     0.000 HD 
HETATM   17  O   UNL     1     -13.185   9.484  71.116  1.00  0.00    -0.335 OA 
BRANCH  15  18
HETATM   18  C   UNL     1     -12.572  11.811  70.838  1.00  0.00    -0.384 A  
HETATM   19  C   UNL     1     -12.235  12.881  69.982  1.00  0.00    -0.292 A  
HETATM   20  C   UNL     1     -12.533  14.207  70.317  1.00  0.00    -0.353 A  
HETATM   21  H   UNL     1     -13.918  15.894  72.772  1.00  0.00     0.000 HD 
HETATM   22  C   UNL     1     -13.188  14.456  71.529  1.00  0.00    -0.346 A  
HETATM   23  C   UNL     1     -13.223  12.096  72.044  1.00  0.00    -0.496 A  
HETATM   24  C   UNL     1     -13.537  13.414  72.383  1.00  0.00    -0.708 A  
HETATM   25  O   UNL     1     -13.474  15.724  71.949  1.00  0.00    -0.464 OA 
BRANCH  20  26
HETATM   26  N   UNL     1     -12.230  15.284  69.464  1.00  0.00    -0.531 N  
HETATM   27  H   UNL     1     -12.794  16.126  69.578  1.00  0.00     0.000 HD 
HETATM   28  O   UNL     1     -11.098  16.308  67.785  1.00  0.00    -0.310 OA 
HETATM   29  C   UNL     1     -11.264  15.328  68.503  1.00  0.00    -0.303 C  
ENDBRANCH  20  26
ENDBRANCH  15  18
ENDBRANCH  14  15
ENDBRANCH  12  14
ENDBRANCH  10  12
ENDBRANCH   9  10
ENDBRANCH   6   9
ENDBRANCH   2   3
TORSDOF 8
ENDMDL
MODEL        8
REMARK 921   NORMALIZED FREE ENERGY PREDICTED BY IDOCK:   -6.29 KCAL/MOL
REMARK 922        TOTAL FREE ENERGY PREDICTED BY IDOCK:  -10.73 KCAL/MOL
REMARK 923 INTER-LIGAND FREE ENERGY PREDICTED BY IDOCK:   -9.44 KCAL/MOL
REMARK 924 INTRA-LIGAND FREE ENERGY PREDICTED BY IDOCK:   -1.29 KCAL/MOL
REMARK 927      BINDING AFFINITY PREDICTED BY RF-SCORE:    0.00 PKD
ROOT
HETATM    1  C   UNL     1     -13.860  15.268  72.485  1.00  0.00    -0.527 C  
HETATM    2  O   UNL     1     -13.751  13.885  72.808  1.00  0.00    -0.686 OA 
ENDROOT
BRANCH   2   3
HETATM    3  C   UNL     1     -13.157  13.117  71.845  1.00  0.00    -0.385 A  
HETATM    4  C   UNL     1     -13.378  11.744  71.940  1.00  0.00    -0.401 A  
HETATM    5  C   UNL     1     -12.780  10.867  71.031  1.00  0.00    -0.505 A  
HETATM    6  C   UNL     1     -11.979  11.362  69.994  1.00  0.00    -0.442 A  
HETATM    7  C   UNL     1     -12.391  13.617  70.795  1.00  0.00    -0.446 A  
HETATM    8  C   UNL     1     -11.803  12.745  69.877  1.00  0.00    -0.371 A  
BRANCH   6   9
HETATM    9  C   UNL     1     -11.208  10.436  69.083  1.00  0.00    -0.301 C  
BRANCH   9  10
HETATM   10  C   UNL     1      -9.698  10.279  69.386  1.00  0.00    -0.222 C  
HETATM   11  C   UNL     1      -9.482   9.315  70.558  1.00  0.00    -0.317 C  
BRANCH  10  12
HETATM   12  N   UNL     1      -8.925   9.768  68.232  1.00  0.00    -0.119 NA 
HETATM   13  H   UNL     1      -9.384   8.957  67.817  1.00  0.00     0.000 HD 
BRANCH  12  14
HETATM   14  C   UNL     1      -8.663  10.799  67.220  1.00  0.00    -0.130 C  
BRANCH  14  15
HETATM   15  C   UNL     1      -9.221  10.449  65.815  1.00  0.00    -0.174 C  
HETATM   16  H   UNL     1     -10.311   9.014  65.032  1.00  0.00     0.000 HD 
HETATM   17  O   UNL     1      -9.969   9.228  65.892  1.00  0.00    -0.307 OA 
BRANCH  15  18
HETATM   18  C   UNL     1     -10.109  11.570  65.288  1.00  0.00    -0.314 A  
HETATM   19  C   UNL     1     -10.269  12.774  66.007  1.00  0.00    -0.290 A  
HETATM   20  C   UNL     1     -11.057  13.820  65.516  1.00  0.00    -0.298 A  
HETATM   21  H   UNL     1     -12.936  14.496  62.907  1.00  0.00     0.000 HD 
HETATM   22  C   UNL     1     -11.687  13.653  64.277  1.00  0.00    -0.403 A  
HETATM   23  C   UNL     1     -10.756  11.436  64.054  1.00  0.00    -0.450 A  
HETATM   24  C   UNL     1     -11.535  12.477  63.547  1.00  0.00    -0.570 A  
HETATM   25  O   UNL     1     -12.509  14.609  63.748  1.00  0.00    -0.799 OA 
BRANCH  20  26
HETATM   26  N   UNL     1     -11.207  15.038  66.205  1.00  0.00    -0.336 N  
HETATM   27  H   UNL     1     -11.613  15.810  65.678  1.00  0.00     0.000 HD 
HETATM   28  O   UNL     1     -11.010  16.407  68.004  1.00  0.00    -0.345 OA 
HETATM   29  C   UNL     1     -10.870  15.298  67.500  1.00  0.00    -0.304 C  
ENDBRANCH  20  26
ENDBRANCH  15  18
ENDBRANCH  14  15
ENDBRANCH  12  14
ENDBRANCH  10  12
ENDBRANCH   9  10
ENDBRANCH   6   9
ENDBRANCH   2   3
TORSDOF 8
ENDMDL
MODEL        9
REMARK 921   NORMALIZED FREE ENERGY PREDICTED BY IDOCK:   -6.26 KCAL/MOL
REMARK 922        TOTAL FREE ENERGY PREDICTED BY IDOCK:  -10.68 KCAL/MOL
REMARK 923 INTER-LIGAND FREE ENERGY PREDICTED BY IDOCK:   -9.66 KCAL/MOL
REMARK 924 INTRA-LIGAND FREE ENERGY PREDICTED BY IDOCK:   -1.02 KCAL/MOL
REMARK 927      BINDING AFFINITY PREDICTED BY RF-SCORE:    0.00 PKD
ROOT
HETATM    1  C   UNL     1     -12.411  15.982  73.700  1.00  0.00    -0.589 C  
HETATM    2  O   UNL     1     -13.107  15.775  72.474  1.00  0.00    -0.429 OA 
ENDROOT
BRANCH   2   3
HETATM    3  C   UNL     1     -12.884  14.561  71.888  1.00  0.00    -0.338 A  
HETATM    4  C   UNL     1     -13.550  13.477  72.458  1.00  0.00    -0.674 A  
HETATM    5  C   UNL     1     -13.356  12.186  71.961  1.00  0.00    -0.470 A  
HETATM    6  C   UNL     1     -12.513  11.971  70.863  1.00  0.00    -0.384 A  
HETATM    7  C   UNL     1     -12.073  14.357  70.773  1.00  0.00    -0.408 A  
HETATM    8  C   UNL     1     -11.886  13.070  70.266  1.00  0.00    -0.294 A  
BRANCH   6   9
HETATM    9  C   UNL     1     -12.173  10.577  70.392  1.00  0.00    -0.415 C  
BRANCH   9  10
HETATM   10  C   UNL     1     -10.964   9.897  71.080  1.00  0.00    -0.228 C  
HETATM   11  C   UNL     1     -11.252   8.413  71.331  1.00  0.00    -0.316 C  
BRANCH  10  12
HETATM   12  N   UNL     1      -9.719   9.988  70.287  1.00  0.00    -0.395 NA 
HETATM   13  H   UNL     1      -9.125   9.174  70.446  1.00  0.00     0.000 HD 
BRANCH  12  14
HETATM   14  C   UNL     1      -9.967  10.186  68.853  1.00  0.00    -0.199 C  
BRANCH  14  15
HETATM   15  C   UNL     1      -9.377  11.506  68.294  1.00  0.00    -0.190 C  
HETATM   16  H   UNL     1      -7.586  12.208  67.890  1.00  0.00     0.000 HD 
HETATM   17  O   UNL     1      -7.948  11.399  68.232  1.00  0.00    -0.121 OA 
BRANCH  15  18
HETATM   18  C   UNL     1      -9.936  11.810  66.910  1.00  0.00    -0.220 A  
HETATM   19  C   UNL     1      -9.959  13.127  66.404  1.00  0.00    -0.282 A  
HETATM   20  C   UNL     1     -10.442  13.410  65.122  1.00  0.00    -0.347 A  
HETATM   21  H   UNL     1     -11.741  11.824  62.555  1.00  0.00     0.000 HD 
HETATM   22  C   UNL     1     -10.901  12.348  64.335  1.00  0.00    -0.337 A  
HETATM   23  C   UNL     1     -10.406  10.771  66.096  1.00  0.00    -0.300 A  
HETATM   24  C   UNL     1     -10.878  11.040  64.810  1.00  0.00    -0.234 A  
HETATM   25  O   UNL     1     -11.429  12.545  63.089  1.00  0.00    -0.414 OA 
BRANCH  20  26
HETATM   26  N   UNL     1     -10.449  14.713  64.591  1.00  0.00    -0.560 N  
HETATM   27  H   UNL     1      -9.659  14.965  63.997  1.00  0.00     0.000 HD 
HETATM   28  O   UNL     1     -11.293  16.799  64.300  1.00  0.00    -1.170 OA 
HETATM   29  C   UNL     1     -11.394  15.676  64.782  1.00  0.00    -0.343 C  
ENDBRANCH  20  26
ENDBRANCH  15  18
ENDBRANCH  14  15
ENDBRANCH  12  14
ENDBRANCH  10  12
ENDBRANCH   9  10
ENDBRANCH   6   9
ENDBRANCH   2   3
TORSDOF 8
ENDMDL
MODEL       10
REMARK 921   NORMALIZED FREE ENERGY PREDICTED BY IDOCK:   -6.23 KCAL/MOL
REMARK 922        TOTAL FREE ENERGY PREDICTED BY IDOCK:  -10.63 KCAL/MOL
REMARK 923 INTER-LIGAND FREE ENERGY PREDICTED BY IDOCK:   -8.98 KCAL/MOL
REMARK 924 INTRA-LIGAND FREE ENERGY PREDICTED BY IDOCK:   -1.65 KCAL/MOL
REMARK 927      BINDING AFFINITY PREDICTED BY RF-SCORE:    0.00 PKD
ROOT
HETATM    1  C   UNL     1     -11.260   7.536  70.480  1.00  0.00    -0.269 C  
HETATM    2  O   UNL     1     -12.526   8.069  70.861  1.00  0.00    -0.174 OA 
ENDROOT
BRANCH   2   3
HETATM    3  C   UNL     1     -12.560   9.430  70.983  1.00  0.00    -0.220 A  
HETATM    4  C   UNL     1     -11.823  10.144  70.039  1.00  0.00    -0.253 A  
HETATM    5  C   UNL     1     -11.756  11.538  70.102  1.00  0.00    -0.395 A  
HETATM    6  C   UNL     1     -12.455  12.236  71.096  1.00  0.00    -0.328 A  
HETATM    7  C   UNL     1     -13.286  10.120  71.951  1.00  0.00    -0.557 A  
HETATM    8  C   UNL     1     -13.232  11.514  72.009  1.00  0.00    -0.443 A  
BRANCH   6   9
HETATM    9  C   UNL     1     -12.292  13.726  71.276  1.00  0.00    -0.394 C  
BRANCH   9  10
HETATM   10  C   UNL     1     -13.533  14.595  70.955  1.00  0.00    -0.320 C  
HETATM   11  C   UNL     1     -14.232  15.032  72.247  1.00  0.00    -0.594 C  
BRANCH  10  12
HETATM   12  N   UNL     1     -13.203  15.813  70.184  1.00  0.00    -0.622 NA 
HETATM   13  H   UNL     1     -13.636  16.637  70.603  1.00  0.00     0.000 HD 
BRANCH  12  14
HETATM   14  C   UNL     1     -11.758  16.008  70.013  1.00  0.00    -0.278 C  
BRANCH  14  15
HETATM   15  C   UNL     1     -11.323  16.176  68.534  1.00  0.00    -0.359 C  
HETATM   16  H   UNL     1      -9.934  17.168  67.560  1.00  0.00     0.000 HD 
HETATM   17  O   UNL     1     -10.200  17.065  68.466  1.00  0.00    -0.282 OA 
BRANCH  15  18
HETATM   18  C   UNL     1     -10.957  14.831  67.918  1.00  0.00    -0.282 A  
HETATM   19  C   UNL     1     -11.779  14.227  66.942  1.00  0.00    -0.430 A  
HETATM   20  C   UNL     1     -11.435  13.007  66.350  1.00  0.00    -0.341 A  
HETATM   21  H   UNL     1      -9.045  10.759  66.509  1.00  0.00     0.000 HD 
HETATM   22  C   UNL     1     -10.240  12.391  66.741  1.00  0.00    -0.219 A  
HETATM   23  C   UNL     1      -9.771  14.185  68.289  1.00  0.00    -0.227 A  
HETATM   24  C   UNL     1      -9.411  12.974  67.695  1.00  0.00    -0.201 A  
HETATM   25  O   UNL     1      -9.855  11.178  66.243  1.00  0.00    -0.202 OA 
BRANCH  20  26
HETATM   26  N   UNL     1     -12.227  12.403  65.356  1.00  0.00    -0.397 N  
HETATM   27  H   UNL     1     -12.923  11.730  65.677  1.00  0.00     0.000 HD 
HETATM   28  O   UNL     1     -12.884  12.016  63.219  1.00  0.00    -0.732 OA 
HETATM   29  C   UNL     1     -12.169  12.619  64.012  1.00  0.00    -0.463 C  
ENDBRANCH  20  26
ENDBRANCH  15  18
ENDBRANCH  14  15
ENDBRANCH  12  14
ENDBRANCH  10  12
ENDBRANCH   9  10
ENDBRANCH   6   9
ENDBRANCH   2   3
TORSDOF 8
ENDMDL
MODEL       11
REMARK 921   NORMALIZED FREE ENERGY PREDICTED BY IDOCK:   -6.16 KCAL/MOL
REMARK 922        TOTAL FREE ENERGY PREDICTED BY IDOCK:  -10.54 KCAL/MOL
REMARK 923 INTER-LIGAND FREE ENERGY PREDICTED BY IDOCK:   -8.90 KCAL/MOL
REMARK 924 INTRA-LIGAND FREE ENERGY PREDICTED BY IDOCK:   -1.64 KCAL/MOL
REMARK 927      BINDING AFFINITY PREDICTED BY RF-SCORE:    0.00 PKD
ROOT
HETATM    1  C   UNL     1     -12.297  16.155  73.404  1.00  0.00    -0.548 C  
HETATM    2  O   UNL     1     -13.009  15.899  72.196  1.00  0.00    -0.447 OA 
ENDROOT
BRANCH   2   3
HETATM    3  C   UNL     1     -12.895  14.621  71.725  1.00  0.00    -0.332 A  
HETATM    4  C   UNL     1     -13.541  13.637  72.473  1.00  0.00    -0.675 A  
HETATM    5  C   UNL     1     -13.450  12.293  72.102  1.00  0.00    -0.431 A  
HETATM    6  C   UNL     1     -12.735  11.923  70.956  1.00  0.00    -0.354 A  
HETATM    7  C   UNL     1     -12.213  14.262  70.565  1.00  0.00    -0.427 A  
HETATM    8  C   UNL     1     -12.130  12.922  70.184  1.00  0.00    -0.373 A  
BRANCH   6   9
HETATM    9  C   UNL     1     -12.500  10.473  70.607  1.00  0.00    -0.456 C  
BRANCH   9  10
HETATM   10  C   UNL     1     -11.046   9.961  70.747  1.00  0.00    -0.347 C  
HETATM   11  C   UNL     1     -10.939   8.950  71.895  1.00  0.00    -0.439 C  
BRANCH  10  12
HETATM   12  N   UNL     1     -10.541   9.307  69.520  1.00  0.00    -0.221 NA 
HETATM   13  H   UNL     1     -11.310   9.050  68.901  1.00  0.00     0.000 HD 
BRANCH  12  14
HETATM   14  C   UNL     1      -9.543  10.118  68.810  1.00  0.00    -0.170 C  
BRANCH  14  15
HETATM   15  C   UNL     1     -10.070  10.737  67.489  1.00  0.00    -0.186 C  
HETATM   16  H   UNL     1     -11.772  10.766  66.508  1.00  0.00     0.000 HD 
HETATM   17  O   UNL     1     -11.450  10.387  67.317  1.00  0.00    -0.315 OA 
BRANCH  15  18
HETATM   18  C   UNL     1      -9.917  12.253  67.500  1.00  0.00    -0.201 A  
HETATM   19  C   UNL     1     -10.688  13.071  66.646  1.00  0.00    -0.285 A  
HETATM   20  C   UNL     1     -10.575  14.465  66.672  1.00  0.00    -0.282 A  
HETATM   21  H   UNL     1      -8.868  16.788  68.247  1.00  0.00     0.000 HD 
HETATM   22  C   UNL     1      -9.678  15.044  67.577  1.00  0.00    -0.215 A  
HETATM   23  C   UNL     1      -9.026  12.865  68.390  1.00  0.00    -0.124 A  
HETATM   24  C   UNL     1      -8.915  14.256  68.433  1.00  0.00    -0.189 A  
HETATM   25  O   UNL     1      -9.477  16.395  67.633  1.00  0.00    -0.222 OA 
BRANCH  20  26
HETATM   26  N   UNL     1     -11.355  15.298  65.848  1.00  0.00    -0.240 N  
HETATM   27  H   UNL     1     -12.276  15.554  66.203  1.00  0.00     0.000 HD 
HETATM   28  O   UNL     1     -11.781  16.496  63.968  1.00  0.00    -1.111 OA 
HETATM   29  C   UNL     1     -11.015  15.802  64.628  1.00  0.00    -0.314 C  
ENDBRANCH  20  26
ENDBRANCH  15  18
ENDBRANCH  14  15
ENDBRANCH  12  14
ENDBRANCH  10  12
ENDBRANCH   9  10
ENDBRANCH   6   9
ENDBRANCH   2   3
TORSDOF 8
ENDMDL
MODEL       12
REMARK 921   NORMALIZED FREE ENERGY PREDICTED BY IDOCK:   -6.15 KCAL/MOL
REMARK 922        TOTAL FREE ENERGY PREDICTED BY IDOCK:  -10.52 KCAL/MOL
REMARK 923 INTER-LIGAND FREE ENERGY PREDICTED BY IDOCK:   -9.11 KCAL/MOL
REMARK 924 INTRA-LIGAND FREE ENERGY PREDICTED BY IDOCK:   -1.41 KCAL/MOL
REMARK 927      BINDING AFFINITY PREDICTED BY RF-SCORE:    0.00 PKD
ROOT
HETATM    1  C   UNL     1     -10.648   8.960  71.656  1.00  0.00    -0.352 C  
HETATM    2  O   UNL     1     -12.026   9.268  71.467  1.00  0.00    -0.317 OA 
ENDROOT
BRANCH   2   3
HETATM    3  C   UNL     1     -12.287  10.584  71.205  1.00  0.00    -0.397 A  
HETATM    4  C   UNL     1     -11.635  11.126  70.099  1.00  0.00    -0.410 A  
HETATM    5  C   UNL     1     -11.800  12.474  69.772  1.00  0.00    -0.380 A  
HETATM    6  C   UNL     1     -12.648  13.288  70.533  1.00  0.00    -0.259 A  
HETATM    7  C   UNL     1     -13.160  11.379  71.944  1.00  0.00    -0.505 A  
HETATM    8  C   UNL     1     -13.337  12.724  71.612  1.00  0.00    -0.345 A  
BRANCH   6   9
HETATM    9  C   UNL     1     -12.739  14.776  70.292  1.00  0.00    -0.324 C  
BRANCH   9  10
HETATM   10  C   UNL     1     -11.575  15.633  70.847  1.00  0.00    -0.389 C  
HETATM   11  C   UNL     1     -11.361  15.348  72.338  1.00  0.00    -0.373 C  
BRANCH  10  12
HETATM   12  N   UNL     1     -10.292  15.389  70.152  1.00  0.00    -0.434 NA 
HETATM   13  H   UNL     1     -10.013  14.411  70.234  1.00  0.00     0.000 HD 
BRANCH  12  14
HETATM   14  C   UNL     1     -10.315  15.812  68.746  1.00  0.00    -0.220 C  
BRANCH  14  15
HETATM   15  C   UNL     1      -9.552  14.854  67.794  1.00  0.00    -0.208 C  
HETATM   16  H   UNL     1      -8.389  13.282  67.986  1.00  0.00     0.000 HD 
HETATM   17  O   UNL     1      -8.856  13.869  68.569  1.00  0.00    -0.181 OA 
BRANCH  15  18
HETATM   18  C   UNL     1     -10.511  14.171  66.826  1.00  0.00    -0.277 A  
HETATM   19  C   UNL     1     -10.088  13.093  66.019  1.00  0.00    -0.286 A  
HETATM   20  C   UNL     1     -10.970  12.440  65.151  1.00  0.00    -0.302 A  
HETATM   21  H   UNL     1     -14.114  12.617  64.214  1.00  0.00     0.000 HD 
HETATM   22  C   UNL     1     -12.300  12.876  65.101  1.00  0.00    -0.493 A  
HETATM   23  C   UNL     1     -11.847  14.583  66.749  1.00  0.00    -0.390 A  
HETATM   24  C   UNL     1     -12.739  13.931  65.896  1.00  0.00    -0.466 A  
HETATM   25  O   UNL     1     -13.212  12.321  64.248  1.00  0.00    -0.785 OA 
BRANCH  20  26
HETATM   26  N   UNL     1     -10.575  11.347  64.359  1.00  0.00    -0.321 N  
HETATM   27  H   UNL     1     -10.892  10.427  64.664  1.00  0.00     0.000 HD 
HETATM   28  O   UNL     1      -9.493  10.364  62.623  1.00  0.00    -0.297 OA 
HETATM   29  C   UNL     1      -9.814  11.380  63.229  1.00  0.00    -0.404 C  
ENDBRANCH  20  26
ENDBRANCH  15  18
ENDBRANCH  14  15
ENDBRANCH  12  14
ENDBRANCH  10  12
ENDBRANCH   9  10
ENDBRANCH   6   9
ENDBRANCH   2   3
TORSDOF 8
ENDMDL
MODEL       13
REMARK 921   NORMALIZED FREE ENERGY PREDICTED BY IDOCK:   -6.07 KCAL/MOL
REMARK 922        TOTAL FREE ENERGY PREDICTED BY IDOCK:  -10.40 KCAL/MOL
REMARK 923 INTER-LIGAND FREE ENERGY PREDICTED BY IDOCK:   -8.84 KCAL/MOL
REMARK 924 INTRA-LIGAND FREE ENERGY PREDICTED BY IDOCK:   -1.57 KCAL/MOL
REMARK 927      BINDING AFFINITY PREDICTED BY RF-SCORE:    0.00 PKD
ROOT
HETATM    1  C   UNL     1     -12.682  10.222  71.375  1.00  0.00    -0.442 C  
HETATM    2  O   UNL     1     -11.305   9.956  71.122  1.00  0.00    -0.357 OA 
ENDROOT
BRANCH   2   3
HETATM    3  C   UNL     1     -10.876  10.299  69.870  1.00  0.00    -0.302 A  
HETATM    4  C   UNL     1      -9.495  10.320  69.685  1.00  0.00    -0.180 A  
HETATM    5  C   UNL     1      -8.953  10.700  68.455  1.00  0.00    -0.149 A  
HETATM    6  C   UNL     1      -9.792  11.036  67.385  1.00  0.00    -0.197 A  
HETATM    7  C   UNL     1     -11.716  10.596  68.800  1.00  0.00    -0.259 A  
HETATM    8  C   UNL     1     -11.178  10.965  67.566  1.00  0.00    -0.364 A  
BRANCH   6   9
HETATM    9  C   UNL     1      -9.240  11.584  66.091  1.00  0.00    -0.230 C  
BRANCH   9  10
HETATM   10  C   UNL     1      -9.496  10.735  64.822  1.00  0.00    -0.247 C  
HETATM   11  C   UNL     1      -9.325   9.243  65.130  1.00  0.00    -0.239 C  
BRANCH  10  12
HETATM   12  N   UNL     1     -10.849  10.928  64.258  1.00  0.00    -0.356 NA 
HETATM   13  H   UNL     1     -11.560  10.865  64.987  1.00  0.00     0.000 HD 
BRANCH  12  14
HETATM   14  C   UNL     1     -10.980  12.181  63.503  1.00  0.00    -0.453 C  
BRANCH  14  15
HETATM   15  C   UNL     1     -12.142  13.085  63.993  1.00  0.00    -0.450 C  
HETATM   16  H   UNL     1     -13.926  12.817  64.771  1.00  0.00     0.000 HD 
HETATM   17  O   UNL     1     -13.214  12.263  64.472  1.00  0.00    -0.799 OA 
BRANCH  15  18
HETATM   18  C   UNL     1     -11.672  14.022  65.099  1.00  0.00    -0.353 A  
HETATM   19  C   UNL     1     -12.231  13.961  66.394  1.00  0.00    -0.487 A  
HETATM   20  C   UNL     1     -11.784  14.797  67.423  1.00  0.00    -0.350 A  
HETATM   21  H   UNL     1      -9.591  17.197  67.894  1.00  0.00     0.000 HD 
HETATM   22  C   UNL     1     -10.753  15.702  67.145  1.00  0.00    -0.314 A  
HETATM   23  C   UNL     1     -10.645  14.942  64.855  1.00  0.00    -0.417 A  
HETATM   24  C   UNL     1     -10.182  15.772  65.878  1.00  0.00    -0.377 A  
HETATM   25  O   UNL     1     -10.291  16.583  68.083  1.00  0.00    -0.271 OA 
BRANCH  20  26
HETATM   26  N   UNL     1     -12.310  14.732  68.727  1.00  0.00    -0.588 N  
HETATM   27  H   UNL     1     -13.132  15.306  68.913  1.00  0.00     0.000 HD 
HETATM   28  O   UNL     1     -12.354  14.023  70.882  1.00  0.00    -0.331 OA 
HETATM   29  C   UNL     1     -11.843  13.987  69.767  1.00  0.00    -0.324 C  
ENDBRANCH  20  26
ENDBRANCH  15  18
ENDBRANCH  14  15
ENDBRANCH  12  14
ENDBRANCH  10  12
ENDBRANCH   9  10
ENDBRANCH   6   9
ENDBRANCH   2   3
TORSDOF 8
ENDMDL
MODEL       14
REMARK 921   NORMALIZED FREE ENERGY PREDICTED BY IDOCK:   -6.04 KCAL/MOL
REMARK 922        TOTAL FREE ENERGY PREDICTED BY IDOCK:  -10.35 KCAL/MOL
REMARK 923 INTER-LIGAND FREE ENERGY PREDICTED BY IDOCK:   -9.09 KCAL/MOL
REMARK 924 INTRA-LIGAND FREE ENERGY PREDICTED BY IDOCK:   -1.26 KCAL/MOL
REMARK 927      BINDING AFFINITY PREDICTED BY RF-SCORE:    0.00 PKD
ROOT
HETATM    1  C   UNL     1     -12.449  15.612  74.408  1.00  0.00    -0.634 C  
HETATM    2  O   UNL     1     -13.053  14.790  73.414  1.00  0.00    -0.538 OA 
ENDROOT
BRANCH   2   3
HETATM    3  C   UNL     1     -12.470  14.863  72.180  1.00  0.00    -0.338 A  
HETATM    4  C   UNL     1     -12.575  13.720  71.388  1.00  0.00    -0.433 A  
HETATM    5  C   UNL     1     -11.975  13.676  70.127  1.00  0.00    -0.407 A  
HETATM    6  C   UNL     1     -11.289  14.792  69.631  1.00  0.00    -0.316 A  
HETATM    7  C   UNL     1     -11.820  15.988  71.677  1.00  0.00    -0.582 A  
HETATM    8  C   UNL     1     -11.231  15.952  70.412  1.00  0.00    -0.392 A  
BRANCH   6   9
HETATM    9  C   UNL     1     -10.514  14.730  68.337  1.00  0.00    -0.243 C  
BRANCH   9  10
HETATM   10  C   UNL     1     -11.213  15.324  67.090  1.00  0.00    -0.291 C  
HETATM   11  C   UNL     1     -10.247  15.368  65.901  1.00  0.00    -0.365 C  
BRANCH  10  12
HETATM   12  N   UNL     1     -12.408  14.558  66.675  1.00  0.00    -0.460 NA 
HETATM   13  H   UNL     1     -13.261  15.088  66.852  1.00  0.00     0.000 HD 
BRANCH  12  14
HETATM   14  C   UNL     1     -12.346  14.115  65.276  1.00  0.00    -0.460 C  
BRANCH  14  15
HETATM   15  C   UNL     1     -12.605  12.597  65.090  1.00  0.00    -0.386 C  
HETATM   16  H   UNL     1     -12.972  11.388  63.586  1.00  0.00     0.000 HD 
HETATM   17  O   UNL     1     -12.813  12.317  63.699  1.00  0.00    -0.753 OA 
BRANCH  15  18
HETATM   18  C   UNL     1     -11.433  11.777  65.616  1.00  0.00    -0.249 A  
HETATM   19  C   UNL     1     -11.297  11.498  66.993  1.00  0.00    -0.340 A  
HETATM   20  C   UNL     1     -10.241  10.720  67.480  1.00  0.00    -0.196 A  
HETATM   21  H   UNL     1      -7.602   9.129  66.343  1.00  0.00     0.000 HD 
HETATM   22  C   UNL     1      -9.314  10.208  66.564  1.00  0.00    -0.164 A  
HETATM   23  C   UNL     1     -10.486  11.252  64.729  1.00  0.00    -0.384 A  
HETATM   24  C   UNL     1      -9.436  10.463  65.202  1.00  0.00    -0.303 A  
HETATM   25  O   UNL     1      -8.231   9.476  66.964  1.00  0.00    -0.112 OA 
BRANCH  20  26
HETATM   26  N   UNL     1     -10.103  10.409  68.846  1.00  0.00    -0.191 N  
HETATM   27  H   UNL     1      -9.168  10.505  69.240  1.00  0.00     0.000 HD 
HETATM   28  O   UNL     1     -10.855   9.715  70.871  1.00  0.00    -0.295 OA 
HETATM   29  C   UNL     1     -11.082   9.994  69.699  1.00  0.00    -0.259 C  
ENDBRANCH  20  26
ENDBRANCH  15  18
ENDBRANCH  14  15
ENDBRANCH  12  14
ENDBRANCH  10  12
ENDBRANCH   9  10
ENDBRANCH   6   9
ENDBRANCH   2   3
TORSDOF 8
ENDMDL
MODEL       15
REMARK 921   NORMALIZED FREE ENERGY PREDICTED BY IDOCK:   -6.03 KCAL/MOL
REMARK 922        TOTAL FREE ENERGY PREDICTED BY IDOCK:  -10.35 KCAL/MOL
REMARK 923 INTER-LIGAND FREE ENERGY PREDICTED BY IDOCK:   -9.13 KCAL/MOL
REMARK 924 INTRA-LIGAND FREE ENERGY PREDICTED BY IDOCK:   -1.22 KCAL/MOL
REMARK 927      BINDING AFFINITY PREDICTED BY RF-SCORE:    0.00 PKD
ROOT
HETATM    1  C   UNL     1     -10.097  19.909  66.963  1.00  0.00    -0.446 C  
HETATM    2  O   UNL     1     -10.412  18.877  67.893  1.00  0.00    -0.390 OA 
ENDROOT
BRANCH   2   3
HETATM    3  C   UNL     1     -10.499  17.625  67.351  1.00  0.00    -0.356 A  
HETATM    4  C   UNL     1     -10.761  16.590  68.249  1.00  0.00    -0.345 A  
HETATM    5  C   UNL     1     -10.825  15.268  67.803  1.00  0.00    -0.295 A  
HETATM    6  C   UNL     1     -10.660  14.970  66.444  1.00  0.00    -0.310 A  
HETATM    7  C   UNL     1     -10.370  17.339  65.994  1.00  0.00    -0.312 A  
HETATM    8  C   UNL     1     -10.447  16.020  65.544  1.00  0.00    -0.426 A  
BRANCH   6   9
HETATM    9  C   UNL     1     -10.584  13.545  65.953  1.00  0.00    -0.284 C  
BRANCH   9  10
HETATM   10  C   UNL     1     -11.914  12.752  65.943  1.00  0.00    -0.449 C  
HETATM   11  C   UNL     1     -12.444  12.607  64.512  1.00  0.00    -0.525 C  
BRANCH  10  12
HETATM   12  N   UNL     1     -11.785  11.395  66.517  1.00  0.00    -0.317 NA 
HETATM   13  H   UNL     1     -11.660  10.699  65.783  1.00  0.00     0.000 HD 
BRANCH  12  14
HETATM   14  C   UNL     1     -10.716  11.298  67.520  1.00  0.00    -0.232 C  
BRANCH  14  15
HETATM   15  C   UNL     1     -11.060  10.366  68.710  1.00  0.00    -0.250 C  
HETATM   16  H   UNL     1     -10.068   9.194  69.936  1.00  0.00     0.000 HD 
HETATM   17  O   UNL     1      -9.857   9.766  69.207  1.00  0.00    -0.179 OA 
BRANCH  15  18
HETATM   18  C   UNL     1     -11.753  11.140  69.825  1.00  0.00    -0.419 A  
HETATM   19  C   UNL     1     -11.711  12.550  69.870  1.00  0.00    -0.327 A  
HETATM   20  C   UNL     1     -12.370  13.270  70.872  1.00  0.00    -0.329 A  
HETATM   21  H   UNL     1     -14.214  12.700  73.530  1.00  0.00     0.000 HD 
HETATM   22  C   UNL     1     -13.091  12.558  71.838  1.00  0.00    -0.368 A  
HETATM   23  C   UNL     1     -12.481  10.460  70.809  1.00  0.00    -0.461 A  
HETATM   24  C   UNL     1     -13.153  11.168  71.806  1.00  0.00    -0.536 A  
HETATM   25  O   UNL     1     -13.726  13.183  72.874  1.00  0.00    -0.517 OA 
BRANCH  20  26
HETATM   26  N   UNL     1     -12.361  14.676  70.918  1.00  0.00    -0.311 N  
HETATM   27  H   UNL     1     -13.030  15.154  70.315  1.00  0.00     0.000 HD 
HETATM   28  O   UNL     1     -11.603  16.695  71.626  1.00  0.00    -0.316 OA 
HETATM   29  C   UNL     1     -11.558  15.471  71.680  1.00  0.00    -0.430 C  
ENDBRANCH  20  26
ENDBRANCH  15  18
ENDBRANCH  14  15
ENDBRANCH  12  14
ENDBRANCH  10  12
ENDBRANCH   9  10
ENDBRANCH   6   9
ENDBRANCH   2   3
TORSDOF 8
ENDMDL
MODEL       16
REMARK 921   NORMALIZED FREE ENERGY PREDICTED BY IDOCK:   -6.02 KCAL/MOL
REMARK 922        TOTAL FREE ENERGY PREDICTED BY IDOCK:  -10.33 KCAL/MOL
REMARK 923 INTER-LIGAND FREE ENERGY PREDICTED BY IDOCK:   -9.06 KCAL/MOL
REMARK 924 INTRA-LIGAND FREE ENERGY PREDICTED BY IDOCK:   -1.27 KCAL/MOL
REMARK 927      BINDING AFFINITY PREDICTED BY RF-SCORE:    0.00 PKD
ROOT
HETATM    1  C   UNL     1     -12.145  12.929  63.418  1.00  0.00    -0.530 C  
HETATM    2  O   UNL     1     -10.950  12.155  63.455  1.00  0.00    -0.426 OA 
ENDROOT
BRANCH   2   3
HETATM    3  C   UNL     1     -10.724  11.508  64.638  1.00  0.00    -0.319 A  
HETATM    4  C   UNL     1     -11.257  12.114  65.774  1.00  0.00    -0.384 A  
HETATM    5  C   UNL     1     -11.045  11.556  67.038  1.00  0.00    -0.365 A  
HETATM    6  C   UNL     1     -10.321  10.365  67.173  1.00  0.00    -0.290 A  
HETATM    7  C   UNL     1     -10.034  10.304  64.762  1.00  0.00    -0.392 A  
HETATM    8  C   UNL     1      -9.832   9.737  66.021  1.00  0.00    -0.342 A  
BRANCH   6   9
HETATM    9  C   UNL     1      -9.956   9.813  68.530  1.00  0.00    -0.177 C  
BRANCH   9  10
HETATM   10  C   UNL     1     -10.495   8.400  68.863  1.00  0.00    -0.189 C  
HETATM   11  C   UNL     1      -9.342   7.452  69.209  1.00  0.00    -0.154 C  
BRANCH  10  12
HETATM   12  N   UNL     1     -11.442   8.394  69.999  1.00  0.00    -0.456 NA 
HETATM   13  H   UNL     1     -11.288   7.583  70.598  1.00  0.00     0.000 HD 
BRANCH  12  14
HETATM   14  C   UNL     1     -11.407   9.638  70.779  1.00  0.00    -0.340 C  
BRANCH  14  15
HETATM   15  C   UNL     1     -12.811  10.162  71.180  1.00  0.00    -0.399 C  
HETATM   16  H   UNL     1     -14.037   9.934  72.698  1.00  0.00     0.000 HD 
HETATM   17  O   UNL     1     -13.177   9.613  72.453  1.00  0.00    -0.422 OA 
BRANCH  15  18
HETATM   18  C   UNL     1     -12.825  11.684  71.247  1.00  0.00    -0.430 A  
HETATM   19  C   UNL     1     -12.061  12.461  70.350  1.00  0.00    -0.381 A  
HETATM   20  C   UNL     1     -12.092  13.860  70.385  1.00  0.00    -0.351 A  
HETATM   21  H   UNL     1     -13.521  16.267  72.103  1.00  0.00     0.000 HD 
HETATM   22  C   UNL     1     -12.912  14.484  71.332  1.00  0.00    -0.333 A  
HETATM   23  C   UNL     1     -13.632  12.342  72.184  1.00  0.00    -0.348 A  
HETATM   24  C   UNL     1     -13.680  13.736  72.220  1.00  0.00    -0.673 A  
HETATM   25  O   UNL     1     -12.965  15.844  71.460  1.00  0.00    -0.464 OA 
BRANCH  20  26
HETATM   26  N   UNL     1     -11.359  14.651  69.481  1.00  0.00    -0.268 N  
HETATM   27  H   UNL     1     -10.434  14.951  69.788  1.00  0.00     0.000 HD 
HETATM   28  O   UNL     1     -11.047  15.781  67.538  1.00  0.00    -0.317 OA 
HETATM   29  C   UNL     1     -11.748  15.062  68.241  1.00  0.00    -0.314 C  
ENDBRANCH  20  26
ENDBRANCH  15  18
ENDBRANCH  14  15
ENDBRANCH  12  14
ENDBRANCH  10  12
ENDBRANCH   9  10
ENDBRANCH   6   9
ENDBRANCH   2   3
TORSDOF 8
ENDMDL
MODEL       17
REMARK 921   NORMALIZED FREE ENERGY PREDICTED BY IDOCK:   -5.99 KCAL/MOL
REMARK 922        TOTAL FREE ENERGY PREDICTED BY IDOCK:  -10.29 KCAL/MOL
REMARK 923 INTER-LIGAND FREE ENERGY PREDICTED BY IDOCK:   -8.74 KCAL/MOL
REMARK 924 INTRA-LIGAND FREE ENERGY PREDICTED BY IDOCK:   -1.55 KCAL/MOL
REMARK 927      BINDING AFFINITY PREDICTED BY RF-SCORE:    0.00 PKD
ROOT
HETATM    1  C   UNL     1     -11.328  16.311  70.842  1.00  0.00    -0.285 C  
HETATM    2  O   UNL     1     -12.632  15.866  71.204  1.00  0.00    -0.456 OA 
ENDROOT
BRANCH   2   3
HETATM    3  C   UNL     1     -12.764  14.509  71.310  1.00  0.00    -0.342 A  
HETATM    4  C   UNL     1     -12.018  13.753  70.407  1.00  0.00    -0.385 A  
HETATM    5  C   UNL     1     -12.116  12.359  70.402  1.00  0.00    -0.381 A  
HETATM    6  C   UNL     1     -12.940  11.705  71.326  1.00  0.00    -0.368 A  
HETATM    7  C   UNL     1     -13.557  13.862  72.254  1.00  0.00    -0.642 A  
HETATM    8  C   UNL     1     -13.647  12.469  72.261  1.00  0.00    -0.443 A  
BRANCH   6   9
HETATM    9  C   UNL     1     -13.175  10.215  71.256  1.00  0.00    -0.453 C  
BRANCH   9  10
HETATM   10  C   UNL     1     -11.926   9.316  71.427  1.00  0.00    -0.351 C  
HETATM   11  C   UNL     1     -12.280   8.046  72.209  1.00  0.00    -0.366 C  
BRANCH  10  12
HETATM   12  N   UNL     1     -11.329   8.902  70.139  1.00  0.00    -0.423 NA 
HETATM   13  H   UNL     1     -11.912   9.196  69.356  1.00  0.00     0.000 HD 
BRANCH  12  14
HETATM   14  C   UNL     1      -9.948   9.373  69.972  1.00  0.00    -0.221 C  
BRANCH  14  15
HETATM   15  C   UNL     1      -9.487   9.440  68.492  1.00  0.00    -0.145 C  
HETATM   16  H   UNL     1      -9.898   8.481  66.827  1.00  0.00     0.000 HD 
HETATM   17  O   UNL     1     -10.180   8.441  67.733  1.00  0.00    -0.198 OA 
BRANCH  15  18
HETATM   18  C   UNL     1      -9.753  10.819  67.902  1.00  0.00    -0.181 A  
HETATM   19  C   UNL     1     -10.762  11.016  66.934  1.00  0.00    -0.325 A  
HETATM   20  C   UNL     1     -11.034  12.285  66.410  1.00  0.00    -0.287 A  
HETATM   21  H   UNL     1      -9.947  15.372  66.694  1.00  0.00     0.000 HD 
HETATM   22  C   UNL     1     -10.283  13.371  66.873  1.00  0.00    -0.252 A  
HETATM   23  C   UNL     1      -9.019  11.928  68.340  1.00  0.00    -0.163 A  
HETATM   24  C   UNL     1      -9.290  13.200  67.834  1.00  0.00    -0.215 A  
HETATM   25  O   UNL     1     -10.457  14.634  66.379  1.00  0.00    -0.283 OA 
BRANCH  20  26
HETATM   26  N   UNL     1     -12.053  12.505  65.465  1.00  0.00    -0.444 N  
HETATM   27  H   UNL     1     -12.900  12.958  65.808  1.00  0.00     0.000 HD 
HETATM   28  O   UNL     1     -12.990  12.386  63.402  1.00  0.00    -0.723 OA 
HETATM   29  C   UNL     1     -12.034  12.181  64.141  1.00  0.00    -0.408 C  
ENDBRANCH  20  26
ENDBRANCH  15  18
ENDBRANCH  14  15
ENDBRANCH  12  14
ENDBRANCH  10  12
ENDBRANCH   9  10
ENDBRANCH   6   9
ENDBRANCH   2   3
TORSDOF 8
ENDMDL
MODEL       18
REMARK 921   NORMALIZED FREE ENERGY PREDICTED BY IDOCK:   -5.99 KCAL/MOL
REMARK 922        TOTAL FREE ENERGY PREDICTED BY IDOCK:  -10.29 KCAL/MOL
REMARK 923 INTER-LIGAND FREE ENERGY PREDICTED BY IDOCK:   -9.20 KCAL/MOL
REMARK 924 INTRA-LIGAND FREE ENERGY PREDICTED BY IDOCK:   -1.09 KCAL/MOL
REMARK 927      BINDING AFFINITY PREDICTED BY RF-SCORE:    0.00 PKD
ROOT
HETATM    1  C   UNL     1     -11.022   7.576  72.887  1.00  0.00    -0.383 C  
HETATM    2  O   UNL     1     -12.194   8.365  72.701  1.00  0.00    -0.380 OA 
ENDROOT
BRANCH   2   3
HETATM    3  C   UNL     1     -12.054   9.397  71.816  1.00  0.00    -0.382 A  
HETATM    4  C   UNL     1     -10.997   9.286  70.913  1.00  0.00    -0.368 A  
HETATM    5  C   UNL     1     -10.741  10.308  69.996  1.00  0.00    -0.345 A  
HETATM    6  C   UNL     1     -11.563  11.442  69.951  1.00  0.00    -0.402 A  
HETATM    7  C   UNL     1     -12.896  10.505  71.752  1.00  0.00    -0.559 A  
HETATM    8  C   UNL     1     -12.651  11.522  70.828  1.00  0.00    -0.390 A  
BRANCH   6   9
HETATM    9  C   UNL     1     -11.231  12.622  69.071  1.00  0.00    -0.322 C  
BRANCH   9  10
HETATM   10  C   UNL     1     -12.142  13.866  69.221  1.00  0.00    -0.339 C  
HETATM   11  C   UNL     1     -11.444  14.946  70.054  1.00  0.00    -0.317 C  
BRANCH  10  12
HETATM   12  N   UNL     1     -12.519  14.468  67.923  1.00  0.00    -0.510 NA 
HETATM   13  H   UNL     1     -12.605  15.481  68.003  1.00  0.00     0.000 HD 
BRANCH  12  14
HETATM   14  C   UNL     1     -11.603  14.102  66.835  1.00  0.00    -0.391 C  
BRANCH  14  15
HETATM   15  C   UNL     1     -12.275  13.280  65.705  1.00  0.00    -0.462 C  
HETATM   16  H   UNL     1     -13.243  13.672  64.040  1.00  0.00     0.000 HD 
HETATM   17  O   UNL     1     -12.831  14.175  64.733  1.00  0.00    -0.677 OA 
BRANCH  15  18
HETATM   18  C   UNL     1     -11.270  12.348  65.038  1.00  0.00    -0.354 A  
HETATM   19  C   UNL     1     -10.891  11.131  65.644  1.00  0.00    -0.206 A  
HETATM   20  C   UNL     1      -9.992  10.256  65.024  1.00  0.00    -0.323 A  
HETATM   21  H   UNL     1      -8.209  10.069  62.271  1.00  0.00     0.000 HD 
HETATM   22  C   UNL     1      -9.476  10.608  63.772  1.00  0.00    -0.290 A  
HETATM   23  C   UNL     1     -10.732  12.671  63.787  1.00  0.00    -0.454 A  
HETATM   24  C   UNL     1      -9.845  11.799  63.153  1.00  0.00    -0.363 A  
HETATM   25  O   UNL     1      -8.560   9.829  63.121  1.00  0.00    -0.164 OA 
BRANCH  20  26
HETATM   26  N   UNL     1      -9.623   9.026  65.600  1.00  0.00    -0.437 N  
HETATM   27  H   UNL     1      -9.102   8.384  65.002  1.00  0.00     0.000 HD 
HETATM   28  O   UNL     1      -9.545   7.489  67.267  1.00  0.00    -0.142 OA 
HETATM   29  C   UNL     1      -9.883   8.597  66.867  1.00  0.00    -0.238 C  
ENDBRANCH  20  26
ENDBRANCH  15  18
ENDBRANCH  14  15
ENDBRANCH  12  14
ENDBRANCH  10  12
ENDBRANCH   9  10
ENDBRANCH   6   9
ENDBRANCH   2   3
TORSDOF 8
ENDMDL
MODEL       19
REMARK 921   NORMALIZED FREE ENERGY PREDICTED BY IDOCK:   -5.98 KCAL/MOL
REMARK 922        TOTAL FREE ENERGY PREDICTED BY IDOCK:  -10.27 KCAL/MOL
REMARK 923 INTER-LIGAND FREE ENERGY PREDICTED BY IDOCK:   -9.33 KCAL/MOL
REMARK 924 INTRA-LIGAND FREE ENERGY PREDICTED BY IDOCK:   -0.93 KCAL/MOL
REMARK 927      BINDING AFFINITY PREDICTED BY RF-SCORE:    0.00 PKD
ROOT
HETATM    1  C   UNL     1     -14.387  14.209  72.083  1.00  0.00    -0.518 C  
HETATM    2  O   UNL     1     -13.901  12.986  72.627  1.00  0.00    -0.653 OA 
ENDROOT
BRANCH   2   3
HETATM    3  C   UNL     1     -13.141  12.240  71.770  1.00  0.00    -0.344 A  
HETATM    4  C   UNL     1     -12.474  12.950  70.773  1.00  0.00    -0.370 A  
HETATM    5  C   UNL     1     -11.706  12.277  69.820  1.00  0.00    -0.368 A  
HETATM    6  C   UNL     1     -11.573  10.883  69.874  1.00  0.00    -0.410 A  
HETATM    7  C   UNL     1     -12.983  10.858  71.851  1.00  0.00    -0.502 A  
HETATM    8  C   UNL     1     -12.206  10.184  70.907  1.00  0.00    -0.455 A  
BRANCH   6   9
HETATM    9  C   UNL     1     -10.868  10.116  68.781  1.00  0.00    -0.259 C  
BRANCH   9  10
HETATM   10  C   UNL     1     -10.429  10.934  67.542  1.00  0.00    -0.215 C  
HETATM   11  C   UNL     1      -9.263  10.243  66.827  1.00  0.00    -0.180 C  
BRANCH  10  12
HETATM   12  N   UNL     1     -11.515  11.125  66.558  1.00  0.00    -0.246 NA 
HETATM   13  H   UNL     1     -12.243  11.734  66.932  1.00  0.00     0.000 HD 
BRANCH  12  14
HETATM   14  C   UNL     1     -11.032  11.619  65.262  1.00  0.00    -0.268 C  
BRANCH  14  15
HETATM   15  C   UNL     1     -11.803  12.860  64.741  1.00  0.00    -0.363 C  
HETATM   16  H   UNL     1     -13.682  13.424  64.621  1.00  0.00     0.000 HD 
HETATM   17  O   UNL     1     -13.210  12.664  64.940  1.00  0.00    -0.819 OA 
BRANCH  15  18
HETATM   18  C   UNL     1     -11.349  14.124  65.461  1.00  0.00    -0.319 A  
HETATM   19  C   UNL     1     -11.813  14.433  66.758  1.00  0.00    -0.431 A  
HETATM   20  C   UNL     1     -11.377  15.575  67.438  1.00  0.00    -0.203 A  
HETATM   21  H   UNL     1      -9.383  18.141  66.954  1.00  0.00     0.000 HD 
HETATM   22  C   UNL     1     -10.452  16.414  66.805  1.00  0.00    -0.273 A  
HETATM   23  C   UNL     1     -10.427  14.987  64.856  1.00  0.00    -0.367 A  
HETATM   24  C   UNL     1      -9.975  16.123  65.530  1.00  0.00    -0.251 A  
HETATM   25  O   UNL     1     -10.011  17.571  67.383  1.00  0.00    -0.294 OA 
BRANCH  20  26
HETATM   26  N   UNL     1     -11.808  15.885  68.741  1.00  0.00    -0.467 N  
HETATM   27  H   UNL     1     -12.811  16.020  68.867  1.00  0.00     0.000 HD 
HETATM   28  O   UNL     1     -11.503  16.332  70.945  1.00  0.00    -0.406 OA 
HETATM   29  C   UNL     1     -11.034  16.026  69.854  1.00  0.00    -0.353 C  
ENDBRANCH  20  26
ENDBRANCH  15  18
ENDBRANCH  14  15
ENDBRANCH  12  14
ENDBRANCH  10  12
ENDBRANCH   9  10
ENDBRANCH   6   9
ENDBRANCH   2   3
TORSDOF 8
ENDMDL
MODEL       20
REMARK 921   NORMALIZED FREE ENERGY PREDICTED BY IDOCK:   -5.97 KCAL/MOL
REMARK 922        TOTAL FREE ENERGY PREDICTED BY IDOCK:  -10.26 KCAL/MOL
REMARK 923 INTER-LIGAND FREE ENERGY PREDICTED BY IDOCK:   -9.31 KCAL/MOL
REMARK 924 INTRA-LIGAND FREE ENERGY PREDICTED BY IDOCK:   -0.95 KCAL/MOL
REMARK 927      BINDING AFFINITY PREDICTED BY RF-SCORE:    0.00 PKD
ROOT
HETATM    1  C   UNL     1     -11.964   9.497  71.376  1.00  0.00    -0.386 C  
HETATM    2  O   UNL     1     -10.861  10.220  70.837  1.00  0.00    -0.220 OA 
ENDROOT
BRANCH   2   3
HETATM    3  C   UNL     1     -11.063  10.719  69.580  1.00  0.00    -0.279 A  
HETATM    4  C   UNL     1     -11.506  12.039  69.513  1.00  0.00    -0.351 A  
HETATM    5  C   UNL     1     -11.785  12.629  68.278  1.00  0.00    -0.389 A  
HETATM    6  C   UNL     1     -11.591  11.911  67.091  1.00  0.00    -0.363 A  
HETATM    7  C   UNL     1     -10.834  10.012  68.402  1.00  0.00    -0.277 A  
HETATM    8  C   UNL     1     -11.099  10.603  67.165  1.00  0.00    -0.267 A  
BRANCH   6   9
HETATM    9  C   UNL     1     -12.014  12.469  65.753  1.00  0.00    -0.482 C  
BRANCH   9  10
HETATM   10  C   UNL     1     -10.926  12.508  64.652  1.00  0.00    -0.310 C  
HETATM   11  C   UNL     1     -11.386  11.732  63.414  1.00  0.00    -0.437 C  
BRANCH  10  12
HETATM   12  N   UNL     1     -10.583  13.881  64.224  1.00  0.00    -0.563 NA 
HETATM   13  H   UNL     1     -11.207  14.198  63.482  1.00  0.00     0.000 HD 
BRANCH  12  14
HETATM   14  C   UNL     1     -10.562  14.839  65.337  1.00  0.00    -0.378 C  
BRANCH  14  15
HETATM   15  C   UNL     1     -10.515  16.321  64.884  1.00  0.00     0.014 C  
HETATM   16  H   UNL     1     -11.628  17.511  63.785  1.00  0.00     0.000 HD 
HETATM   17  O   UNL     1     -11.657  16.603  64.063  1.00  0.00    -1.197 OA 
BRANCH  15  18
HETATM   18  C   UNL     1     -10.496  17.258  66.086  1.00  0.00    -0.279 A  
HETATM   19  C   UNL     1     -10.648  16.763  67.399  1.00  0.00    -0.291 A  
HETATM   20  C   UNL     1     -10.600  17.612  68.510  1.00  0.00    -0.280 A  
HETATM   21  H   UNL     1     -10.229  20.808  69.176  1.00  0.00     0.000 HD 
HETATM   22  C   UNL     1     -10.388  18.979  68.294  1.00  0.00    -0.339 A  
HETATM   23  C   UNL     1     -10.289  18.631  65.906  1.00  0.00    -0.358 A  
HETATM   24  C   UNL     1     -10.227  19.486  67.008  1.00  0.00    -0.540 A  
HETATM   25  O   UNL     1     -10.373  19.880  69.322  1.00  0.00    -0.311 OA 
BRANCH  20  26
HETATM   26  N   UNL     1     -10.723  17.135  69.828  1.00  0.00    -0.290 N  
HETATM   27  H   UNL     1     -10.295  17.703  70.558  1.00  0.00     0.000 HD 
HETATM   28  O   UNL     1     -11.374  15.646  71.411  1.00  0.00    -0.359 OA 
HETATM   29  C   UNL     1     -11.349  15.996  70.236  1.00  0.00    -0.382 C  
ENDBRANCH  20  26
ENDBRANCH  15  18
ENDBRANCH  14  15
ENDBRANCH  12  14
ENDBRANCH  10  12
ENDBRANCH   9  10
ENDBRANCH   6   9
ENDBRANCH   2   3
TORSDOF 8
ENDMDL
MODEL       21
REMARK 921   NORMALIZED FREE ENERGY PREDICTED BY IDOCK:   -5.96 KCAL/MOL
REMARK 922        TOTAL FREE ENERGY PREDICTED BY IDOCK:  -10.25 KCAL/MOL
REMARK 923 INTER-LIGAND FREE ENERGY PREDICTED BY IDOCK:   -9.17 KCAL/MOL
REMARK 924 INTRA-LIGAND FREE ENERGY PREDICTED BY IDOCK:   -1.08 KCAL/MOL
REMARK 927      BINDING AFFINITY PREDICTED BY RF-SCORE:    0.00 PKD
ROOT
HETATM    1  C   UNL     1     -12.343   9.497  71.718  1.00  0.00    -0.394 C  
HETATM    2  O   UNL     1     -11.055   9.818  71.201  1.00  0.00    -0.343 OA 
ENDROOT
BRANCH   2   3
HETATM    3  C   UNL     1     -11.051  10.263  69.909  1.00  0.00    -0.304 A  
HETATM    4  C   UNL     1     -11.689  11.482  69.683  1.00  0.00    -0.419 A  
HETATM    5  C   UNL     1     -11.780  12.004  68.390  1.00  0.00    -0.390 A  
HETATM    6  C   UNL     1     -11.203  11.323  67.311  1.00  0.00    -0.364 A  
HETATM    7  C   UNL     1     -10.444   9.600  68.845  1.00  0.00    -0.234 A  
HETATM    8  C   UNL     1     -10.522  10.124  67.553  1.00  0.00    -0.304 A  
BRANCH   6   9
HETATM    9  C   UNL     1     -11.404  11.787  65.888  1.00  0.00    -0.324 C  
BRANCH   9  10
HETATM   10  C   UNL     1     -10.125  11.926  65.026  1.00  0.00    -0.264 C  
HETATM   11  C   UNL     1      -9.968  10.718  64.097  1.00  0.00    -0.405 C  
BRANCH  10  12
HETATM   12  N   UNL     1     -10.121  13.145  64.188  1.00  0.00    -0.721 NA 
HETATM   13  H   UNL     1     -10.134  12.905  63.196  1.00  0.00     0.000 HD 
BRANCH  12  14
HETATM   14  C   UNL     1     -11.213  14.070  64.519  1.00  0.00    -0.350 C  
BRANCH  14  15
HETATM   15  C   UNL     1     -10.748  15.535  64.726  1.00  0.00    -0.304 C  
HETATM   16  H   UNL     1     -11.345  17.315  64.148  1.00  0.00     0.000 HD 
HETATM   17  O   UNL     1     -11.630  16.418  64.021  1.00  0.00    -1.071 OA 
BRANCH  15  18
HETATM   18  C   UNL     1     -10.726  15.894  66.207  1.00  0.00    -0.261 A  
HETATM   19  C   UNL     1     -10.020  17.024  66.673  1.00  0.00    -0.307 A  
HETATM   20  C   UNL     1     -10.021  17.379  68.027  1.00  0.00    -0.302 A  
HETATM   21  H   UNL     1     -11.262  16.304  70.872  1.00  0.00     0.000 HD 
HETATM   22  C   UNL     1     -10.751  16.587  68.922  1.00  0.00    -0.337 A  
HETATM   23  C   UNL     1     -11.443  15.123  67.130  1.00  0.00    -0.254 A  
HETATM   24  C   UNL     1     -11.461  15.475  68.480  1.00  0.00    -0.369 A  
HETATM   25  O   UNL     1     -10.766  16.841  70.265  1.00  0.00    -0.158 OA 
BRANCH  20  26
HETATM   26  N   UNL     1      -9.345  18.516  68.507  1.00  0.00    -0.329 N  
HETATM   27  H   UNL     1      -9.928  19.297  68.807  1.00  0.00     0.000 HD 
HETATM   28  O   UNL     1      -7.501  19.736  69.016  1.00  0.00    -0.332 OA 
HETATM   29  C   UNL     1      -7.998  18.690  68.614  1.00  0.00    -0.327 C  
ENDBRANCH  20  26
ENDBRANCH  15  18
ENDBRANCH  14  15
ENDBRANCH  12  14
ENDBRANCH  10  12
ENDBRANCH   9  10
ENDBRANCH   6   9
ENDBRANCH   2   3
TORSDOF 8
ENDMDL
MODEL       22
REMARK 921   NORMALIZED FREE ENERGY PREDICTED BY IDOCK:   -5.96 KCAL/MOL
REMARK 922        TOTAL FREE ENERGY PREDICTED BY IDOCK:  -10.25 KCAL/MOL
REMARK 923 INTER-LIGAND FREE ENERGY PREDICTED BY IDOCK:   -8.98 KCAL/MOL
REMARK 924 INTRA-LIGAND FREE ENERGY PREDICTED BY IDOCK:   -1.26 KCAL/MOL
REMARK 927      BINDING AFFINITY PREDICTED BY RF-SCORE:    0.00 PKD
ROOT
HETATM    1  C   UNL     1     -13.857   8.807  72.134  1.00  0.00    -0.457 C  
HETATM    2  O   UNL     1     -13.262  10.083  72.355  1.00  0.00    -0.364 OA 
ENDROOT
BRANCH   2   3
HETATM    3  C   UNL     1     -12.545  10.571  71.299  1.00  0.00    -0.426 A  
HETATM    4  C   UNL     1     -11.730   9.651  70.640  1.00  0.00    -0.353 A  
HETATM    5  C   UNL     1     -10.923  10.058  69.575  1.00  0.00    -0.289 A  
HETATM    6  C   UNL     1     -10.947  11.388  69.136  1.00  0.00    -0.289 A  
HETATM    7  C   UNL     1     -12.600  11.886  70.844  1.00  0.00    -0.361 A  
HETATM    8  C   UNL     1     -11.805  12.294  69.772  1.00  0.00    -0.388 A  
BRANCH   6   9
HETATM    9  C   UNL     1      -9.988  11.890  68.084  1.00  0.00    -0.197 C  
BRANCH   9  10
HETATM   10  C   UNL     1     -10.524  11.931  66.632  1.00  0.00    -0.216 C  
HETATM   11  C   UNL     1     -10.157  10.644  65.886  1.00  0.00    -0.321 C  
BRANCH  10  12
HETATM   12  N   UNL     1     -11.992  12.092  66.561  1.00  0.00    -0.631 NA 
HETATM   13  H   UNL     1     -12.437  11.763  67.417  1.00  0.00     0.000 HD 
BRANCH  12  14
HETATM   14  C   UNL     1     -12.402  13.468  66.252  1.00  0.00    -0.383 C  
BRANCH  14  15
HETATM   15  C   UNL     1     -11.267  14.336  65.649  1.00  0.00    -0.314 C  
HETATM   16  H   UNL     1     -10.964  15.328  63.980  1.00  0.00     0.000 HD 
HETATM   17  O   UNL     1     -11.659  14.796  64.349  1.00  0.00    -0.364 OA 
BRANCH  15  18
HETATM   18  C   UNL     1     -10.955  15.526  66.549  1.00  0.00    -0.243 A  
HETATM   19  C   UNL     1     -11.248  15.493  67.929  1.00  0.00    -0.325 A  
HETATM   20  C   UNL     1     -10.937  16.569  68.768  1.00  0.00    -0.330 A  
HETATM   21  H   UNL     1      -9.593  19.560  68.571  1.00  0.00     0.000 HD 
HETATM   22  C   UNL     1     -10.313  17.690  68.209  1.00  0.00    -0.384 A  
HETATM   23  C   UNL     1     -10.333  16.665  66.022  1.00  0.00    -0.352 A  
HETATM   24  C   UNL     1     -10.006  17.738  66.852  1.00  0.00    -0.332 A  
HETATM   25  O   UNL     1     -10.016  18.799  68.951  1.00  0.00    -0.400 OA 
BRANCH  20  26
HETATM   26  N   UNL     1     -11.197  16.545  70.151  1.00  0.00    -0.456 N  
HETATM   27  H   UNL     1     -10.594  17.122  70.736  1.00  0.00     0.000 HD 
HETATM   28  O   UNL     1     -12.293  15.854  72.014  1.00  0.00    -0.410 OA 
HETATM   29  C   UNL     1     -12.166  15.835  70.794  1.00  0.00    -0.399 C  
ENDBRANCH  20  26
ENDBRANCH  15  18
ENDBRANCH  14  15
ENDBRANCH  12  14
ENDBRANCH  10  12
ENDBRANCH   9  10
ENDBRANCH   6   9
ENDBRANCH   2   3
TORSDOF 8
ENDMDL
MODEL       23
REMARK 921   NORMALIZED FREE ENERGY PREDICTED BY IDOCK:   -5.92 KCAL/MOL
REMARK 922        TOTAL FREE ENERGY PREDICTED BY IDOCK:  -10.18 KCAL/MOL
REMARK 923 INTER-LIGAND FREE ENERGY PREDICTED BY IDOCK:   -9.13 KCAL/MOL
REMARK 924 INTRA-LIGAND FREE ENERGY PREDICTED BY IDOCK:   -1.05 KCAL/MOL
REMARK 927      BINDING AFFINITY PREDICTED BY RF-SCORE:    0.00 PKD
ROOT
HETATM    1  C   UNL     1     -10.325   6.271  68.405  1.00  0.00    -0.200 C  
HETATM    2  O   UNL     1      -9.303   6.931  67.664  1.00  0.00    -0.122 OA 
ENDROOT
BRANCH   2   3
HETATM    3  C   UNL     1      -9.648   8.166  67.188  1.00  0.00    -0.174 A  
HETATM    4  C   UNL     1     -10.434   8.946  68.035  1.00  0.00    -0.263 A  
HETATM    5  C   UNL     1     -10.877  10.206  67.627  1.00  0.00    -0.346 A  
HETATM    6  C   UNL     1     -10.510  10.713  66.374  1.00  0.00    -0.276 A  
HETATM    7  C   UNL     1      -9.249   8.679  65.957  1.00  0.00    -0.276 A  
HETATM    8  C   UNL     1      -9.680   9.944  65.550  1.00  0.00    -0.370 A  
BRANCH   6   9
HETATM    9  C   UNL     1     -11.084  12.006  65.847  1.00  0.00    -0.369 C  
BRANCH   9  10
HETATM   10  C   UNL     1     -10.826  12.311  64.351  1.00  0.00    -0.329 C  
HETATM   11  C   UNL     1     -12.107  12.112  63.533  1.00  0.00    -0.649 C  
BRANCH  10  12
HETATM   12  N   UNL     1     -10.348  13.691  64.114  1.00  0.00    -0.699 NA 
HETATM   13  H   UNL     1     -10.156  13.845  63.125  1.00  0.00     0.000 HD 
BRANCH  12  14
HETATM   14  C   UNL     1     -11.266  14.711  64.636  1.00  0.00    -0.346 C  
BRANCH  14  15
HETATM   15  C   UNL     1     -10.549  15.972  65.185  1.00  0.00    -0.370 C  
HETATM   16  H   UNL     1     -10.631  17.910  64.867  1.00  0.00     0.000 HD 
HETATM   17  O   UNL     1     -11.071  17.137  64.531  1.00  0.00    -1.105 OA 
BRANCH  15  18
HETATM   18  C   UNL     1     -10.738  16.094  66.692  1.00  0.00    -0.226 A  
HETATM   19  C   UNL     1     -11.400  15.087  67.428  1.00  0.00    -0.338 A  
HETATM   20  C   UNL     1     -11.551  15.177  68.816  1.00  0.00    -0.349 A  
HETATM   21  H   UNL     1     -10.801  17.233  71.266  1.00  0.00     0.000 HD 
HETATM   22  C   UNL     1     -11.019  16.292  69.473  1.00  0.00    -0.339 A  
HETATM   23  C   UNL     1     -10.221  17.198  67.381  1.00  0.00    -0.321 A  
HETATM   24  C   UNL     1     -10.354  17.291  68.767  1.00  0.00    -0.358 A  
HETATM   25  O   UNL     1     -11.162  16.475  70.820  1.00  0.00    -0.304 OA 
BRANCH  20  26
HETATM   26  N   UNL     1     -12.184  14.171  69.570  1.00  0.00    -0.408 N  
HETATM   27  H   UNL     1     -13.103  14.399  69.948  1.00  0.00     0.000 HD 
HETATM   28  O   UNL     1     -12.320  12.128  70.548  1.00  0.00    -0.332 OA 
HETATM   29  C   UNL     1     -11.704  12.927  69.851  1.00  0.00    -0.254 C  
ENDBRANCH  20  26
ENDBRANCH  15  18
ENDBRANCH  14  15
ENDBRANCH  12  14
ENDBRANCH  10  12
ENDBRANCH   9  10
ENDBRANCH   6   9
ENDBRANCH   2   3
TORSDOF 8
ENDMDL
MODEL       24
REMARK 921   NORMALIZED FREE ENERGY PREDICTED BY IDOCK:   -5.86 KCAL/MOL
REMARK 922        TOTAL FREE ENERGY PREDICTED BY IDOCK:  -10.10 KCAL/MOL
REMARK 923 INTER-LIGAND FREE ENERGY PREDICTED BY IDOCK:   -8.72 KCAL/MOL
REMARK 924 INTRA-LIGAND FREE ENERGY PREDICTED BY IDOCK:   -1.37 KCAL/MOL
REMARK 927      BINDING AFFINITY PREDICTED BY RF-SCORE:    0.00 PKD
ROOT
HETATM    1  C   UNL     1      -8.532   9.674  63.347  1.00  0.00    -0.188 C  
HETATM    2  O   UNL     1      -9.805  10.211  63.001  1.00  0.00    -0.180 OA 
ENDROOT
BRANCH   2   3
HETATM    3  C   UNL     1     -10.302  11.123  63.889  1.00  0.00    -0.380 A  
HETATM    4  C   UNL     1     -11.099  12.130  63.346  1.00  0.00    -0.495 A  
HETATM    5  C   UNL     1     -11.619  13.137  64.163  1.00  0.00    -0.460 A  
HETATM    6  C   UNL     1     -11.372  13.129  65.541  1.00  0.00    -0.325 A  
HETATM    7  C   UNL     1     -10.082  11.089  65.264  1.00  0.00    -0.332 A  
HETATM    8  C   UNL     1     -10.611  12.087  66.085  1.00  0.00    -0.298 A  
BRANCH   6   9
HETATM    9  C   UNL     1     -11.801  14.274  66.427  1.00  0.00    -0.427 C  
BRANCH   9  10
HETATM   10  C   UNL     1     -10.666  15.152  67.008  1.00  0.00    -0.307 C  
HETATM   11  C   UNL     1     -10.210  16.194  65.980  1.00  0.00    -0.374 C  
BRANCH  10  12
HETATM   12  N   UNL     1     -11.062  15.873  68.237  1.00  0.00    -0.330 NA 
HETATM   13  H   UNL     1     -11.156  16.873  68.059  1.00  0.00     0.000 HD 
BRANCH  12  14
HETATM   14  C   UNL     1     -12.283  15.332  68.849  1.00  0.00    -0.097 C  
BRANCH  14  15
HETATM   15  C   UNL     1     -12.128  14.992  70.354  1.00  0.00    -0.333 C  
HETATM   16  H   UNL     1     -12.940  15.590  72.041  1.00  0.00     0.000 HD 
HETATM   17  O   UNL     1     -13.035  15.798  71.119  1.00  0.00    -0.491 OA 
BRANCH  15  18
HETATM   18  C   UNL     1     -12.403  13.516  70.610  1.00  0.00    -0.432 A  
HETATM   19  C   UNL     1     -11.995  12.527  69.689  1.00  0.00    -0.339 A  
HETATM   20  C   UNL     1     -12.216  11.167  69.931  1.00  0.00    -0.314 A  
HETATM   21  H   UNL     1     -13.574   9.243  72.222  1.00  0.00     0.000 HD 
HETATM   22  C   UNL     1     -12.851  10.797  71.123  1.00  0.00    -0.414 A  
HETATM   23  C   UNL     1     -13.038  13.111  71.791  1.00  0.00    -0.478 A  
HETATM   24  C   UNL     1     -13.253  11.756  72.049  1.00  0.00    -0.460 A  
HETATM   25  O   UNL     1     -13.143   9.494  71.414  1.00  0.00    -0.349 OA 
BRANCH  20  26
HETATM   26  N   UNL     1     -11.793  10.165  69.038  1.00  0.00    -0.496 N  
HETATM   27  H   UNL     1     -12.459   9.889  68.317  1.00  0.00     0.000 HD 
HETATM   28  O   UNL     1     -10.326   8.636  68.225  1.00  0.00    -0.206 OA 
HETATM   29  C   UNL     1     -10.591   9.523  69.029  1.00  0.00    -0.219 C  
ENDBRANCH  20  26
ENDBRANCH  15  18
ENDBRANCH  14  15
ENDBRANCH  12  14
ENDBRANCH  10  12
ENDBRANCH   9  10
ENDBRANCH   6   9
ENDBRANCH   2   3
TORSDOF 8
ENDMDL
MODEL       25
REMARK 921   NORMALIZED FREE ENERGY PREDICTED BY IDOCK:   -5.85 KCAL/MOL
REMARK 922        TOTAL FREE ENERGY PREDICTED BY IDOCK:  -10.08 KCAL/MOL
REMARK 923 INTER-LIGAND FREE ENERGY PREDICTED BY IDOCK:   -8.40 KCAL/MOL
REMARK 924 INTRA-LIGAND FREE ENERGY PREDICTED BY IDOCK:   -1.68 KCAL/MOL
REMARK 927      BINDING AFFINITY PREDICTED BY RF-SCORE:    0.00 PKD
ROOT
HETATM    1  C   UNL     1      -9.717  11.341  62.961  1.00  0.00    -0.366 C  
HETATM    2  O   UNL     1     -10.994  11.422  63.587  1.00  0.00    -0.393 OA 
ENDROOT
BRANCH   2   3
HETATM    3  C   UNL     1     -10.960  11.484  64.952  1.00  0.00    -0.254 A  
HETATM    4  C   UNL     1     -11.834  12.395  65.542  1.00  0.00    -0.469 A  
HETATM    5  C   UNL     1     -11.846  12.567  66.928  1.00  0.00    -0.404 A  
HETATM    6  C   UNL     1     -11.002  11.803  67.743  1.00  0.00    -0.277 A  
HETATM    7  C   UNL     1     -10.144  10.695  65.760  1.00  0.00    -0.327 A  
HETATM    8  C   UNL     1     -10.162  10.856  67.146  1.00  0.00    -0.249 A  
BRANCH   6   9
HETATM    9  C   UNL     1     -10.890  12.063  69.227  1.00  0.00    -0.130 C  
BRANCH   9  10
HETATM   10  C   UNL     1     -12.224  12.190  70.002  1.00  0.00    -0.198 C  
HETATM   11  C   UNL     1     -12.531  10.895  70.762  1.00  0.00    -0.489 C  
BRANCH  10  12
HETATM   12  N   UNL     1     -12.223  13.299  70.980  1.00  0.00    -0.439 NA 
HETATM   13  H   UNL     1     -11.274  13.511  71.289  1.00  0.00     0.000 HD 
BRANCH  12  14
HETATM   14  C   UNL     1     -12.893  14.505  70.478  1.00  0.00    -0.304 C  
BRANCH  14  15
HETATM   15  C   UNL     1     -12.010  15.779  70.534  1.00  0.00    -0.371 C  
HETATM   16  H   UNL     1     -10.861  16.660  71.863  1.00  0.00     0.000 HD 
HETATM   17  O   UNL     1     -11.402  15.880  71.829  1.00  0.00    -0.368 OA 
BRANCH  15  18
HETATM   18  C   UNL     1     -10.933  15.741  69.457  1.00  0.00    -0.295 A  
HETATM   19  C   UNL     1     -11.221  16.103  68.123  1.00  0.00    -0.311 A  
HETATM   20  C   UNL     1     -10.231  16.101  67.135  1.00  0.00    -0.281 A  
HETATM   21  H   UNL     1      -7.032  15.420  66.829  1.00  0.00     0.000 HD 
HETATM   22  C   UNL     1      -8.929  15.737  67.497  1.00  0.00    -0.194 A  
HETATM   23  C   UNL     1      -9.620  15.379  69.784  1.00  0.00    -0.190 A  
HETATM   24  C   UNL     1      -8.622  15.386  68.809  1.00  0.00    -0.190 A  
HETATM   25  O   UNL     1      -7.916  15.667  66.583  1.00  0.00    -0.234 OA 
BRANCH  20  26
HETATM   26  N   UNL     1     -10.494  16.484  65.806  1.00  0.00    -0.355 N  
HETATM   27  H   UNL     1      -9.944  17.262  65.441  1.00  0.00     0.000 HD 
HETATM   28  O   UNL     1     -11.581  16.359  63.818  1.00  0.00    -1.055 OA 
HETATM   29  C   UNL     1     -11.401  15.932  64.953  1.00  0.00    -0.256 C  
ENDBRANCH  20  26
ENDBRANCH  15  18
ENDBRANCH  14  15
ENDBRANCH  12  14
ENDBRANCH  10  12
ENDBRANCH   9  10
ENDBRANCH   6   9
ENDBRANCH   2   3
TORSDOF 8
ENDMDL
MODEL       26
REMARK 921   NORMALIZED FREE ENERGY PREDICTED BY IDOCK:   -5.84 KCAL/MOL
REMARK 922        TOTAL FREE ENERGY PREDICTED BY IDOCK:  -10.07 KCAL/MOL
REMARK 923 INTER-LIGAND FREE ENERGY PREDICTED BY IDOCK:   -9.00 KCAL/MOL
REMARK 924 INTRA-LIGAND FREE ENERGY PREDICTED BY IDOCK:   -1.07 KCAL/MOL
REMARK 927      BINDING AFFINITY PREDICTED BY RF-SCORE:    0.00 PKD
ROOT
HETATM    1  C   UNL     1     -13.270   9.621  71.760  1.00  0.00    -0.430 C  
HETATM    2  O   UNL     1     -12.000  10.211  71.499  1.00  0.00    -0.374 OA 
ENDROOT
BRANCH   2   3
HETATM    3  C   UNL     1     -11.484   9.933  70.263  1.00  0.00    -0.281 A  
HETATM    4  C   UNL     1     -11.756  10.869  69.266  1.00  0.00    -0.395 A  
HETATM    5  C   UNL     1     -11.312  10.657  67.959  1.00  0.00    -0.350 A  
HETATM    6  C   UNL     1     -10.561   9.518  67.642  1.00  0.00    -0.329 A  
HETATM    7  C   UNL     1     -10.706   8.817  69.963  1.00  0.00    -0.236 A  
HETATM    8  C   UNL     1     -10.250   8.609  68.660  1.00  0.00    -0.214 A  
BRANCH   6   9
HETATM    9  C   UNL     1     -10.187   9.191  66.216  1.00  0.00    -0.257 C  
BRANCH   9  10
HETATM   10  C   UNL     1      -9.751  10.385  65.331  1.00  0.00    -0.265 C  
HETATM   11  C   UNL     1      -8.350  10.146  64.758  1.00  0.00    -0.167 C  
BRANCH  10  12
HETATM   12  N   UNL     1     -10.668  10.631  64.198  1.00  0.00    -0.313 NA 
HETATM   13  H   UNL     1     -11.641  10.579  64.498  1.00  0.00     0.000 HD 
BRANCH  12  14
HETATM   14  C   UNL     1     -10.397  11.900  63.509  1.00  0.00    -0.458 C  
BRANCH  14  15
HETATM   15  C   UNL     1     -11.563  12.920  63.602  1.00  0.00    -0.485 C  
HETATM   16  H   UNL     1     -13.526  12.842  63.624  1.00  0.00     0.000 HD 
HETATM   17  O   UNL     1     -12.812  12.218  63.567  1.00  0.00    -0.768 OA 
BRANCH  15  18
HETATM   18  C   UNL     1     -11.465  13.743  64.881  1.00  0.00    -0.351 A  
HETATM   19  C   UNL     1     -10.701  14.929  64.930  1.00  0.00    -0.426 A  
HETATM   20  C   UNL     1     -10.631  15.706  66.091  1.00  0.00    -0.320 A  
HETATM   21  H   UNL     1     -11.784  15.681  69.167  1.00  0.00     0.000 HD 
HETATM   22  C   UNL     1     -11.349  15.286  67.217  1.00  0.00    -0.269 A  
HETATM   23  C   UNL     1     -12.167  13.351  66.028  1.00  0.00    -0.491 A  
HETATM   24  C   UNL     1     -12.116  14.125  67.187  1.00  0.00    -0.432 A  
HETATM   25  O   UNL     1     -11.298  15.966  68.402  1.00  0.00    -0.346 OA 
BRANCH  20  26
HETATM   26  N   UNL     1      -9.897  16.905  66.150  1.00  0.00    -0.304 N  
HETATM   27  H   UNL     1      -8.884  16.813  66.223  1.00  0.00     0.000 HD 
HETATM   28  O   UNL     1      -9.666  19.162  66.212  1.00  0.00    -0.351 OA 
HETATM   29  C   UNL     1     -10.389  18.175  66.122  1.00  0.00    -0.385 C  
ENDBRANCH  20  26
ENDBRANCH  15  18
ENDBRANCH  14  15
ENDBRANCH  12  14
ENDBRANCH  10  12
ENDBRANCH   9  10
ENDBRANCH   6   9
ENDBRANCH   2   3
TORSDOF 8
ENDMDL
MODEL       27
REMARK 921   NORMALIZED FREE ENERGY PREDICTED BY IDOCK:   -5.83 KCAL/MOL
REMARK 922        TOTAL FREE ENERGY PREDICTED BY IDOCK:  -10.05 KCAL/MOL
REMARK 923 INTER-LIGAND FREE ENERGY PREDICTED BY IDOCK:   -8.70 KCAL/MOL
REMARK 924 INTRA-LIGAND FREE ENERGY PREDICTED BY IDOCK:   -1.35 KCAL/MOL
REMARK 927      BINDING AFFINITY PREDICTED BY RF-SCORE:    0.00 PKD
ROOT
HETATM    1  C   UNL     1     -12.765  16.072  73.544  1.00  0.00    -0.589 C  
HETATM    2  O   UNL     1     -13.740  15.434  72.723  1.00  0.00    -0.498 OA 
ENDROOT
BRANCH   2   3
HETATM    3  C   UNL     1     -13.277  14.362  72.013  1.00  0.00    -0.369 A  
HETATM    4  C   UNL     1     -12.537  14.662  70.871  1.00  0.00    -0.410 A  
HETATM    5  C   UNL     1     -12.056  13.639  70.051  1.00  0.00    -0.417 A  
HETATM    6  C   UNL     1     -12.285  12.298  70.385  1.00  0.00    -0.371 A  
HETATM    7  C   UNL     1     -13.477  13.030  72.370  1.00  0.00    -0.615 A  
HETATM    8  C   UNL     1     -12.986  12.004  71.560  1.00  0.00    -0.407 A  
BRANCH   6   9
HETATM    9  C   UNL     1     -11.901  11.175  69.451  1.00  0.00    -0.415 C  
BRANCH   9  10
HETATM   10  C   UNL     1     -11.008  11.562  68.246  1.00  0.00    -0.224 C  
HETATM   11  C   UNL     1      -9.834  10.586  68.112  1.00  0.00    -0.169 C  
BRANCH  10  12
HETATM   12  N   UNL     1     -11.740  11.569  66.961  1.00  0.00    -0.550 NA 
HETATM   13  H   UNL     1     -12.668  11.159  67.067  1.00  0.00     0.000 HD 
BRANCH  12  14
HETATM   14  C   UNL     1     -11.823  12.905  66.357  1.00  0.00    -0.415 C  
BRANCH  14  15
HETATM   15  C   UNL     1     -10.506  13.364  65.676  1.00  0.00    -0.290 C  
HETATM   16  H   UNL     1     -10.010  14.320  64.033  1.00  0.00     0.000 HD 
HETATM   17  O   UNL     1     -10.816  14.039  64.450  1.00  0.00    -0.374 OA 
BRANCH  15  18
HETATM   18  C   UNL     1      -9.713  14.287  66.593  1.00  0.00    -0.297 A  
HETATM   19  C   UNL     1     -10.255  15.511  67.041  1.00  0.00    -0.271 A  
HETATM   20  C   UNL     1      -9.545  16.351  67.907  1.00  0.00    -0.228 A  
HETATM   21  H   UNL     1      -6.639  16.455  69.434  1.00  0.00     0.000 HD 
HETATM   22  C   UNL     1      -8.275  15.946  68.334  1.00  0.00    -0.161 A  
HETATM   23  C   UNL     1      -8.439  13.916  67.037  1.00  0.00    -0.153 A  
HETATM   24  C   UNL     1      -7.727  14.739  67.911  1.00  0.00    -0.146 A  
HETATM   25  O   UNL     1      -7.501  16.729  69.144  1.00  0.00    -0.239 OA 
BRANCH  20  26
HETATM   26  N   UNL     1     -10.079  17.562  68.386  1.00  0.00    -0.335 N  
HETATM   27  H   UNL     1     -10.365  17.576  69.365  1.00  0.00     0.000 HD 
HETATM   28  O   UNL     1     -10.763  19.716  68.186  1.00  0.00    -0.358 OA 
HETATM   29  C   UNL     1     -10.256  18.718  67.687  1.00  0.00    -0.399 C  
ENDBRANCH  20  26
ENDBRANCH  15  18
ENDBRANCH  14  15
ENDBRANCH  12  14
ENDBRANCH  10  12
ENDBRANCH   9  10
ENDBRANCH   6   9
ENDBRANCH   2   3
TORSDOF 8
ENDMDL
MODEL       28
REMARK 921   NORMALIZED FREE ENERGY PREDICTED BY IDOCK:   -5.82 KCAL/MOL
REMARK 922        TOTAL FREE ENERGY PREDICTED BY IDOCK:  -10.04 KCAL/MOL
REMARK 923 INTER-LIGAND FREE ENERGY PREDICTED BY IDOCK:   -8.22 KCAL/MOL
REMARK 924 INTRA-LIGAND FREE ENERGY PREDICTED BY IDOCK:   -1.82 KCAL/MOL
REMARK 927      BINDING AFFINITY PREDICTED BY RF-SCORE:    0.00 PKD
ROOT
HETATM    1  C   UNL     1     -11.182   9.354  70.673  1.00  0.00    -0.284 C  
HETATM    2  O   UNL     1     -10.212  10.290  70.211  1.00  0.00    -0.203 OA 
ENDROOT
BRANCH   2   3
HETATM    3  C   UNL     1     -10.030  10.302  68.856  1.00  0.00    -0.201 A  
HETATM    4  C   UNL     1     -10.978   9.605  68.108  1.00  0.00    -0.185 A  
HETATM    5  C   UNL     1     -10.858   9.519  66.719  1.00  0.00    -0.031 A  
HETATM    6  C   UNL     1      -9.801  10.159  66.059  1.00  0.00    -0.308 A  
HETATM    7  C   UNL     1      -8.998  10.971  68.202  1.00  0.00    -0.152 A  
HETATM    8  C   UNL     1      -8.882  10.898  66.813  1.00  0.00    -0.149 A  
BRANCH   6   9
HETATM    9  C   UNL     1      -9.564   9.970  64.580  1.00  0.00    -0.346 C  
BRANCH   9  10
HETATM   10  C   UNL     1      -9.772  11.219  63.688  1.00  0.00    -0.321 C  
HETATM   11  C   UNL     1      -8.855  11.161  62.461  1.00  0.00    -0.331 C  
BRANCH  10  12
HETATM   12  N   UNL     1     -11.163  11.363  63.207  1.00  0.00    -0.838 NA 
HETATM   13  H   UNL     1     -11.559  10.457  62.959  1.00  0.00     0.000 HD 
BRANCH  12  14
HETATM   14  C   UNL     1     -12.027  12.071  64.160  1.00  0.00    -0.369 C  
BRANCH  14  15
HETATM   15  C   UNL     1     -11.618  13.550  64.393  1.00  0.00    -0.396 C  
HETATM   16  H   UNL     1     -12.301  15.316  63.870  1.00  0.00     0.000 HD 
HETATM   17  O   UNL     1     -12.552  14.411  63.728  1.00  0.00    -0.829 OA 
BRANCH  15  18
HETATM   18  C   UNL     1     -11.579  13.876  65.881  1.00  0.00    -0.348 A  
HETATM   19  C   UNL     1     -11.145  15.138  66.340  1.00  0.00    -0.312 A  
HETATM   20  C   UNL     1     -11.135  15.456  67.702  1.00  0.00    -0.316 A  
HETATM   21  H   UNL     1     -11.858  14.053  70.583  1.00  0.00     0.000 HD 
HETATM   22  C   UNL     1     -11.577  14.491  68.614  1.00  0.00    -0.315 A  
HETATM   23  C   UNL     1     -12.012  12.933  66.821  1.00  0.00    -0.418 A  
HETATM   24  C   UNL     1     -12.019  13.244  68.182  1.00  0.00    -0.340 A  
HETATM   25  O   UNL     1     -11.558  14.708  69.964  1.00  0.00    -0.260 OA 
BRANCH  20  26
HETATM   26  N   UNL     1     -10.731  16.718  68.177  1.00  0.00    -0.351 N  
HETATM   27  H   UNL     1     -11.078  16.989  69.097  1.00  0.00     0.000 HD 
HETATM   28  O   UNL     1      -9.657  18.711  68.028  1.00  0.00    -0.295 OA 
HETATM   29  C   UNL     1      -9.927  17.618  67.544  1.00  0.00    -0.322 C  
ENDBRANCH  20  26
ENDBRANCH  15  18
ENDBRANCH  14  15
ENDBRANCH  12  14
ENDBRANCH  10  12
ENDBRANCH   9  10
ENDBRANCH   6   9
ENDBRANCH   2   3
TORSDOF 8
ENDMDL
MODEL       29
REMARK 921   NORMALIZED FREE ENERGY PREDICTED BY IDOCK:   -5.80 KCAL/MOL
REMARK 922        TOTAL FREE ENERGY PREDICTED BY IDOCK:  -10.01 KCAL/MOL
REMARK 923 INTER-LIGAND FREE ENERGY PREDICTED BY IDOCK:   -9.23 KCAL/MOL
REMARK 924 INTRA-LIGAND FREE ENERGY PREDICTED BY IDOCK:   -0.78 KCAL/MOL
REMARK 927      BINDING AFFINITY PREDICTED BY RF-SCORE:    0.00 PKD
ROOT
HETATM    1  C   UNL     1      -6.198  21.054  67.770  1.00  0.00    -0.357 C  
HETATM    2  O   UNL     1      -7.467  21.220  67.144  1.00  0.00    -0.416 OA 
ENDROOT
BRANCH   2   3
HETATM    3  C   UNL     1      -8.387  20.256  67.449  1.00  0.00    -0.340 A  
HETATM    4  C   UNL     1      -7.912  19.176  68.193  1.00  0.00    -0.339 A  
HETATM    5  C   UNL     1      -8.761  18.116  68.520  1.00  0.00    -0.309 A  
HETATM    6  C   UNL     1     -10.107  18.142  68.132  1.00  0.00    -0.388 A  
HETATM    7  C   UNL     1      -9.732  20.304  67.092  1.00  0.00    -0.592 A  
HETATM    8  C   UNL     1     -10.587  19.253  67.429  1.00  0.00    -0.594 A  
BRANCH   6   9
HETATM    9  C   UNL     1     -11.013  16.953  68.348  1.00  0.00    -0.296 C  
BRANCH   9  10
HETATM   10  C   UNL     1     -10.483  15.588  67.844  1.00  0.00    -0.266 C  
HETATM   11  C   UNL     1     -10.786  14.484  68.863  1.00  0.00    -0.262 C  
BRANCH  10  12
HETATM   12  N   UNL     1     -11.069  15.182  66.548  1.00  0.00    -0.327 NA 
HETATM   13  H   UNL     1     -10.342  14.893  65.894  1.00  0.00     0.000 HD 
BRANCH  12  14
HETATM   14  C   UNL     1     -12.095  14.140  66.687  1.00  0.00    -0.451 C  
BRANCH  14  15
HETATM   15  C   UNL     1     -12.510  13.491  65.340  1.00  0.00    -0.497 C  
HETATM   16  H   UNL     1     -12.835  14.105  63.503  1.00  0.00     0.000 HD 
HETATM   17  O   UNL     1     -12.581  14.503  64.327  1.00  0.00    -0.681 OA 
BRANCH  15  18
HETATM   18  C   UNL     1     -11.517  12.411  64.928  1.00  0.00    -0.378 A  
HETATM   19  C   UNL     1     -11.029  11.473  65.863  1.00  0.00    -0.301 A  
HETATM   20  C   UNL     1     -10.140  10.460  65.486  1.00  0.00    -0.283 A  
HETATM   21  H   UNL     1      -8.579   9.404  62.795  1.00  0.00     0.000 HD 
HETATM   22  C   UNL     1      -9.745  10.386  64.145  1.00  0.00    -0.324 A  
HETATM   23  C   UNL     1     -11.098  12.310  63.596  1.00  0.00    -0.537 A  
HETATM   24  C   UNL     1     -10.222  11.296  63.205  1.00  0.00    -0.417 A  
HETATM   25  O   UNL     1      -8.847   9.454  63.705  1.00  0.00    -0.219 OA 
BRANCH  20  26
HETATM   26  N   UNL     1      -9.664   9.500  66.397  1.00  0.00    -0.212 N  
HETATM   27  H   UNL     1      -8.653   9.457  66.524  1.00  0.00     0.000 HD 
HETATM   28  O   UNL     1      -9.891   7.794  67.877  1.00  0.00    -0.149 OA 
HETATM   29  C   UNL     1     -10.403   8.620  67.129  1.00  0.00    -0.299 C  
ENDBRANCH  20  26
ENDBRANCH  15  18
ENDBRANCH  14  15
ENDBRANCH  12  14
ENDBRANCH  10  12
ENDBRANCH   9  10
ENDBRANCH   6   9
ENDBRANCH   2   3
TORSDOF 8
ENDMDL
MODEL       30
REMARK 921   NORMALIZED FREE ENERGY PREDICTED BY IDOCK:   -5.80 KCAL/MOL
REMARK 922        TOTAL FREE ENERGY PREDICTED BY IDOCK:  -10.01 KCAL/MOL
REMARK 923 INTER-LIGAND FREE ENERGY PREDICTED BY IDOCK:   -8.71 KCAL/MOL
REMARK 924 INTRA-LIGAND FREE ENERGY PREDICTED BY IDOCK:   -1.29 KCAL/MOL
REMARK 927      BINDING AFFINITY PREDICTED BY RF-SCORE:    0.00 PKD
ROOT
HETATM    1  C   UNL     1     -13.869   8.831  72.201  1.00  0.00    -0.457 C  
HETATM    2  O   UNL     1     -12.646   9.558  72.278  1.00  0.00    -0.342 OA 
ENDROOT
BRANCH   2   3
HETATM    3  C   UNL     1     -12.059   9.820  71.072  1.00  0.00    -0.346 A  
HETATM    4  C   UNL     1     -11.196   8.838  70.589  1.00  0.00    -0.294 A  
HETATM    5  C   UNL     1     -10.511   9.027  69.386  1.00  0.00    -0.229 A  
HETATM    6  C   UNL     1     -10.710  10.193  68.635  1.00  0.00    -0.253 A  
HETATM    7  C   UNL     1     -12.288  10.965  70.312  1.00  0.00    -0.412 A  
HETATM    8  C   UNL     1     -11.616  11.152  69.103  1.00  0.00    -0.393 A  
BRANCH   6   9
HETATM    9  C   UNL     1      -9.883  10.490  67.407  1.00  0.00    -0.204 C  
BRANCH   9  10
HETATM   10  C   UNL     1      -8.370  10.718  67.638  1.00  0.00    -0.119 C  
HETATM   11  C   UNL     1      -7.667  11.047  66.317  1.00  0.00    -0.132 C  
BRANCH  10  12
HETATM   12  N   UNL     1      -8.088  11.818  68.587  1.00  0.00    -0.256 NA 
HETATM   13  H   UNL     1      -7.233  11.635  69.113  1.00  0.00     0.000 HD 
BRANCH  12  14
HETATM   14  C   UNL     1      -8.033  13.134  67.937  1.00  0.00    -0.158 C  
BRANCH  14  15
HETATM   15  C   UNL     1      -9.200  14.075  68.336  1.00  0.00    -0.196 C  
HETATM   16  H   UNL     1      -9.433  15.640  69.500  1.00  0.00     0.000 HD 
HETATM   17  O   UNL     1      -8.718  15.064  69.255  1.00  0.00    -0.204 OA 
BRANCH  15  18
HETATM   18  C   UNL     1      -9.796  14.753  67.108  1.00  0.00    -0.232 A  
HETATM   19  C   UNL     1     -10.496  14.011  66.133  1.00  0.00    -0.297 A  
HETATM   20  C   UNL     1     -11.074  14.630  65.019  1.00  0.00    -0.394 A  
HETATM   21  H   UNL     1     -11.365  17.635  63.724  1.00  0.00     0.000 HD 
HETATM   22  C   UNL     1     -10.951  16.018  64.891  1.00  0.00    -0.384 A  
HETATM   23  C   UNL     1      -9.690  16.140  66.947  1.00  0.00    -0.246 A  
HETATM   24  C   UNL     1     -10.273  16.770  65.847  1.00  0.00    -0.345 A  
HETATM   25  O   UNL     1     -11.448  16.692  63.811  1.00  0.00    -1.015 OA 
BRANCH  20  26
HETATM   26  N   UNL     1     -11.798  13.911  64.050  1.00  0.00    -0.624 N  
HETATM   27  H   UNL     1     -12.063  14.423  63.209  1.00  0.00     0.000 HD 
HETATM   28  O   UNL     1     -12.845  12.075  63.224  1.00  0.00    -0.732 OA 
HETATM   29  C   UNL     1     -12.184  12.605  64.110  1.00  0.00    -0.450 C  
ENDBRANCH  20  26
ENDBRANCH  15  18
ENDBRANCH  14  15
ENDBRANCH  12  14
ENDBRANCH  10  12
ENDBRANCH   9  10
ENDBRANCH   6   9
ENDBRANCH   2   3
TORSDOF 8
ENDMDL
MODEL       31
REMARK 921   NORMALIZED FREE ENERGY PREDICTED BY IDOCK:   -5.79 KCAL/MOL
REMARK 922        TOTAL FREE ENERGY PREDICTED BY IDOCK:   -9.99 KCAL/MOL
REMARK 923 INTER-LIGAND FREE ENERGY PREDICTED BY IDOCK:   -8.97 KCAL/MOL
REMARK 924 INTRA-LIGAND FREE ENERGY PREDICTED BY IDOCK:   -1.02 KCAL/MOL
REMARK 927      BINDING AFFINITY PREDICTED BY RF-SCORE:    0.00 PKD
ROOT
HETATM    1  C   UNL     1     -14.282   8.477  72.114  1.00  0.00    -0.434 C  
HETATM    2  O   UNL     1     -13.193   9.284  72.554  1.00  0.00    -0.437 OA 
ENDROOT
BRANCH   2   3
HETATM    3  C   UNL     1     -12.401   9.772  71.552  1.00  0.00    -0.405 A  
HETATM    4  C   UNL     1     -11.182   9.121  71.369  1.00  0.00    -0.419 A  
HETATM    5  C   UNL     1     -10.281   9.570  70.400  1.00  0.00    -0.337 A  
HETATM    6  C   UNL     1     -10.606  10.659  69.582  1.00  0.00    -0.260 A  
HETATM    7  C   UNL     1     -12.745  10.832  70.717  1.00  0.00    -0.451 A  
HETATM    8  C   UNL     1     -11.852  11.275  69.740  1.00  0.00    -0.437 A  
BRANCH   6   9
HETATM    9  C   UNL     1      -9.600  11.254  68.625  1.00  0.00    -0.195 C  
BRANCH   9  10
HETATM   10  C   UNL     1      -9.592  10.672  67.190  1.00  0.00    -0.164 C  
HETATM   11  C   UNL     1     -10.643   9.564  67.053  1.00  0.00    -0.271 C  
BRANCH  10  12
HETATM   12  N   UNL     1      -9.867  11.687  66.151  1.00  0.00    -0.216 NA 
HETATM   13  H   UNL     1      -9.278  11.539  65.332  1.00  0.00     0.000 HD 
BRANCH  12  14
HETATM   14  C   UNL     1     -11.285  11.750  65.773  1.00  0.00    -0.281 C  
BRANCH  14  15
HETATM   15  C   UNL     1     -11.734  13.145  65.266  1.00  0.00    -0.344 C  
HETATM   16  H   UNL     1     -13.417  13.977  64.688  1.00  0.00     0.000 HD 
HETATM   17  O   UNL     1     -13.143  13.123  64.999  1.00  0.00    -0.728 OA 
BRANCH  15  18
HETATM   18  C   UNL     1     -11.417  14.225  66.293  1.00  0.00    -0.360 A  
HETATM   19  C   UNL     1     -10.770  15.422  65.917  1.00  0.00    -0.343 A  
HETATM   20  C   UNL     1     -10.503  16.431  66.848  1.00  0.00    -0.289 A  
HETATM   21  H   UNL     1     -10.910  17.021  70.054  1.00  0.00     0.000 HD 
HETATM   22  C   UNL     1     -10.902  16.236  68.176  1.00  0.00    -0.342 A  
HETATM   23  C   UNL     1     -11.800  14.061  67.630  1.00  0.00    -0.430 A  
HETATM   24  C   UNL     1     -11.550  15.067  68.565  1.00  0.00    -0.348 A  
HETATM   25  O   UNL     1     -10.639  17.154  69.154  1.00  0.00    -0.324 OA 
BRANCH  20  26
HETATM   26  N   UNL     1      -9.882  17.642  66.488  1.00  0.00    -0.306 N  
HETATM   27  H   UNL     1      -8.863  17.651  66.503  1.00  0.00     0.000 HD 
HETATM   28  O   UNL     1      -9.863  19.821  65.855  1.00  0.00    -0.401 OA 
HETATM   29  C   UNL     1     -10.493  18.804  66.121  1.00  0.00    -0.446 C  
ENDBRANCH  20  26
ENDBRANCH  15  18
ENDBRANCH  14  15
ENDBRANCH  12  14
ENDBRANCH  10  12
ENDBRANCH   9  10
ENDBRANCH   6   9
ENDBRANCH   2   3
TORSDOF 8
ENDMDL
MODEL       32
REMARK 921   NORMALIZED FREE ENERGY PREDICTED BY IDOCK:   -5.78 KCAL/MOL
REMARK 922        TOTAL FREE ENERGY PREDICTED BY IDOCK:   -9.97 KCAL/MOL
REMARK 923 INTER-LIGAND FREE ENERGY PREDICTED BY IDOCK:   -8.55 KCAL/MOL
REMARK 924 INTRA-LIGAND FREE ENERGY PREDICTED BY IDOCK:   -1.42 KCAL/MOL
REMARK 927      BINDING AFFINITY PREDICTED BY RF-SCORE:    0.00 PKD
ROOT
HETATM    1  C   UNL     1     -14.401   8.448  72.135  1.00  0.00    -0.427 C  
HETATM    2  O   UNL     1     -13.562   9.561  72.427  1.00  0.00    -0.452 OA 
ENDROOT
BRANCH   2   3
HETATM    3  C   UNL     1     -12.467   9.680  71.616  1.00  0.00    -0.407 A  
HETATM    4  C   UNL     1     -12.583  10.593  70.569  1.00  0.00    -0.433 A  
HETATM    5  C   UNL     1     -11.537  10.759  69.657  1.00  0.00    -0.388 A  
HETATM    6  C   UNL     1     -10.349  10.032  69.804  1.00  0.00    -0.290 A  
HETATM    7  C   UNL     1     -11.275   8.982  71.789  1.00  0.00    -0.448 A  
HETATM    8  C   UNL     1     -10.223   9.154  70.887  1.00  0.00    -0.351 A  
BRANCH   6   9
HETATM    9  C   UNL     1      -9.259  10.083  68.760  1.00  0.00    -0.159 C  
BRANCH   9  10
HETATM   10  C   UNL     1      -9.113   8.831  67.860  1.00  0.00    -0.139 C  
HETATM   11  C   UNL     1     -10.474   8.416  67.291  1.00  0.00    -0.373 C  
BRANCH  10  12
HETATM   12  N   UNL     1      -8.191   9.040  66.723  1.00  0.00    -0.114 NA 
HETATM   13  H   UNL     1      -8.438   8.437  65.939  1.00  0.00     0.000 HD 
BRANCH  12  14
HETATM   14  C   UNL     1      -8.112  10.444  66.301  1.00  0.00    -0.136 C  
BRANCH  14  15
HETATM   15  C   UNL     1      -8.695  10.704  64.888  1.00  0.00    -0.168 C  
HETATM   16  H   UNL     1      -9.345   9.610  63.391  1.00  0.00     0.000 HD 
HETATM   17  O   UNL     1      -8.988   9.451  64.257  1.00  0.00    -0.219 OA 
BRANCH  15  18
HETATM   18  C   UNL     1      -9.957  11.554  64.967  1.00  0.00    -0.305 A  
HETATM   19  C   UNL     1     -10.409  12.076  66.198  1.00  0.00    -0.257 A  
HETATM   20  C   UNL     1     -11.550  12.882  66.276  1.00  0.00    -0.372 A  
HETATM   21  H   UNL     1     -13.856  14.114  64.288  1.00  0.00     0.000 HD 
HETATM   22  C   UNL     1     -12.240  13.173  65.093  1.00  0.00    -0.450 A  
HETATM   23  C   UNL     1     -10.674  11.863  63.805  1.00  0.00    -0.476 A  
HETATM   24  C   UNL     1     -11.806  12.677  63.868  1.00  0.00    -0.544 A  
HETATM   25  O   UNL     1     -13.388  13.917  65.090  1.00  0.00    -0.698 OA 
BRANCH  20  26
HETATM   26  N   UNL     1     -12.001  13.433  67.490  1.00  0.00    -0.359 N  
HETATM   27  H   UNL     1     -12.912  13.118  67.820  1.00  0.00     0.000 HD 
HETATM   28  O   UNL     1     -11.846  14.789  69.303  1.00  0.00    -0.296 OA 
HETATM   29  C   UNL     1     -11.353  14.341  68.273  1.00  0.00    -0.289 C  
ENDBRANCH  20  26
ENDBRANCH  15  18
ENDBRANCH  14  15
ENDBRANCH  12  14
ENDBRANCH  10  12
ENDBRANCH   9  10
ENDBRANCH   6   9
ENDBRANCH   2   3
TORSDOF 8
ENDMDL
MODEL       33
REMARK 921   NORMALIZED FREE ENERGY PREDICTED BY IDOCK:   -5.75 KCAL/MOL
REMARK 922        TOTAL FREE ENERGY PREDICTED BY IDOCK:   -9.93 KCAL/MOL
REMARK 923 INTER-LIGAND FREE ENERGY PREDICTED BY IDOCK:   -8.31 KCAL/MOL
REMARK 924 INTRA-LIGAND FREE ENERGY PREDICTED BY IDOCK:   -1.62 KCAL/MOL
REMARK 927      BINDING AFFINITY PREDICTED BY RF-SCORE:    0.00 PKD
ROOT
HETATM    1  C   UNL     1     -13.910   9.293  72.448  1.00  0.00    -0.416 C  
HETATM    2  O   UNL     1     -13.174  10.491  72.222  1.00  0.00    -0.402 OA 
ENDROOT
BRANCH   2   3
HETATM    3  C   UNL     1     -12.187  10.387  71.282  1.00  0.00    -0.389 A  
HETATM    4  C   UNL     1     -12.385  11.114  70.109  1.00  0.00    -0.373 A  
HETATM    5  C   UNL     1     -11.456  11.041  69.067  1.00  0.00    -0.368 A  
HETATM    6  C   UNL     1     -10.299  10.262  69.204  1.00  0.00    -0.241 A  
HETATM    7  C   UNL     1     -11.022   9.640  71.438  1.00  0.00    -0.354 A  
HETATM    8  C   UNL     1     -10.085   9.576  70.404  1.00  0.00    -0.329 A  
BRANCH   6   9
HETATM    9  C   UNL     1      -9.349  10.052  68.049  1.00  0.00    -0.139 C  
BRANCH   9  10
HETATM   10  C   UNL     1      -8.010  10.826  68.115  1.00  0.00    -0.114 C  
HETATM   11  C   UNL     1      -7.311  10.808  66.751  1.00  0.00    -0.129 C  
BRANCH  10  12
HETATM   12  N   UNL     1      -8.175  12.238  68.521  1.00  0.00    -0.280 NA 
HETATM   13  H   UNL     1      -7.386  12.550  69.086  1.00  0.00     0.000 HD 
BRANCH  12  14
HETATM   14  C   UNL     1      -8.393  13.139  67.381  1.00  0.00    -0.188 C  
BRANCH  14  15
HETATM   15  C   UNL     1      -9.759  13.872  67.418  1.00  0.00    -0.234 C  
HETATM   16  H   UNL     1     -10.383  15.730  67.290  1.00  0.00     0.000 HD 
HETATM   17  O   UNL     1      -9.546  15.281  67.267  1.00  0.00    -0.209 OA 
BRANCH  15  18
HETATM   18  C   UNL     1     -10.680  13.364  66.315  1.00  0.00    -0.290 A  
HETATM   19  C   UNL     1     -10.195  12.524  65.289  1.00  0.00    -0.302 A  
HETATM   20  C   UNL     1     -11.040  12.029  64.290  1.00  0.00    -0.351 A  
HETATM   21  H   UNL     1     -14.195  12.208  63.395  1.00  0.00     0.000 HD 
HETATM   22  C   UNL     1     -12.395  12.378  64.331  1.00  0.00    -0.447 A  
HETATM   23  C   UNL     1     -12.040  13.695  66.323  1.00  0.00    -0.477 A  
HETATM   24  C   UNL     1     -12.895  13.196  65.339  1.00  0.00    -0.275 A  
HETATM   25  O   UNL     1     -13.276  11.971  63.368  1.00  0.00    -0.687 OA 
BRANCH  20  26
HETATM   26  N   UNL     1     -10.580  11.169  63.275  1.00  0.00    -0.727 N  
HETATM   27  H   UNL     1     -11.178  11.078  62.453  1.00  0.00     0.000 HD 
HETATM   28  O   UNL     1      -9.127   9.695  62.345  1.00  0.00    -0.264 OA 
HETATM   29  C   UNL     1      -9.426  10.446  63.267  1.00  0.00    -0.323 C  
ENDBRANCH  20  26
ENDBRANCH  15  18
ENDBRANCH  14  15
ENDBRANCH  12  14
ENDBRANCH  10  12
ENDBRANCH   9  10
ENDBRANCH   6   9
ENDBRANCH   2   3
TORSDOF 8
ENDMDL
MODEL       34
REMARK 921   NORMALIZED FREE ENERGY PREDICTED BY IDOCK:   -5.74 KCAL/MOL
REMARK 922        TOTAL FREE ENERGY PREDICTED BY IDOCK:   -9.91 KCAL/MOL
REMARK 923 INTER-LIGAND FREE ENERGY PREDICTED BY IDOCK:   -9.17 KCAL/MOL
REMARK 924 INTRA-LIGAND FREE ENERGY PREDICTED BY IDOCK:   -0.74 KCAL/MOL
REMARK 927      BINDING AFFINITY PREDICTED BY RF-SCORE:    0.00 PKD
ROOT
HETATM    1  C   UNL     1      -8.440   6.723  67.728  1.00  0.00    -0.122 C  
HETATM    2  O   UNL     1      -9.586   7.374  68.268  1.00  0.00    -0.148 OA 
ENDROOT
BRANCH   2   3
HETATM    3  C   UNL     1      -9.926   8.543  67.647  1.00  0.00    -0.198 A  
HETATM    4  C   UNL     1     -10.571   9.489  68.442  1.00  0.00    -0.261 A  
HETATM    5  C   UNL     1     -11.000  10.700  67.893  1.00  0.00    -0.351 A  
HETATM    6  C   UNL     1     -10.757  10.990  66.544  1.00  0.00    -0.298 A  
HETATM    7  C   UNL     1      -9.650   8.841  66.315  1.00  0.00    -0.328 A  
HETATM    8  C   UNL     1     -10.065  10.056  65.765  1.00  0.00    -0.320 A  
BRANCH   6   9
HETATM    9  C   UNL     1     -11.328  12.225  65.887  1.00  0.00    -0.406 C  
BRANCH   9  10
HETATM   10  C   UNL     1     -10.776  12.571  64.483  1.00  0.00    -0.330 C  
HETATM   11  C   UNL     1     -11.907  12.579  63.448  1.00  0.00    -0.587 C  
BRANCH  10  12
HETATM   12  N   UNL     1     -10.106  13.888  64.431  1.00  0.00    -0.739 NA 
HETATM   13  H   UNL     1     -10.100  14.257  63.480  1.00  0.00     0.000 HD 
BRANCH  12  14
HETATM   14  C   UNL     1     -10.685  14.861  65.368  1.00  0.00    -0.377 C  
BRANCH  14  15
HETATM   15  C   UNL     1     -10.431  16.338  64.968  1.00  0.00    -0.130 C  
HETATM   16  H   UNL     1     -11.331  17.691  63.864  1.00  0.00     0.000 HD 
HETATM   17  O   UNL     1     -11.487  16.786  64.109  1.00  0.00    -1.171 OA 
BRANCH  15  18
HETATM   18  C   UNL     1     -10.351  17.229  66.202  1.00  0.00    -0.320 A  
HETATM   19  C   UNL     1     -10.605  16.715  67.491  1.00  0.00    -0.311 A  
HETATM   20  C   UNL     1     -10.504  17.519  68.632  1.00  0.00    -0.338 A  
HETATM   21  H   UNL     1      -9.802  20.630  69.419  1.00  0.00     0.000 HD 
HETATM   22  C   UNL     1     -10.132  18.859  68.470  1.00  0.00    -0.402 A  
HETATM   23  C   UNL     1      -9.985  18.575  66.077  1.00  0.00    -0.239 A  
HETATM   24  C   UNL     1      -9.868  19.383  67.208  1.00  0.00    -0.445 A  
HETATM   25  O   UNL     1     -10.054  19.720  69.529  1.00  0.00    -0.338 OA 
BRANCH  20  26
HETATM   26  N   UNL     1     -10.727  17.018  69.928  1.00  0.00    -0.288 N  
HETATM   27  H   UNL     1     -10.720  17.700  70.685  1.00  0.00     0.000 HD 
HETATM   28  O   UNL     1     -11.104  15.377  71.449  1.00  0.00    -0.364 OA 
HETATM   29  C   UNL     1     -10.952  15.721  70.282  1.00  0.00    -0.357 C  
ENDBRANCH  20  26
ENDBRANCH  15  18
ENDBRANCH  14  15
ENDBRANCH  12  14
ENDBRANCH  10  12
ENDBRANCH   9  10
ENDBRANCH   6   9
ENDBRANCH   2   3
TORSDOF 8
ENDMDL
MODEL       35
REMARK 921   NORMALIZED FREE ENERGY PREDICTED BY IDOCK:   -5.72 KCAL/MOL
REMARK 922        TOTAL FREE ENERGY PREDICTED BY IDOCK:   -9.89 KCAL/MOL
REMARK 923 INTER-LIGAND FREE ENERGY PREDICTED BY IDOCK:   -9.15 KCAL/MOL
REMARK 924 INTRA-LIGAND FREE ENERGY PREDICTED BY IDOCK:   -0.74 KCAL/MOL
REMARK 927      BINDING AFFINITY PREDICTED BY RF-SCORE:    0.00 PKD
ROOT
HETATM    1  C   UNL     1     -10.779  19.237  67.642  1.00  0.00    -0.425 C  
HETATM    2  O   UNL     1      -9.861  18.905  66.604  1.00  0.00    -0.320 OA 
ENDROOT
BRANCH   2   3
HETATM    3  C   UNL     1      -9.923  17.607  66.179  1.00  0.00    -0.272 A  
HETATM    4  C   UNL     1     -10.941  17.311  65.274  1.00  0.00     0.089 A  
HETATM    5  C   UNL     1     -11.117  16.004  64.813  1.00  0.00    -0.378 A  
HETATM    6  C   UNL     1     -10.253  14.983  65.230  1.00  0.00    -0.409 A  
HETATM    7  C   UNL     1      -9.038  16.604  66.570  1.00  0.00    -0.303 A  
HETATM    8  C   UNL     1      -9.204  15.300  66.101  1.00  0.00    -0.345 A  
BRANCH   6   9
HETATM    9  C   UNL     1     -10.501  13.540  64.862  1.00  0.00    -0.417 C  
BRANCH   9  10
HETATM   10  C   UNL     1     -11.971  13.058  64.932  1.00  0.00    -0.396 C  
HETATM   11  C   UNL     1     -12.380  12.386  63.617  1.00  0.00    -0.647 C  
BRANCH  10  12
HETATM   12  N   UNL     1     -12.213  12.093  66.027  1.00  0.00    -0.525 NA 
HETATM   13  H   UNL     1     -11.950  11.149  65.745  1.00  0.00     0.000 HD 
BRANCH  12  14
HETATM   14  C   UNL     1     -11.546  12.472  67.280  1.00  0.00    -0.367 C  
BRANCH  14  15
HETATM   15  C   UNL     1     -10.595  11.380  67.834  1.00  0.00    -0.189 C  
HETATM   16  H   UNL     1      -8.716  11.281  68.401  1.00  0.00     0.000 HD 
HETATM   17  O   UNL     1      -9.299  11.950  68.062  1.00  0.00    -0.180 OA 
BRANCH  15  18
HETATM   18  C   UNL     1     -11.138  10.792  69.131  1.00  0.00    -0.304 A  
HETATM   19  C   UNL     1     -11.998  11.537  69.966  1.00  0.00    -0.435 A  
HETATM   20  C   UNL     1     -12.526  10.993  71.142  1.00  0.00    -0.397 A  
HETATM   21  H   UNL     1     -12.399   8.194  72.857  1.00  0.00     0.000 HD 
HETATM   22  C   UNL     1     -12.189   9.676  71.477  1.00  0.00    -0.399 A  
HETATM   23  C   UNL     1     -10.819   9.478  69.498  1.00  0.00    -0.243 A  
HETATM   24  C   UNL     1     -11.350   8.921  70.662  1.00  0.00    -0.299 A  
HETATM   25  O   UNL     1     -12.628   9.087  72.630  1.00  0.00    -0.326 OA 
BRANCH  20  26
HETATM   26  N   UNL     1     -13.407  11.710  71.974  1.00  0.00    -0.500 N  
HETATM   27  H   UNL     1     -14.028  11.156  72.561  1.00  0.00     0.000 HD 
HETATM   28  O   UNL     1     -14.345  13.598  72.813  1.00  0.00    -0.622 OA 
HETATM   29  C   UNL     1     -13.520  13.064  72.080  1.00  0.00    -0.542 C  
ENDBRANCH  20  26
ENDBRANCH  15  18
ENDBRANCH  14  15
ENDBRANCH  12  14
ENDBRANCH  10  12
ENDBRANCH   9  10
ENDBRANCH   6   9
ENDBRANCH   2   3
TORSDOF 8
ENDMDL
MODEL       36
REMARK 921   NORMALIZED FREE ENERGY PREDICTED BY IDOCK:   -5.69 KCAL/MOL
REMARK 922        TOTAL FREE ENERGY PREDICTED BY IDOCK:   -9.84 KCAL/MOL
REMARK 923 INTER-LIGAND FREE ENERGY PREDICTED BY IDOCK:   -7.36 KCAL/MOL
REMARK 924 INTRA-LIGAND FREE ENERGY PREDICTED BY IDOCK:   -2.48 KCAL/MOL
REMARK 927      BINDING AFFINITY PREDICTED BY RF-SCORE:    0.00 PKD
ROOT
HETATM    1  C   UNL     1      -5.979  12.925  68.856  1.00  0.00    -0.079 C  
HETATM    2  O   UNL     1      -6.809  11.846  69.275  1.00  0.00    -0.108 OA 
ENDROOT
BRANCH   2   3
HETATM    3  C   UNL     1      -7.694  11.404  68.332  1.00  0.00    -0.127 A  
HETATM    4  C   UNL     1      -7.241  11.431  67.013  1.00  0.00    -0.141 A  
HETATM    5  C   UNL     1      -8.084  11.042  65.969  1.00  0.00    -0.110 A  
HETATM    6  C   UNL     1      -9.382  10.590  66.238  1.00  0.00    -0.202 A  
HETATM    7  C   UNL     1      -8.971  10.922  68.609  1.00  0.00    -0.162 A  
HETATM    8  C   UNL     1      -9.811  10.520  67.569  1.00  0.00    -0.196 A  
BRANCH   6   9
HETATM    9  C   UNL     1     -10.361  10.297  65.127  1.00  0.00    -0.198 C  
BRANCH   9  10
HETATM   10  C   UNL     1     -10.180  11.110  63.822  1.00  0.00    -0.377 C  
HETATM   11  C   UNL     1      -9.483  10.262  62.752  1.00  0.00    -0.323 C  
BRANCH  10  12
HETATM   12  N   UNL     1     -11.459  11.591  63.256  1.00  0.00    -0.852 NA 
HETATM   13  H   UNL     1     -12.251  11.119  63.691  1.00  0.00     0.000 HD 
BRANCH  12  14
HETATM   14  C   UNL     1     -11.608  13.050  63.338  1.00  0.00    -0.342 C  
BRANCH  14  15
HETATM   15  C   UNL     1     -12.382  13.528  64.594  1.00  0.00    -0.372 C  
HETATM   16  H   UNL     1     -13.732  12.776  65.807  1.00  0.00     0.000 HD 
HETATM   17  O   UNL     1     -13.258  12.483  65.038  1.00  0.00    -0.700 OA 
BRANCH  15  18
HETATM   18  C   UNL     1     -11.421  13.910  65.713  1.00  0.00    -0.324 A  
HETATM   19  C   UNL     1     -11.748  13.679  67.066  1.00  0.00    -0.419 A  
HETATM   20  C   UNL     1     -10.858  13.999  68.098  1.00  0.00    -0.248 A  
HETATM   21  H   UNL     1      -7.868  15.305  68.480  1.00  0.00     0.000 HD 
HETATM   22  C   UNL     1      -9.617  14.551  67.759  1.00  0.00    -0.215 A  
HETATM   23  C   UNL     1     -10.172  14.466  65.410  1.00  0.00    -0.408 A  
HETATM   24  C   UNL     1      -9.271  14.777  66.430  1.00  0.00    -0.301 A  
HETATM   25  O   UNL     1      -8.710  14.931  68.709  1.00  0.00    -0.170 OA 
BRANCH  20  26
HETATM   26  N   UNL     1     -11.155  13.752  69.451  1.00  0.00    -0.398 N  
HETATM   27  H   UNL     1     -10.551  14.203  70.138  1.00  0.00     0.000 HD 
HETATM   28  O   UNL     1     -12.319  12.796  71.148  1.00  0.00    -0.314 OA 
HETATM   29  C   UNL     1     -12.161  12.976  69.946  1.00  0.00    -0.277 C  
ENDBRANCH  20  26
ENDBRANCH  15  18
ENDBRANCH  14  15
ENDBRANCH  12  14
ENDBRANCH  10  12
ENDBRANCH   9  10
ENDBRANCH   6   9
ENDBRANCH   2   3
TORSDOF 8
ENDMDL
MODEL       37
REMARK 921   NORMALIZED FREE ENERGY PREDICTED BY IDOCK:   -5.66 KCAL/MOL
REMARK 922        TOTAL FREE ENERGY PREDICTED BY IDOCK:   -9.80 KCAL/MOL
REMARK 923 INTER-LIGAND FREE ENERGY PREDICTED BY IDOCK:   -9.01 KCAL/MOL
REMARK 924 INTRA-LIGAND FREE ENERGY PREDICTED BY IDOCK:   -0.79 KCAL/MOL
REMARK 927      BINDING AFFINITY PREDICTED BY RF-SCORE:    0.00 PKD
ROOT
HETATM    1  C   UNL     1      -9.775  20.291  66.976  1.00  0.00    -0.458 C  
HETATM    2  O   UNL     1      -8.939  19.186  67.309  1.00  0.00    -0.289 OA 
ENDROOT
BRANCH   2   3
HETATM    3  C   UNL     1      -9.296  18.002  66.726  1.00  0.00    -0.284 A  
HETATM    4  C   UNL     1     -10.391  18.054  65.865  1.00  0.00    -0.274 A  
HETATM    5  C   UNL     1     -10.864  16.891  65.252  1.00  0.00    -0.113 A  
HETATM    6  C   UNL     1     -10.223  15.665  65.472  1.00  0.00    -0.414 A  
HETATM    7  C   UNL     1      -8.633  16.793  66.920  1.00  0.00    -0.240 A  
HETATM    8  C   UNL     1      -9.095  15.631  66.299  1.00  0.00    -0.376 A  
BRANCH   6   9
HETATM    9  C   UNL     1     -10.791  14.371  64.939  1.00  0.00    -0.430 C  
BRANCH   9  10
HETATM   10  C   UNL     1     -12.250  14.046  65.343  1.00  0.00    -0.439 C  
HETATM   11  C   UNL     1     -12.655  12.660  64.828  1.00  0.00    -0.530 C  
BRANCH  10  12
HETATM   12  N   UNL     1     -12.465  14.065  66.806  1.00  0.00    -0.526 NA 
HETATM   13  H   UNL     1     -13.458  14.009  67.030  1.00  0.00     0.000 HD 
BRANCH  12  14
HETATM   14  C   UNL     1     -11.708  13.020  67.508  1.00  0.00    -0.370 C  
BRANCH  14  15
HETATM   15  C   UNL     1     -11.395  13.366  68.988  1.00  0.00    -0.287 C  
HETATM   16  H   UNL     1     -11.750  14.864  70.207  1.00  0.00     0.000 HD 
HETATM   17  O   UNL     1     -11.943  14.653  69.302  1.00  0.00    -0.303 OA 
BRANCH  15  18
HETATM   18  C   UNL     1     -11.971  12.312  69.926  1.00  0.00    -0.377 A  
HETATM   19  C   UNL     1     -11.707  10.939  69.732  1.00  0.00    -0.413 A  
HETATM   20  C   UNL     1     -12.207   9.969  70.607  1.00  0.00    -0.269 A  
HETATM   21  H   UNL     1     -14.059   9.786  73.314  1.00  0.00     0.000 HD 
HETATM   22  C   UNL     1     -12.976  10.389  71.699  1.00  0.00    -0.475 A  
HETATM   23  C   UNL     1     -12.747  12.697  71.027  1.00  0.00    -0.316 A  
HETATM   24  C   UNL     1     -13.239  11.739  71.913  1.00  0.00    -0.468 A  
HETATM   25  O   UNL     1     -13.537   9.501  72.574  1.00  0.00    -0.433 OA 
BRANCH  20  26
HETATM   26  N   UNL     1     -11.933   8.598  70.446  1.00  0.00    -0.472 N  
HETATM   27  H   UNL     1     -12.656   8.041  69.991  1.00  0.00     0.000 HD 
HETATM   28  O   UNL     1     -10.676   6.722  70.674  1.00  0.00    -0.221 OA 
HETATM   29  C   UNL     1     -10.808   7.931  70.830  1.00  0.00    -0.232 C  
ENDBRANCH  20  26
ENDBRANCH  15  18
ENDBRANCH  14  15
ENDBRANCH  12  14
ENDBRANCH  10  12
ENDBRANCH   9  10
ENDBRANCH   6   9
ENDBRANCH   2   3
TORSDOF 8
ENDMDL
MODEL       38
REMARK 921   NORMALIZED FREE ENERGY PREDICTED BY IDOCK:   -5.65 KCAL/MOL
REMARK 922        TOTAL FREE ENERGY PREDICTED BY IDOCK:   -9.78 KCAL/MOL
REMARK 923 INTER-LIGAND FREE ENERGY PREDICTED BY IDOCK:   -8.51 KCAL/MOL
REMARK 924 INTRA-LIGAND FREE ENERGY PREDICTED BY IDOCK:   -1.27 KCAL/MOL
REMARK 927      BINDING AFFINITY PREDICTED BY RF-SCORE:    0.00 PKD
ROOT
HETATM    1  C   UNL     1     -12.594  11.643  63.311  1.00  0.00    -0.112 C  
HETATM    2  O   UNL     1     -13.107  12.665  64.161  1.00  0.00    -0.715 OA 
ENDROOT
BRANCH   2   3
HETATM    3  C   UNL     1     -12.169  13.286  64.938  1.00  0.00    -0.420 A  
HETATM    4  C   UNL     1     -10.853  13.203  64.486  1.00  0.00    -0.400 A  
HETATM    5  C   UNL     1      -9.813  13.766  65.231  1.00  0.00    -0.155 A  
HETATM    6  C   UNL     1     -10.086  14.449  66.423  1.00  0.00    -0.294 A  
HETATM    7  C   UNL     1     -12.451  13.995  66.103  1.00  0.00    -0.467 A  
HETATM    8  C   UNL     1     -11.416  14.570  66.843  1.00  0.00    -0.375 A  
BRANCH   6   9
HETATM    9  C   UNL     1      -8.977  14.946  67.319  1.00  0.00    -0.212 C  
BRANCH   9  10
HETATM   10  C   UNL     1      -8.032  13.867  67.901  1.00  0.00    -0.160 C  
HETATM   11  C   UNL     1      -6.872  14.521  68.660  1.00  0.00    -0.093 C  
BRANCH  10  12
HETATM   12  N   UNL     1      -8.713  12.939  68.829  1.00  0.00    -0.377 NA 
HETATM   13  H   UNL     1      -9.606  13.322  69.138  1.00  0.00     0.000 HD 
BRANCH  12  14
HETATM   14  C   UNL     1      -8.886  11.593  68.266  1.00  0.00    -0.167 C  
BRANCH  14  15
HETATM   15  C   UNL     1     -10.366  11.214  68.001  1.00  0.00    -0.185 C  
HETATM   16  H   UNL     1     -11.333  10.005  66.792  1.00  0.00     0.000 HD 
HETATM   17  O   UNL     1     -10.426  10.237  66.954  1.00  0.00    -0.231 OA 
BRANCH  15  18
HETATM   18  C   UNL     1     -11.021  10.665  69.263  1.00  0.00    -0.294 A  
HETATM   19  C   UNL     1     -11.842  11.479  70.073  1.00  0.00    -0.435 A  
HETATM   20  C   UNL     1     -12.471  10.974  71.216  1.00  0.00    -0.370 A  
HETATM   21  H   UNL     1     -12.692   8.153  72.886  1.00  0.00     0.000 HD 
HETATM   22  C   UNL     1     -12.278   9.626  71.542  1.00  0.00    -0.399 A  
HETATM   23  C   UNL     1     -10.847   9.322  69.620  1.00  0.00    -0.228 A  
HETATM   24  C   UNL     1     -11.481   8.804  70.751  1.00  0.00    -0.309 A  
HETATM   25  O   UNL     1     -12.823   9.068  72.665  1.00  0.00    -0.381 OA 
BRANCH  20  26
HETATM   26  N   UNL     1     -13.314  11.763  72.021  1.00  0.00    -0.486 N  
HETATM   27  H   UNL     1     -13.870  11.267  72.718  1.00  0.00     0.000 HD 
HETATM   28  O   UNL     1     -14.257  13.712  72.699  1.00  0.00    -0.735 OA 
HETATM   29  C   UNL     1     -13.469  13.116  71.973  1.00  0.00    -0.507 C  
ENDBRANCH  20  26
ENDBRANCH  15  18
ENDBRANCH  14  15
ENDBRANCH  12  14
ENDBRANCH  10  12
ENDBRANCH   9  10
ENDBRANCH   6   9
ENDBRANCH   2   3
TORSDOF 8
ENDMDL
MODEL       39
REMARK 921   NORMALIZED FREE ENERGY PREDICTED BY IDOCK:   -5.64 KCAL/MOL
REMARK 922        TOTAL FREE ENERGY PREDICTED BY IDOCK:   -9.77 KCAL/MOL
REMARK 923 INTER-LIGAND FREE ENERGY PREDICTED BY IDOCK:   -8.62 KCAL/MOL
REMARK 924 INTRA-LIGAND FREE ENERGY PREDICTED BY IDOCK:   -1.16 KCAL/MOL
REMARK 927      BINDING AFFINITY PREDICTED BY RF-SCORE:    0.00 PKD
ROOT
HETATM    1  C   UNL     1     -11.296  16.086  70.437  1.00  0.00    -0.391 C  
HETATM    2  O   UNL     1     -12.554  15.490  70.736  1.00  0.00    -0.409 OA 
ENDROOT
BRANCH   2   3
HETATM    3  C   UNL     1     -12.563  14.123  70.701  1.00  0.00    -0.351 A  
HETATM    4  C   UNL     1     -13.208  13.491  71.763  1.00  0.00    -0.490 A  
HETATM    5  C   UNL     1     -13.235  12.097  71.845  1.00  0.00    -0.474 A  
HETATM    6  C   UNL     1     -12.641  11.318  70.843  1.00  0.00    -0.467 A  
HETATM    7  C   UNL     1     -12.003  13.354  69.684  1.00  0.00    -0.386 A  
HETATM    8  C   UNL     1     -12.039  11.960  69.756  1.00  0.00    -0.321 A  
BRANCH   6   9
HETATM    9  C   UNL     1     -12.531   9.818  70.973  1.00  0.00    -0.414 C  
BRANCH   9  10
HETATM   10  C   UNL     1     -13.034   9.206  72.303  1.00  0.00    -0.420 C  
HETATM   11  C   UNL     1     -14.410   8.558  72.111  1.00  0.00    -0.529 C  
BRANCH  10  12
HETATM   12  N   UNL     1     -12.122   8.178  72.850  1.00  0.00    -0.617 NA 
HETATM   13  H   UNL     1     -12.565   7.259  72.847  1.00  0.00     0.000 HD 
BRANCH  12  14
HETATM   14  C   UNL     1     -10.826   8.138  72.160  1.00  0.00    -0.303 C  
BRANCH  14  15
HETATM   15  C   UNL     1     -10.595   6.841  71.342  1.00  0.00    -0.221 C  
HETATM   16  H   UNL     1     -11.639   5.241  70.883  1.00  0.00     0.000 HD 
HETATM   17  O   UNL     1     -11.780   6.035  71.384  1.00  0.00    -0.235 OA 
BRANCH  15  18
HETATM   18  C   UNL     1     -10.240   7.167  69.896  1.00  0.00    -0.215 A  
HETATM   19  C   UNL     1     -10.758   6.403  68.828  1.00  0.00    -0.339 A  
HETATM   20  C   UNL     1     -10.461   6.714  67.496  1.00  0.00    -0.239 A  
HETATM   21  H   UNL     1      -8.707   8.907  65.792  1.00  0.00     0.000 HD 
HETATM   22  C   UNL     1      -9.638   7.816  67.237  1.00  0.00    -0.161 A  
HETATM   23  C   UNL     1      -9.417   8.260  69.601  1.00  0.00    -0.163 A  
HETATM   24  C   UNL     1      -9.125   8.588  68.276  1.00  0.00    -0.138 A  
HETATM   25  O   UNL     1      -9.266   8.159  65.968  1.00  0.00    -0.189 OA 
BRANCH  20  26
HETATM   26  N   UNL     1     -10.990   5.981  66.417  1.00  0.00    -0.714 N  
HETATM   27  H   UNL     1     -11.755   6.417  65.904  1.00  0.00     0.000 HD 
HETATM   28  O   UNL     1     -11.139   4.178  65.047  1.00  0.00    -0.180 OA 
HETATM   29  C   UNL     1     -10.591   4.753  65.982  1.00  0.00    -0.254 C  
ENDBRANCH  20  26
ENDBRANCH  15  18
ENDBRANCH  14  15
ENDBRANCH  12  14
ENDBRANCH  10  12
ENDBRANCH   9  10
ENDBRANCH   6   9
ENDBRANCH   2   3
TORSDOF 8
ENDMDL
MODEL       40
REMARK 921   NORMALIZED FREE ENERGY PREDICTED BY IDOCK:   -5.63 KCAL/MOL
REMARK 922        TOTAL FREE ENERGY PREDICTED BY IDOCK:   -9.76 KCAL/MOL
REMARK 923 INTER-LIGAND FREE ENERGY PREDICTED BY IDOCK:   -8.48 KCAL/MOL
REMARK 924 INTRA-LIGAND FREE ENERGY PREDICTED BY IDOCK:   -1.28 KCAL/MOL
REMARK 927      BINDING AFFINITY PREDICTED BY RF-SCORE:    0.00 PKD
ROOT
HETATM    1  C   UNL     1     -13.088  15.840  72.496  1.00  0.00    -0.474 C  
HETATM    2  O   UNL     1     -11.844  16.157  71.879  1.00  0.00    -0.480 OA 
ENDROOT
BRANCH   2   3
HETATM    3  C   UNL     1     -11.750  15.800  70.562  1.00  0.00    -0.377 A  
HETATM    4  C   UNL     1     -12.331  14.580  70.221  1.00  0.00    -0.408 A  
HETATM    5  C   UNL     1     -12.253  14.102  68.910  1.00  0.00    -0.257 A  
HETATM    6  C   UNL     1     -11.617  14.859  67.918  1.00  0.00    -0.364 A  
HETATM    7  C   UNL     1     -11.149  16.574  69.573  1.00  0.00    -0.245 A  
HETATM    8  C   UNL     1     -11.079  16.105  68.259  1.00  0.00    -0.348 A  
BRANCH   6   9
HETATM    9  C   UNL     1     -11.393  14.310  66.529  1.00  0.00    -0.351 C  
BRANCH   9  10
HETATM   10  C   UNL     1     -11.757  12.820  66.315  1.00  0.00    -0.402 C  
HETATM   11  C   UNL     1     -12.425  12.621  64.950  1.00  0.00    -0.564 C  
BRANCH  10  12
HETATM   12  N   UNL     1     -10.584  11.922  66.379  1.00  0.00    -0.240 NA 
HETATM   13  H   UNL     1      -9.774  12.407  66.766  1.00  0.00     0.000 HD 
BRANCH  12  14
HETATM   14  C   UNL     1     -10.855  10.681  67.116  1.00  0.00    -0.270 C  
BRANCH  14  15
HETATM   15  C   UNL     1     -10.033  10.540  68.424  1.00  0.00    -0.164 C  
HETATM   16  H   UNL     1      -8.868  11.695  69.506  1.00  0.00     0.000 HD 
HETATM   17  O   UNL     1      -9.372  11.781  68.705  1.00  0.00    -0.173 OA 
BRANCH  15  18
HETATM   18  C   UNL     1     -10.931  10.154  69.593  1.00  0.00    -0.305 A  
HETATM   19  C   UNL     1     -10.464   9.313  70.625  1.00  0.00    -0.325 A  
HETATM   20  C   UNL     1     -11.273   8.978  71.717  1.00  0.00    -0.378 A  
HETATM   21  H   UNL     1     -14.313   9.552  72.821  1.00  0.00     0.000 HD 
HETATM   22  C   UNL     1     -12.568   9.507  71.773  1.00  0.00    -0.405 A  
HETATM   23  C   UNL     1     -12.233  10.662  69.679  1.00  0.00    -0.277 A  
HETATM   24  C   UNL     1     -13.044  10.346  70.770  1.00  0.00    -0.362 A  
HETATM   25  O   UNL     1     -13.434   9.193  72.783  1.00  0.00    -0.424 OA 
BRANCH  20  26
HETATM   26  N   UNL     1     -10.816   8.163  72.769  1.00  0.00    -0.358 N  
HETATM   27  H   UNL     1     -10.324   8.634  73.528  1.00  0.00     0.000 HD 
HETATM   28  O   UNL     1     -10.493   6.183  73.831  1.00  0.00    -0.264 OA 
HETATM   29  C   UNL     1     -10.957   6.812  72.886  1.00  0.00    -0.263 C  
ENDBRANCH  20  26
ENDBRANCH  15  18
ENDBRANCH  14  15
ENDBRANCH  12  14
ENDBRANCH  10  12
ENDBRANCH   9  10
ENDBRANCH   6   9
ENDBRANCH   2   3
TORSDOF 8
ENDMDL
MODEL       41
REMARK 921   NORMALIZED FREE ENERGY PREDICTED BY IDOCK:   -5.61 KCAL/MOL
REMARK 922        TOTAL FREE ENERGY PREDICTED BY IDOCK:   -9.73 KCAL/MOL
REMARK 923 INTER-LIGAND FREE ENERGY PREDICTED BY IDOCK:   -8.81 KCAL/MOL
REMARK 924 INTRA-LIGAND FREE ENERGY PREDICTED BY IDOCK:   -0.92 KCAL/MOL
REMARK 927      BINDING AFFINITY PREDICTED BY RF-SCORE:    0.00 PKD
ROOT
HETATM    1  C   UNL     1      -5.967  20.022  66.946  1.00  0.00    -0.170 C  
HETATM    2  O   UNL     1      -7.097  20.642  67.554  1.00  0.00    -0.309 OA 
ENDROOT
BRANCH   2   3
HETATM    3  C   UNL     1      -8.138  19.797  67.823  1.00  0.00    -0.297 A  
HETATM    4  C   UNL     1      -7.790  18.547  68.333  1.00  0.00    -0.332 A  
HETATM    5  C   UNL     1      -8.775  17.594  68.600  1.00  0.00    -0.266 A  
HETATM    6  C   UNL     1     -10.127  17.895  68.389  1.00  0.00    -0.385 A  
HETATM    7  C   UNL     1      -9.482  20.115  67.645  1.00  0.00    -0.514 A  
HETATM    8  C   UNL     1     -10.470  19.170  67.923  1.00  0.00    -0.492 A  
BRANCH   6   9
HETATM    9  C   UNL     1     -11.201  16.844  68.534  1.00  0.00    -0.112 C  
BRANCH   9  10
HETATM   10  C   UNL     1     -11.043  15.862  69.720  1.00  0.00    -0.324 C  
HETATM   11  C   UNL     1     -12.383  15.663  70.437  1.00  0.00    -0.427 C  
BRANCH  10  12
HETATM   12  N   UNL     1     -10.548  14.530  69.308  1.00  0.00    -0.338 NA 
HETATM   13  H   UNL     1      -9.790  14.220  69.915  1.00  0.00     0.000 HD 
BRANCH  12  14
HETATM   14  C   UNL     1     -11.613  13.521  69.239  1.00  0.00    -0.316 C  
BRANCH  14  15
HETATM   15  C   UNL     1     -11.300  12.350  68.271  1.00  0.00    -0.284 C  
HETATM   16  H   UNL     1     -11.900  10.494  68.039  1.00  0.00     0.000 HD 
HETATM   17  O   UNL     1     -12.092  11.211  68.632  1.00  0.00    -0.556 OA 
BRANCH  15  18
HETATM   18  C   UNL     1     -11.588  12.747  66.828  1.00  0.00    -0.431 A  
HETATM   19  C   UNL     1     -10.827  12.221  65.761  1.00  0.00    -0.313 A  
HETATM   20  C   UNL     1     -11.105  12.556  64.432  1.00  0.00    -0.339 A  
HETATM   21  H   UNL     1     -13.201  14.427  62.729  1.00  0.00     0.000 HD 
HETATM   22  C   UNL     1     -12.170  13.426  64.173  1.00  0.00    -0.398 A  
HETATM   23  C   UNL     1     -12.645  13.617  66.533  1.00  0.00    -0.225 A  
HETATM   24  C   UNL     1     -12.939  13.947  65.209  1.00  0.00    -0.341 A  
HETATM   25  O   UNL     1     -12.478  13.836  62.905  1.00  0.00    -0.601 OA 
BRANCH  20  26
HETATM   26  N   UNL     1     -10.374  12.022  63.353  1.00  0.00    -0.507 N  
HETATM   27  H   UNL     1     -10.580  12.407  62.432  1.00  0.00     0.000 HD 
HETATM   28  O   UNL     1      -8.863  10.624  62.400  1.00  0.00    -0.223 OA 
HETATM   29  C   UNL     1      -9.423  11.048  63.405  1.00  0.00    -0.310 C  
ENDBRANCH  20  26
ENDBRANCH  15  18
ENDBRANCH  14  15
ENDBRANCH  12  14
ENDBRANCH  10  12
ENDBRANCH   9  10
ENDBRANCH   6   9
ENDBRANCH   2   3
TORSDOF 8
ENDMDL
MODEL       42
REMARK 921   NORMALIZED FREE ENERGY PREDICTED BY IDOCK:   -5.59 KCAL/MOL
REMARK 922        TOTAL FREE ENERGY PREDICTED BY IDOCK:   -9.70 KCAL/MOL
REMARK 923 INTER-LIGAND FREE ENERGY PREDICTED BY IDOCK:   -8.44 KCAL/MOL
REMARK 924 INTRA-LIGAND FREE ENERGY PREDICTED BY IDOCK:   -1.26 KCAL/MOL
REMARK 927      BINDING AFFINITY PREDICTED BY RF-SCORE:    0.00 PKD
ROOT
HETATM    1  C   UNL     1     -11.474  16.257  70.818  1.00  0.00    -0.297 C  
HETATM    2  O   UNL     1     -12.643  15.736  71.445  1.00  0.00    -0.430 OA 
ENDROOT
BRANCH   2   3
HETATM    3  C   UNL     1     -12.754  14.374  71.404  1.00  0.00    -0.342 A  
HETATM    4  C   UNL     1     -12.056  13.737  70.378  1.00  0.00    -0.421 A  
HETATM    5  C   UNL     1     -12.140  12.351  70.222  1.00  0.00    -0.377 A  
HETATM    6  C   UNL     1     -12.899  11.583  71.113  1.00  0.00    -0.414 A  
HETATM    7  C   UNL     1     -13.482  13.611  72.314  1.00  0.00    -0.652 A  
HETATM    8  C   UNL     1     -13.557  12.225  72.168  1.00  0.00    -0.348 A  
BRANCH   6   9
HETATM    9  C   UNL     1     -13.122  10.106  70.889  1.00  0.00    -0.412 C  
BRANCH   9  10
HETATM   10  C   UNL     1     -13.144   9.217  72.156  1.00  0.00    -0.446 C  
HETATM   11  C   UNL     1     -14.392   8.327  72.168  1.00  0.00    -0.498 C  
BRANCH  10  12
HETATM   12  N   UNL     1     -11.960   8.337  72.268  1.00  0.00    -0.364 NA 
HETATM   13  H   UNL     1     -12.230   7.355  72.218  1.00  0.00     0.000 HD 
BRANCH  12  14
HETATM   14  C   UNL     1     -10.922   8.647  71.276  1.00  0.00    -0.267 C  
BRANCH  14  15
HETATM   15  C   UNL     1     -10.672   7.504  70.258  1.00  0.00    -0.238 C  
HETATM   16  H   UNL     1     -11.676   5.959  69.575  1.00  0.00     0.000 HD 
HETATM   17  O   UNL     1     -11.829   6.659  70.199  1.00  0.00    -0.389 OA 
BRANCH  15  18
HETATM   18  C   UNL     1     -10.368   8.065  68.874  1.00  0.00    -0.222 A  
HETATM   19  C   UNL     1     -10.516   9.441  68.595  1.00  0.00    -0.236 A  
HETATM   20  C   UNL     1     -10.209   9.969  67.336  1.00  0.00    -0.219 A  
HETATM   21  H   UNL     1      -9.138   8.936  64.407  1.00  0.00     0.000 HD 
HETATM   22  C   UNL     1      -9.738   9.098  66.346  1.00  0.00    -0.262 A  
HETATM   23  C   UNL     1      -9.897   7.222  67.859  1.00  0.00    -0.172 A  
HETATM   24  C   UNL     1      -9.576   7.740  66.604  1.00  0.00    -0.286 A  
HETATM   25  O   UNL     1      -9.458   9.527  65.079  1.00  0.00    -0.267 OA 
BRANCH  20  26
HETATM   26  N   UNL     1     -10.325  11.341  67.047  1.00  0.00    -0.218 N  
HETATM   27  H   UNL     1      -9.454  11.869  66.997  1.00  0.00     0.000 HD 
HETATM   28  O   UNL     1     -11.472  13.250  66.614  1.00  0.00    -0.319 OA 
HETATM   29  C   UNL     1     -11.472  12.043  66.827  1.00  0.00    -0.345 C  
ENDBRANCH  20  26
ENDBRANCH  15  18
ENDBRANCH  14  15
ENDBRANCH  12  14
ENDBRANCH  10  12
ENDBRANCH   9  10
ENDBRANCH   6   9
ENDBRANCH   2   3
TORSDOF 8
ENDMDL
MODEL       43
REMARK 921   NORMALIZED FREE ENERGY PREDICTED BY IDOCK:   -5.55 KCAL/MOL
REMARK 922        TOTAL FREE ENERGY PREDICTED BY IDOCK:   -9.64 KCAL/MOL
REMARK 923 INTER-LIGAND FREE ENERGY PREDICTED BY IDOCK:   -7.22 KCAL/MOL
REMARK 924 INTRA-LIGAND FREE ENERGY PREDICTED BY IDOCK:   -2.41 KCAL/MOL
REMARK 927      BINDING AFFINITY PREDICTED BY RF-SCORE:    0.00 PKD
ROOT
HETATM    1  C   UNL     1     -12.517  11.827  63.579  1.00  0.00    -0.389 C  
HETATM    2  O   UNL     1     -13.050  12.473  64.732  1.00  0.00    -0.853 OA 
ENDROOT
BRANCH   2   3
HETATM    3  C   UNL     1     -12.254  13.451  65.259  1.00  0.00    -0.440 A  
HETATM    4  C   UNL     1     -12.383  13.669  66.630  1.00  0.00    -0.381 A  
HETATM    5  C   UNL     1     -11.647  14.676  67.258  1.00  0.00    -0.404 A  
HETATM    6  C   UNL     1     -10.746  15.457  66.523  1.00  0.00    -0.308 A  
HETATM    7  C   UNL     1     -11.333  14.201  64.530  1.00  0.00    -0.355 A  
HETATM    8  C   UNL     1     -10.586  15.199  65.157  1.00  0.00    -0.447 A  
BRANCH   6   9
HETATM    9  C   UNL     1     -10.042  16.641  67.142  1.00  0.00    -0.276 C  
BRANCH   9  10
HETATM   10  C   UNL     1      -8.509  16.514  67.312  1.00  0.00    -0.180 C  
HETATM   11  C   UNL     1      -7.813  17.823  66.922  1.00  0.00    -0.250 C  
BRANCH  10  12
HETATM   12  N   UNL     1      -8.104  16.181  68.695  1.00  0.00    -0.191 NA 
HETATM   13  H   UNL     1      -8.902  16.228  69.329  1.00  0.00     0.000 HD 
BRANCH  12  14
HETATM   14  C   UNL     1      -7.429  14.881  68.797  1.00  0.00    -0.132 C  
BRANCH  14  15
HETATM   15  C   UNL     1      -7.399  14.089  67.464  1.00  0.00    -0.170 C  
HETATM   16  H   UNL     1      -6.054  13.112  66.416  1.00  0.00     0.000 HD 
HETATM   17  O   UNL     1      -6.072  13.598  67.232  1.00  0.00    -0.324 OA 
BRANCH  15  18
HETATM   18  C   UNL     1      -8.384  12.926  67.501  1.00  0.00    -0.183 A  
HETATM   19  C   UNL     1      -9.164  12.666  68.648  1.00  0.00     0.029 A  
HETATM   20  C   UNL     1     -10.092  11.620  68.679  1.00  0.00    -0.198 A  
HETATM   21  H   UNL     1     -11.200   9.227  66.720  1.00  0.00     0.000 HD 
HETATM   22  C   UNL     1     -10.244  10.830  67.533  1.00  0.00    -0.196 A  
HETATM   23  C   UNL     1      -8.559  12.114  66.373  1.00  0.00    -0.002 A  
HETATM   24  C   UNL     1      -9.492  11.076  66.388  1.00  0.00    -0.218 A  
HETATM   25  O   UNL     1     -11.097   9.763  67.497  1.00  0.00    -0.234 OA 
BRANCH  20  26
HETATM   26  N   UNL     1     -10.897  11.361  69.804  1.00  0.00    -0.460 N  
HETATM   27  H   UNL     1     -10.505  10.737  70.509  1.00  0.00     0.000 HD 
HETATM   28  O   UNL     1     -12.781  11.541  71.056  1.00  0.00    -0.371 OA 
HETATM   29  C   UNL     1     -12.143  11.853  70.056  1.00  0.00    -0.291 C  
ENDBRANCH  20  26
ENDBRANCH  15  18
ENDBRANCH  14  15
ENDBRANCH  12  14
ENDBRANCH  10  12
ENDBRANCH   9  10
ENDBRANCH   6   9
ENDBRANCH   2   3
TORSDOF 8
ENDMDL
MODEL       44
REMARK 921   NORMALIZED FREE ENERGY PREDICTED BY IDOCK:   -5.55 KCAL/MOL
REMARK 922        TOTAL FREE ENERGY PREDICTED BY IDOCK:   -9.63 KCAL/MOL
REMARK 923 INTER-LIGAND FREE ENERGY PREDICTED BY IDOCK:   -8.97 KCAL/MOL
REMARK 924 INTRA-LIGAND FREE ENERGY PREDICTED BY IDOCK:   -0.67 KCAL/MOL
REMARK 927      BINDING AFFINITY PREDICTED BY RF-SCORE:    0.00 PKD
ROOT
HETATM    1  C   UNL     1      -6.129  20.875  67.053  1.00  0.00    -0.267 C  
HETATM    2  O   UNL     1      -7.500  21.248  67.156  1.00  0.00    -0.416 OA 
ENDROOT
BRANCH   2   3
HETATM    3  C   UNL     1      -8.361  20.208  67.373  1.00  0.00    -0.338 A  
HETATM    4  C   UNL     1      -7.909  19.216  68.242  1.00  0.00    -0.351 A  
HETATM    5  C   UNL     1      -8.694  18.089  68.497  1.00  0.00    -0.304 A  
HETATM    6  C   UNL     1      -9.958  17.959  67.906  1.00  0.00    -0.329 A  
HETATM    7  C   UNL     1      -9.631  20.102  66.812  1.00  0.00    -0.559 A  
HETATM    8  C   UNL     1     -10.424  18.983  67.074  1.00  0.00    -0.514 A  
BRANCH   6   9
HETATM    9  C   UNL     1     -10.769  16.693  68.049  1.00  0.00    -0.350 C  
BRANCH   9  10
HETATM   10  C   UNL     1     -10.855  15.789  66.795  1.00  0.00    -0.254 C  
HETATM   11  C   UNL     1      -9.456  15.508  66.237  1.00  0.00    -0.356 C  
BRANCH  10  12
HETATM   12  N   UNL     1     -11.507  14.488  67.061  1.00  0.00    -0.357 NA 
HETATM   13  H   UNL     1     -12.225  14.291  66.365  1.00  0.00     0.000 HD 
BRANCH  12  14
HETATM   14  C   UNL     1     -10.549  13.379  67.157  1.00  0.00    -0.259 C  
BRANCH  14  15
HETATM   15  C   UNL     1     -11.198  11.980  66.990  1.00  0.00    -0.320 C  
HETATM   16  H   UNL     1     -10.810  10.341  65.978  1.00  0.00     0.000 HD 
HETATM   17  O   UNL     1     -10.412  11.197  66.081  1.00  0.00    -0.244 OA 
BRANCH  15  18
HETATM   18  C   UNL     1     -11.304  11.266  68.332  1.00  0.00    -0.348 A  
HETATM   19  C   UNL     1     -11.987  11.853  69.419  1.00  0.00    -0.350 A  
HETATM   20  C   UNL     1     -12.116  11.191  70.645  1.00  0.00    -0.379 A  
HETATM   21  H   UNL     1     -11.220   8.355  72.038  1.00  0.00     0.000 HD 
HETATM   22  C   UNL     1     -11.556   9.915  70.774  1.00  0.00    -0.349 A  
HETATM   23  C   UNL     1     -10.754   9.989  68.497  1.00  0.00    -0.264 A  
HETATM   24  C   UNL     1     -10.887   9.314  69.711  1.00  0.00    -0.239 A  
HETATM   25  O   UNL     1     -11.600   9.221  71.951  1.00  0.00    -0.372 OA 
BRANCH  20  26
HETATM   26  N   UNL     1     -12.815  11.749  71.731  1.00  0.00    -0.345 N  
HETATM   27  H   UNL     1     -12.967  11.139  72.534  1.00  0.00     0.000 HD 
HETATM   28  O   UNL     1     -13.939  13.399  72.810  1.00  0.00    -0.724 OA 
HETATM   29  C   UNL     1     -13.311  13.015  71.829  1.00  0.00    -0.378 C  
ENDBRANCH  20  26
ENDBRANCH  15  18
ENDBRANCH  14  15
ENDBRANCH  12  14
ENDBRANCH  10  12
ENDBRANCH   9  10
ENDBRANCH   6   9
ENDBRANCH   2   3
TORSDOF 8
ENDMDL
MODEL       45
REMARK 921   NORMALIZED FREE ENERGY PREDICTED BY IDOCK:   -5.53 KCAL/MOL
REMARK 922        TOTAL FREE ENERGY PREDICTED BY IDOCK:   -9.61 KCAL/MOL
REMARK 923 INTER-LIGAND FREE ENERGY PREDICTED BY IDOCK:   -8.86 KCAL/MOL
REMARK 924 INTRA-LIGAND FREE ENERGY PREDICTED BY IDOCK:   -0.75 KCAL/MOL
REMARK 927      BINDING AFFINITY PREDICTED BY RF-SCORE:    0.00 PKD
ROOT
HETATM    1  C   UNL     1     -10.507   9.312  70.577  1.00  0.00    -0.255 C  
HETATM    2  O   UNL     1     -11.920   9.471  70.490  1.00  0.00    -0.234 OA 
ENDROOT
BRANCH   2   3
HETATM    3  C   UNL     1     -12.372  10.733  70.762  1.00  0.00    -0.383 A  
HETATM    4  C   UNL     1     -11.971  11.727  69.870  1.00  0.00    -0.405 A  
HETATM    5  C   UNL     1     -12.342  13.057  70.082  1.00  0.00    -0.270 A  
HETATM    6  C   UNL     1     -13.148  13.402  71.175  1.00  0.00    -0.254 A  
HETATM    7  C   UNL     1     -13.202  11.063  71.830  1.00  0.00    -0.505 A  
HETATM    8  C   UNL     1     -13.586  12.390  72.037  1.00  0.00    -0.349 A  
BRANCH   6   9
HETATM    9  C   UNL     1     -13.449  14.843  71.510  1.00  0.00    -0.491 C  
BRANCH   9  10
HETATM   10  C   UNL     1     -12.295  15.653  72.150  1.00  0.00    -0.430 C  
HETATM   11  C   UNL     1     -12.025  15.168  73.578  1.00  0.00    -0.495 C  
BRANCH  10  12
HETATM   12  N   UNL     1     -11.028  15.556  71.392  1.00  0.00    -0.357 NA 
HETATM   13  H   UNL     1     -10.782  14.582  71.217  1.00  0.00     0.000 HD 
BRANCH  12  14
HETATM   14  C   UNL     1     -11.051  16.325  70.141  1.00  0.00    -0.341 C  
BRANCH  14  15
HETATM   15  C   UNL     1      -9.887  15.978  69.176  1.00  0.00    -0.247 C  
HETATM   16  H   UNL     1      -8.710  14.437  68.857  1.00  0.00     0.000 HD 
HETATM   17  O   UNL     1      -9.423  14.649  69.448  1.00  0.00    -0.064 OA 
BRANCH  15  18
HETATM   18  C   UNL     1     -10.334  16.085  67.723  1.00  0.00    -0.279 A  
HETATM   19  C   UNL     1     -10.846  14.966  67.033  1.00  0.00    -0.315 A  
HETATM   20  C   UNL     1     -11.288  15.063  65.708  1.00  0.00    -0.279 A  
HETATM   21  H   UNL     1     -11.544  17.322  63.338  1.00  0.00     0.000 HD 
HETATM   22  C   UNL     1     -11.220  16.309  65.074  1.00  0.00    -0.176 A  
HETATM   23  C   UNL     1     -10.278  17.316  67.056  1.00  0.00    -0.320 A  
HETATM   24  C   UNL     1     -10.727  17.427  65.740  1.00  0.00    -0.120 A  
HETATM   25  O   UNL     1     -11.590  16.477  63.769  1.00  0.00    -1.109 OA 
BRANCH  20  26
HETATM   26  N   UNL     1     -11.826  13.964  65.012  1.00  0.00    -0.355 N  
HETATM   27  H   UNL     1     -12.826  13.802  65.125  1.00  0.00     0.000 HD 
HETATM   28  O   UNL     1     -11.712  12.142  63.666  1.00  0.00    -0.427 OA 
HETATM   29  C   UNL     1     -11.158  13.093  64.205  1.00  0.00    -0.396 C  
ENDBRANCH  20  26
ENDBRANCH  15  18
ENDBRANCH  14  15
ENDBRANCH  12  14
ENDBRANCH  10  12
ENDBRANCH   9  10
ENDBRANCH   6   9
ENDBRANCH   2   3
TORSDOF 8
ENDMDL
MODEL       46
REMARK 921   NORMALIZED FREE ENERGY PREDICTED BY IDOCK:   -5.52 KCAL/MOL
REMARK 922        TOTAL FREE ENERGY PREDICTED BY IDOCK:   -9.60 KCAL/MOL
REMARK 923 INTER-LIGAND FREE ENERGY PREDICTED BY IDOCK:   -8.28 KCAL/MOL
REMARK 924 INTRA-LIGAND FREE ENERGY PREDICTED BY IDOCK:   -1.32 KCAL/MOL
REMARK 927      BINDING AFFINITY PREDICTED BY RF-SCORE:    0.00 PKD
ROOT
HETATM    1  C   UNL     1     -12.271  15.846  71.617  1.00  0.00    -0.479 C  
HETATM    2  O   UNL     1     -11.038  16.009  70.923  1.00  0.00    -0.339 OA 
ENDROOT
BRANCH   2   3
HETATM    3  C   UNL     1     -11.082  15.691  69.595  1.00  0.00    -0.299 A  
HETATM    4  C   UNL     1     -11.908  14.621  69.253  1.00  0.00    -0.357 A  
HETATM    5  C   UNL     1     -11.990  14.187  67.927  1.00  0.00    -0.378 A  
HETATM    6  C   UNL     1     -11.268  14.843  66.922  1.00  0.00    -0.343 A  
HETATM    7  C   UNL     1     -10.389  16.369  68.595  1.00  0.00    -0.273 A  
HETATM    8  C   UNL     1     -10.479  15.946  67.267  1.00  0.00    -0.310 A  
BRANCH   6   9
HETATM    9  C   UNL     1     -11.225  14.314  65.508  1.00  0.00    -0.320 C  
BRANCH   9  10
HETATM   10  C   UNL     1     -10.712  12.863  65.335  1.00  0.00    -0.285 C  
HETATM   11  C   UNL     1     -10.608  12.504  63.849  1.00  0.00    -0.472 C  
BRANCH  10  12
HETATM   12  N   UNL     1      -9.384  12.641  65.948  1.00  0.00    -0.446 NA 
HETATM   13  H   UNL     1      -8.958  13.525  66.225  1.00  0.00     0.000 HD 
BRANCH  12  14
HETATM   14  C   UNL     1      -9.426  11.702  67.076  1.00  0.00    -0.182 C  
BRANCH  14  15
HETATM   15  C   UNL     1     -10.552  10.641  66.963  1.00  0.00    -0.262 C  
HETATM   16  H   UNL     1     -10.840   8.969  65.973  1.00  0.00     0.000 HD 
HETATM   17  O   UNL     1     -10.151   9.618  66.042  1.00  0.00    -0.283 OA 
BRANCH  15  18
HETATM   18  C   UNL     1     -10.858  10.025  68.323  1.00  0.00    -0.286 A  
HETATM   19  C   UNL     1     -11.630  10.718  69.281  1.00  0.00    -0.376 A  
HETATM   20  C   UNL     1     -11.941  10.146  70.520  1.00  0.00    -0.311 A  
HETATM   21  H   UNL     1     -11.382   7.369  72.182  1.00  0.00     0.000 HD 
HETATM   22  C   UNL     1     -11.475   8.855  70.793  1.00  0.00    -0.275 A  
HETATM   23  C   UNL     1     -10.405   8.737  68.631  1.00  0.00    -0.230 A  
HETATM   24  C   UNL     1     -10.721   8.152  69.859  1.00  0.00    -0.241 A  
HETATM   25  O   UNL     1     -11.698   8.245  71.996  1.00  0.00    -0.300 OA 
BRANCH  20  26
HETATM   26  N   UNL     1     -12.731  10.810  71.477  1.00  0.00    -0.421 N  
HETATM   27  H   UNL     1     -13.187  10.223  72.175  1.00  0.00     0.000 HD 
HETATM   28  O   UNL     1     -13.690  12.633  72.429  1.00  0.00    -0.517 OA 
HETATM   29  C   UNL     1     -12.955  12.151  71.574  1.00  0.00    -0.295 C  
ENDBRANCH  20  26
ENDBRANCH  15  18
ENDBRANCH  14  15
ENDBRANCH  12  14
ENDBRANCH  10  12
ENDBRANCH   9  10
ENDBRANCH   6   9
ENDBRANCH   2   3
TORSDOF 8
ENDMDL
MODEL       47
REMARK 921   NORMALIZED FREE ENERGY PREDICTED BY IDOCK:   -5.51 KCAL/MOL
REMARK 922        TOTAL FREE ENERGY PREDICTED BY IDOCK:   -9.59 KCAL/MOL
REMARK 923 INTER-LIGAND FREE ENERGY PREDICTED BY IDOCK:   -8.61 KCAL/MOL
REMARK 924 INTRA-LIGAND FREE ENERGY PREDICTED BY IDOCK:   -0.98 KCAL/MOL
REMARK 927      BINDING AFFINITY PREDICTED BY RF-SCORE:    0.00 PKD
ROOT
HETATM    1  C   UNL     1      -5.674  20.751  63.506  1.00  0.00    -0.266 C  
HETATM    2  O   UNL     1      -5.573  21.246  64.838  1.00  0.00    -0.215 OA 
ENDROOT
BRANCH   2   3
HETATM    3  C   UNL     1      -6.234  20.503  65.776  1.00  0.00    -0.230 A  
HETATM    4  C   UNL     1      -6.468  19.170  65.443  1.00  0.00    -0.313 A  
HETATM    5  C   UNL     1      -7.175  18.337  66.313  1.00  0.00    -0.297 A  
HETATM    6  C   UNL     1      -7.629  18.824  67.546  1.00  0.00    -0.243 A  
HETATM    7  C   UNL     1      -6.652  20.983  67.016  1.00  0.00    -0.413 A  
HETATM    8  C   UNL     1      -7.347  20.150  67.894  1.00  0.00    -0.326 A  
BRANCH   6   9
HETATM    9  C   UNL     1      -8.513  17.993  68.445  1.00  0.00    -0.306 C  
BRANCH   9  10
HETATM   10  C   UNL     1      -9.937  18.544  68.704  1.00  0.00    -0.383 C  
HETATM   11  C   UNL     1     -10.684  18.746  67.382  1.00  0.00    -0.487 C  
BRANCH  10  12
HETATM   12  N   UNL     1     -10.756  17.655  69.556  1.00  0.00    -0.222 NA 
HETATM   13  H   UNL     1     -11.667  17.482  69.132  1.00  0.00     0.000 HD 
BRANCH  12  14
HETATM   14  C   UNL     1     -10.080  16.393  69.882  1.00  0.00     0.048 C  
BRANCH  14  15
HETATM   15  C   UNL     1     -11.054  15.225  70.186  1.00  0.00    -0.293 C  
HETATM   16  H   UNL     1     -12.886  15.039  70.872  1.00  0.00     0.000 HD 
HETATM   17  O   UNL     1     -12.289  15.754  70.686  1.00  0.00    -0.408 OA 
BRANCH  15  18
HETATM   18  C   UNL     1     -11.314  14.393  68.935  1.00  0.00    -0.300 A  
HETATM   19  C   UNL     1     -11.458  15.003  67.670  1.00  0.00    -0.344 A  
HETATM   20  C   UNL     1     -11.666  14.244  66.513  1.00  0.00    -0.394 A  
HETATM   21  H   UNL     1     -12.000  11.096  65.637  1.00  0.00     0.000 HD 
HETATM   22  C   UNL     1     -11.720  12.851  66.631  1.00  0.00    -0.390 A  
HETATM   23  C   UNL     1     -11.377  12.997  69.017  1.00  0.00    -0.340 A  
HETATM   24  C   UNL     1     -11.570  12.229  67.868  1.00  0.00    -0.416 A  
HETATM   25  O   UNL     1     -11.963  12.042  65.557  1.00  0.00    -0.443 OA 
BRANCH  20  26
HETATM   26  N   UNL     1     -11.786  14.832  65.240  1.00  0.00    -0.339 N  
HETATM   27  H   UNL     1     -12.235  14.267  64.520  1.00  0.00     0.000 HD 
HETATM   28  O   UNL     1     -11.489  16.486  63.715  1.00  0.00    -1.065 OA 
HETATM   29  C   UNL     1     -11.368  16.073  64.863  1.00  0.00    -0.229 C  
ENDBRANCH  20  26
ENDBRANCH  15  18
ENDBRANCH  14  15
ENDBRANCH  12  14
ENDBRANCH  10  12
ENDBRANCH   9  10
ENDBRANCH   6   9
ENDBRANCH   2   3
TORSDOF 8
ENDMDL
MODEL       48
REMARK 921   NORMALIZED FREE ENERGY PREDICTED BY IDOCK:   -5.51 KCAL/MOL
REMARK 922        TOTAL FREE ENERGY PREDICTED BY IDOCK:   -9.59 KCAL/MOL
REMARK 923 INTER-LIGAND FREE ENERGY PREDICTED BY IDOCK:   -8.92 KCAL/MOL
REMARK 924 INTRA-LIGAND FREE ENERGY PREDICTED BY IDOCK:   -0.67 KCAL/MOL
REMARK 927      BINDING AFFINITY PREDICTED BY RF-SCORE:    0.00 PKD
ROOT
HETATM    1  C   UNL     1      -9.580   3.809  72.194  1.00  0.00    -0.148 C  
HETATM    2  O   UNL     1     -10.463   4.608  72.975  1.00  0.00    -0.176 OA 
ENDROOT
BRANCH   2   3
HETATM    3  C   UNL     1     -10.668   5.872  72.494  1.00  0.00    -0.234 A  
HETATM    4  C   UNL     1     -10.823   5.979  71.112  1.00  0.00    -0.338 A  
HETATM    5  C   UNL     1     -10.994   7.230  70.515  1.00  0.00    -0.282 A  
HETATM    6  C   UNL     1     -11.044   8.388  71.302  1.00  0.00    -0.307 A  
HETATM    7  C   UNL     1     -10.754   7.015  73.284  1.00  0.00    -0.373 A  
HETATM    8  C   UNL     1     -10.937   8.266  72.692  1.00  0.00    -0.386 A  
BRANCH   6   9
HETATM    9  C   UNL     1     -11.087   9.763  70.679  1.00  0.00    -0.398 C  
BRANCH   9  10
HETATM   10  C   UNL     1     -12.494  10.344  70.398  1.00  0.00    -0.268 C  
HETATM   11  C   UNL     1     -12.793  11.511  71.346  1.00  0.00    -0.489 C  
BRANCH  10  12
HETATM   12  N   UNL     1     -12.653  10.835  69.012  1.00  0.00    -0.654 NA 
HETATM   13  H   UNL     1     -13.637  10.861  68.745  1.00  0.00     0.000 HD 
BRANCH  12  14
HETATM   14  C   UNL     1     -12.014  12.139  68.791  1.00  0.00    -0.239 C  
BRANCH  14  15
HETATM   15  C   UNL     1     -10.947  12.126  67.664  1.00  0.00    -0.243 C  
HETATM   16  H   UNL     1     -10.356  10.869  66.275  1.00  0.00     0.000 HD 
HETATM   17  O   UNL     1     -11.009  10.876  66.965  1.00  0.00    -0.273 OA 
BRANCH  15  18
HETATM   18  C   UNL     1     -11.170  13.278  66.692  1.00  0.00    -0.332 A  
HETATM   19  C   UNL     1     -10.579  14.541  66.908  1.00  0.00    -0.279 A  
HETATM   20  C   UNL     1     -10.753  15.595  66.004  1.00  0.00    -0.317 A  
HETATM   21  H   UNL     1     -12.308  16.204  63.175  1.00  0.00     0.000 HD 
HETATM   22  C   UNL     1     -11.528  15.368  64.860  1.00  0.00    -0.311 A  
HETATM   23  C   UNL     1     -11.941  13.088  65.538  1.00  0.00    -0.470 A  
HETATM   24  C   UNL     1     -12.111  14.127  64.623  1.00  0.00    -0.469 A  
HETATM   25  O   UNL     1     -11.782  16.357  63.951  1.00  0.00    -1.085 OA 
BRANCH  20  26
HETATM   26  N   UNL     1     -10.151  16.853  66.189  1.00  0.00    -0.329 N  
HETATM   27  H   UNL     1     -10.092  17.453  65.367  1.00  0.00     0.000 HD 
HETATM   28  O   UNL     1      -9.099  18.459  67.399  1.00  0.00    -0.262 OA 
HETATM   29  C   UNL     1      -9.637  17.358  67.346  1.00  0.00    -0.257 C  
ENDBRANCH  20  26
ENDBRANCH  15  18
ENDBRANCH  14  15
ENDBRANCH  12  14
ENDBRANCH  10  12
ENDBRANCH   9  10
ENDBRANCH   6   9
ENDBRANCH   2   3
TORSDOF 8
ENDMDL
MODEL       49
REMARK 921   NORMALIZED FREE ENERGY PREDICTED BY IDOCK:   -5.49 KCAL/MOL
REMARK 922        TOTAL FREE ENERGY PREDICTED BY IDOCK:   -9.56 KCAL/MOL
REMARK 923 INTER-LIGAND FREE ENERGY PREDICTED BY IDOCK:   -8.35 KCAL/MOL
REMARK 924 INTRA-LIGAND FREE ENERGY PREDICTED BY IDOCK:   -1.21 KCAL/MOL
REMARK 927      BINDING AFFINITY PREDICTED BY RF-SCORE:    0.00 PKD
ROOT
HETATM    1  C   UNL     1     -10.547  19.192  66.051  1.00  0.00    -0.442 C  
HETATM    2  O   UNL     1      -9.626  18.207  66.511  1.00  0.00    -0.299 OA 
ENDROOT
BRANCH   2   3
HETATM    3  C   UNL     1     -10.199  17.147  67.157  1.00  0.00    -0.316 A  
HETATM    4  C   UNL     1     -10.507  16.045  66.360  1.00  0.00    -0.313 A  
HETATM    5  C   UNL     1     -11.135  14.926  66.914  1.00  0.00    -0.337 A  
HETATM    6  C   UNL     1     -11.432  14.887  68.283  1.00  0.00    -0.343 A  
HETATM    7  C   UNL     1     -10.459  17.099  68.524  1.00  0.00    -0.377 A  
HETATM    8  C   UNL     1     -11.074  15.978  69.084  1.00  0.00    -0.317 A  
BRANCH   6   9
HETATM    9  C   UNL     1     -12.233  13.757  68.884  1.00  0.00    -0.235 C  
BRANCH   9  10
HETATM   10  C   UNL     1     -11.995  13.472  70.387  1.00  0.00    -0.295 C  
HETATM   11  C   UNL     1     -13.159  14.010  71.227  1.00  0.00    -0.399 C  
BRANCH  10  12
HETATM   12  N   UNL     1     -11.847  12.032  70.688  1.00  0.00    -0.468 NA 
HETATM   13  H   UNL     1     -12.492  11.746  71.425  1.00  0.00     0.000 HD 
BRANCH  12  14
HETATM   14  C   UNL     1     -11.995  11.181  69.500  1.00  0.00    -0.355 C  
BRANCH  14  15
HETATM   15  C   UNL     1     -10.785  10.245  69.250  1.00  0.00    -0.234 C  
HETATM   16  H   UNL     1     -10.353   8.356  69.577  1.00  0.00     0.000 HD 
HETATM   17  O   UNL     1     -11.094   8.929  69.730  1.00  0.00    -0.200 OA 
BRANCH  15  18
HETATM   18  C   UNL     1     -10.438  10.188  67.767  1.00  0.00    -0.277 A  
HETATM   19  C   UNL     1     -10.882  11.188  66.875  1.00  0.00    -0.333 A  
HETATM   20  C   UNL     1     -10.542  11.160  65.518  1.00  0.00    -0.225 A  
HETATM   21  H   UNL     1      -8.849   9.280  63.423  1.00  0.00     0.000 HD 
HETATM   22  C   UNL     1      -9.736  10.113  65.056  1.00  0.00    -0.318 A  
HETATM   23  C   UNL     1      -9.635   9.154  67.270  1.00  0.00    -0.200 A  
HETATM   24  C   UNL     1      -9.279   9.123  65.921  1.00  0.00    -0.286 A  
HETATM   25  O   UNL     1      -9.396   9.990  63.737  1.00  0.00    -0.267 OA 
BRANCH  20  26
HETATM   26  N   UNL     1     -10.953  12.162  64.619  1.00  0.00    -0.300 N  
HETATM   27  H   UNL     1     -10.237  12.823  64.320  1.00  0.00     0.000 HD 
HETATM   28  O   UNL     1     -12.469  13.273  63.349  1.00  0.00    -0.741 OA 
HETATM   29  C   UNL     1     -12.201  12.345  64.105  1.00  0.00    -0.468 C  
ENDBRANCH  20  26
ENDBRANCH  15  18
ENDBRANCH  14  15
ENDBRANCH  12  14
ENDBRANCH  10  12
ENDBRANCH   9  10
ENDBRANCH   6   9
ENDBRANCH   2   3
TORSDOF 8
ENDMDL
MODEL       50
REMARK 921   NORMALIZED FREE ENERGY PREDICTED BY IDOCK:   -5.49 KCAL/MOL
REMARK 922        TOTAL FREE ENERGY PREDICTED BY IDOCK:   -9.54 KCAL/MOL
REMARK 923 INTER-LIGAND FREE ENERGY PREDICTED BY IDOCK:   -8.66 KCAL/MOL
REMARK 924 INTRA-LIGAND FREE ENERGY PREDICTED BY IDOCK:   -0.88 KCAL/MOL
REMARK 927      BINDING AFFINITY PREDICTED BY RF-SCORE:    0.00 PKD
ROOT
HETATM    1  C   UNL     1     -10.353   5.389  71.028  1.00  0.00    -0.236 C  
HETATM    2  O   UNL     1     -11.329   6.220  70.407  1.00  0.00    -0.345 OA 
ENDROOT
BRANCH   2   3
HETATM    3  C   UNL     1     -10.909   6.840  69.263  1.00  0.00    -0.264 A  
HETATM    4  C   UNL     1     -10.521   8.172  69.400  1.00  0.00    -0.223 A  
HETATM    5  C   UNL     1     -10.117   8.909  68.285  1.00  0.00    -0.219 A  
HETATM    6  C   UNL     1     -10.066   8.308  67.020  1.00  0.00    -0.353 A  
HETATM    7  C   UNL     1     -10.825   6.227  68.015  1.00  0.00    -0.409 A  
HETATM    8  C   UNL     1     -10.409   6.957  66.900  1.00  0.00    -0.332 A  
BRANCH   6   9
HETATM    9  C   UNL     1      -9.769   9.112  65.777  1.00  0.00    -0.299 C  
BRANCH   9  10
HETATM   10  C   UNL     1     -10.379  10.533  65.718  1.00  0.00    -0.200 C  
HETATM   11  C   UNL     1      -9.310  11.590  66.014  1.00  0.00    -0.239 C  
BRANCH  10  12
HETATM   12  N   UNL     1     -10.980  10.852  64.404  1.00  0.00    -0.244 NA 
HETATM   13  H   UNL     1     -11.987  10.692  64.416  1.00  0.00     0.000 HD 
BRANCH  12  14
HETATM   14  C   UNL     1     -10.669  12.213  63.949  1.00  0.00    -0.407 C  
BRANCH  14  15
HETATM   15  C   UNL     1     -11.830  13.221  64.159  1.00  0.00    -0.443 C  
HETATM   16  H   UNL     1     -13.744  13.119  64.589  1.00  0.00     0.000 HD 
HETATM   17  O   UNL     1     -13.033  12.503  64.461  1.00  0.00    -0.752 OA 
BRANCH  15  18
HETATM   18  C   UNL     1     -11.508  14.193  65.287  1.00  0.00    -0.330 A  
HETATM   19  C   UNL     1     -12.119  14.070  66.554  1.00  0.00    -0.488 A  
HETATM   20  C   UNL     1     -11.807  14.940  67.604  1.00  0.00    -0.244 A  
HETATM   21  H   UNL     1      -9.887  17.542  68.183  1.00  0.00     0.000 HD 
HETATM   22  C   UNL     1     -10.858  15.944  67.377  1.00  0.00    -0.291 A  
HETATM   23  C   UNL     1     -10.567  15.212  65.094  1.00  0.00    -0.447 A  
HETATM   24  C   UNL     1     -10.238  16.077  66.138  1.00  0.00    -0.340 A  
HETATM   25  O   UNL     1     -10.530  16.860  68.337  1.00  0.00    -0.313 OA 
BRANCH  20  26
HETATM   26  N   UNL     1     -12.385  14.815  68.881  1.00  0.00    -0.587 N  
HETATM   27  H   UNL     1     -13.261  15.315  69.033  1.00  0.00     0.000 HD 
HETATM   28  O   UNL     1     -12.467  14.082  71.027  1.00  0.00    -0.330 OA 
HETATM   29  C   UNL     1     -11.904  14.102  69.938  1.00  0.00    -0.325 C  
ENDBRANCH  20  26
ENDBRANCH  15  18
ENDBRANCH  14  15
ENDBRANCH  12  14
ENDBRANCH  10  12
ENDBRANCH   9  10
ENDBRANCH   6   9
ENDBRANCH   2   3
TORSDOF 8
ENDMDL
MODEL       51
REMARK 921   NORMALIZED FREE ENERGY PREDICTED BY IDOCK:   -5.48 KCAL/MOL
REMARK 922        TOTAL FREE ENERGY PREDICTED BY IDOCK:   -9.54 KCAL/MOL
REMARK 923 INTER-LIGAND FREE ENERGY PREDICTED BY IDOCK:   -9.09 KCAL/MOL
REMARK 924 INTRA-LIGAND FREE ENERGY PREDICTED BY IDOCK:   -0.46 KCAL/MOL
REMARK 927      BINDING AFFINITY PREDICTED BY RF-SCORE:    0.00 PKD
ROOT
HETATM    1  C   UNL     1      -9.862   6.027  73.602  1.00  0.00    -0.178 C  
HETATM    2  O   UNL     1     -10.862   7.019  73.815  1.00  0.00    -0.301 OA 
ENDROOT
BRANCH   2   3
HETATM    3  C   UNL     1     -11.023   7.900  72.783  1.00  0.00    -0.393 A  
HETATM    4  C   UNL     1      -9.848   8.401  72.222  1.00  0.00    -0.383 A  
HETATM    5  C   UNL     1      -9.903   9.341  71.190  1.00  0.00    -0.342 A  
HETATM    6  C   UNL     1     -11.139   9.767  70.686  1.00  0.00    -0.398 A  
HETATM    7  C   UNL     1     -12.253   8.293  72.261  1.00  0.00    -0.428 A  
HETATM    8  C   UNL     1     -12.311   9.223  71.222  1.00  0.00    -0.403 A  
BRANCH   6   9
HETATM    9  C   UNL     1     -11.234  10.882  69.672  1.00  0.00    -0.348 C  
BRANCH   9  10
HETATM   10  C   UNL     1     -10.697  10.567  68.255  1.00  0.00    -0.229 C  
HETATM   11  C   UNL     1     -10.569   9.053  68.053  1.00  0.00    -0.242 C  
BRANCH  10  12
HETATM   12  N   UNL     1     -11.560  11.096  67.176  1.00  0.00    -0.475 NA 
HETATM   13  H   UNL     1     -12.196  11.808  67.535  1.00  0.00     0.000 HD 
BRANCH  12  14
HETATM   14  C   UNL     1     -10.796  11.603  66.030  1.00  0.00    -0.289 C  
BRANCH  14  15
HETATM   15  C   UNL     1     -11.424  12.858  65.369  1.00  0.00    -0.324 C  
HETATM   16  H   UNL     1     -13.212  13.410  64.772  1.00  0.00     0.000 HD 
HETATM   17  O   UNL     1     -12.828  12.642  65.178  1.00  0.00    -0.721 OA 
BRANCH  15  18
HETATM   18  C   UNL     1     -11.201  14.096  66.229  1.00  0.00    -0.329 A  
HETATM   19  C   UNL     1     -11.965  14.322  67.394  1.00  0.00    -0.426 A  
HETATM   20  C   UNL     1     -11.746  15.440  68.207  1.00  0.00    -0.297 A  
HETATM   21  H   UNL     1      -9.802  18.086  68.314  1.00  0.00     0.000 HD 
HETATM   22  C   UNL     1     -10.735  16.338  67.844  1.00  0.00    -0.329 A  
HETATM   23  C   UNL     1     -10.200  15.016  65.895  1.00  0.00    -0.335 A  
HETATM   24  C   UNL     1      -9.964  16.128  66.705  1.00  0.00    -0.264 A  
HETATM   25  O   UNL     1     -10.488  17.476  68.560  1.00  0.00    -0.362 OA 
BRANCH  20  26
HETATM   26  N   UNL     1     -12.480  15.668  69.386  1.00  0.00    -0.557 N  
HETATM   27  H   UNL     1     -13.110  16.470  69.379  1.00  0.00     0.000 HD 
HETATM   28  O   UNL     1     -13.098  15.237  71.526  1.00  0.00    -0.367 OA 
HETATM   29  C   UNL     1     -12.441  14.937  70.535  1.00  0.00    -0.363 C  
ENDBRANCH  20  26
ENDBRANCH  15  18
ENDBRANCH  14  15
ENDBRANCH  12  14
ENDBRANCH  10  12
ENDBRANCH   9  10
ENDBRANCH   6   9
ENDBRANCH   2   3
TORSDOF 8
ENDMDL
MODEL       52
REMARK 921   NORMALIZED FREE ENERGY PREDICTED BY IDOCK:   -5.48 KCAL/MOL
REMARK 922        TOTAL FREE ENERGY PREDICTED BY IDOCK:   -9.53 KCAL/MOL
REMARK 923 INTER-LIGAND FREE ENERGY PREDICTED BY IDOCK:   -7.93 KCAL/MOL
REMARK 924 INTRA-LIGAND FREE ENERGY PREDICTED BY IDOCK:   -1.60 KCAL/MOL
REMARK 927      BINDING AFFINITY PREDICTED BY RF-SCORE:    0.00 PKD
ROOT
HETATM    1  C   UNL     1     -11.220  16.274  70.320  1.00  0.00    -0.333 C  
HETATM    2  O   UNL     1     -12.216  15.769  71.205  1.00  0.00    -0.380 OA 
ENDROOT
BRANCH   2   3
HETATM    3  C   UNL     1     -12.399  14.416  71.148  1.00  0.00    -0.358 A  
HETATM    4  C   UNL     1     -13.211  13.869  72.141  1.00  0.00    -0.536 A  
HETATM    5  C   UNL     1     -13.426  12.490  72.199  1.00  0.00    -0.523 A  
HETATM    6  C   UNL     1     -12.853  11.644  71.240  1.00  0.00    -0.430 A  
HETATM    7  C   UNL     1     -11.856  13.584  70.172  1.00  0.00    -0.348 A  
HETATM    8  C   UNL     1     -12.079  12.207  70.218  1.00  0.00    -0.385 A  
BRANCH   6   9
HETATM    9  C   UNL     1     -12.950  10.142  71.355  1.00  0.00    -0.528 C  
BRANCH   9  10
HETATM   10  C   UNL     1     -11.611   9.365  71.335  1.00  0.00    -0.381 C  
HETATM   11  C   UNL     1     -11.596   8.291  72.428  1.00  0.00    -0.464 C  
BRANCH  10  12
HETATM   12  N   UNL     1     -11.347   8.699  70.042  1.00  0.00    -0.448 NA 
HETATM   13  H   UNL     1     -11.938   9.084  69.306  1.00  0.00     0.000 HD 
BRANCH  12  14
HETATM   14  C   UNL     1      -9.931   8.742  69.655  1.00  0.00    -0.191 C  
BRANCH  14  15
HETATM   15  C   UNL     1      -9.706   8.971  68.137  1.00  0.00    -0.152 C  
HETATM   16  H   UNL     1     -10.499   8.313  66.465  1.00  0.00     0.000 HD 
HETATM   17  O   UNL     1     -10.637   8.173  67.394  1.00  0.00    -0.279 OA 
BRANCH  15  18
HETATM   18  C   UNL     1      -9.879  10.441  67.777  1.00  0.00    -0.193 A  
HETATM   19  C   UNL     1      -8.936  11.409  68.187  1.00  0.00    -0.169 A  
HETATM   20  C   UNL     1      -9.071  12.756  67.834  1.00  0.00    -0.204 A  
HETATM   21  H   UNL     1     -11.139  14.689  66.168  1.00  0.00     0.000 HD 
HETATM   22  C   UNL     1     -10.168  13.132  67.050  1.00  0.00    -0.250 A  
HETATM   23  C   UNL     1     -10.966  10.853  66.996  1.00  0.00    -0.310 A  
HETATM   24  C   UNL     1     -11.103  12.192  66.627  1.00  0.00    -0.353 A  
HETATM   25  O   UNL     1     -10.395  14.434  66.700  1.00  0.00    -0.268 OA 
BRANCH  20  26
HETATM   26  N   UNL     1      -8.127  13.730  68.210  1.00  0.00    -0.144 N  
HETATM   27  H   UNL     1      -8.252  14.151  69.131  1.00  0.00     0.000 HD 
HETATM   28  O   UNL     1      -6.314  15.055  67.884  1.00  0.00    -0.137 OA 
HETATM   29  C   UNL     1      -7.065  14.174  67.480  1.00  0.00    -0.163 C  
ENDBRANCH  20  26
ENDBRANCH  15  18
ENDBRANCH  14  15
ENDBRANCH  12  14
ENDBRANCH  10  12
ENDBRANCH   9  10
ENDBRANCH   6   9
ENDBRANCH   2   3
TORSDOF 8
ENDMDL
MODEL       53
REMARK 921   NORMALIZED FREE ENERGY PREDICTED BY IDOCK:   -5.47 KCAL/MOL
REMARK 922        TOTAL FREE ENERGY PREDICTED BY IDOCK:   -9.52 KCAL/MOL
REMARK 923 INTER-LIGAND FREE ENERGY PREDICTED BY IDOCK:   -7.96 KCAL/MOL
REMARK 924 INTRA-LIGAND FREE ENERGY PREDICTED BY IDOCK:   -1.56 KCAL/MOL
REMARK 927      BINDING AFFINITY PREDICTED BY RF-SCORE:    0.00 PKD
ROOT
HETATM    1  C   UNL     1      -5.264  15.169  71.093  1.00  0.00    -0.126 C  
HETATM    2  O   UNL     1      -6.389  14.439  70.612  1.00  0.00    -0.182 OA 
ENDROOT
BRANCH   2   3
HETATM    3  C   UNL     1      -6.929  14.920  69.452  1.00  0.00    -0.170 A  
HETATM    4  C   UNL     1      -6.550  16.213  69.095  1.00  0.00    -0.176 A  
HETATM    5  C   UNL     1      -7.080  16.814  67.950  1.00  0.00    -0.152 A  
HETATM    6  C   UNL     1      -7.974  16.112  67.132  1.00  0.00    -0.232 A  
HETATM    7  C   UNL     1      -7.789  14.204  68.623  1.00  0.00    -0.137 A  
HETATM    8  C   UNL     1      -8.311  14.797  67.471  1.00  0.00    -0.197 A  
BRANCH   6   9
HETATM    9  C   UNL     1      -8.670  16.779  65.970  1.00  0.00    -0.218 C  
BRANCH   9  10
HETATM   10  C   UNL     1     -10.201  16.968  66.105  1.00  0.00    -0.337 C  
HETATM   11  C   UNL     1     -10.546  18.448  66.298  1.00  0.00    -0.343 C  
BRANCH  10  12
HETATM   12  N   UNL     1     -10.951  16.478  64.928  1.00  0.00    -0.639 NA 
HETATM   13  H   UNL     1     -10.595  16.897  64.069  1.00  0.00     0.000 HD 
BRANCH  12  14
HETATM   14  C   UNL     1     -10.968  15.013  64.830  1.00  0.00    -0.413 C  
BRANCH  14  15
HETATM   15  C   UNL     1     -12.239  14.363  65.435  1.00  0.00    -0.361 C  
HETATM   16  H   UNL     1     -13.688  13.199  64.795  1.00  0.00     0.000 HD 
HETATM   17  O   UNL     1     -12.909  13.597  64.425  1.00  0.00    -0.638 OA 
BRANCH  15  18
HETATM   18  C   UNL     1     -11.883  13.466  66.615  1.00  0.00    -0.443 A  
HETATM   19  C   UNL     1     -11.901  13.959  67.938  1.00  0.00    -0.413 A  
HETATM   20  C   UNL     1     -11.605  13.134  69.029  1.00  0.00    -0.312 A  
HETATM   21  H   UNL     1     -10.741  10.021  69.623  1.00  0.00     0.000 HD 
HETATM   22  C   UNL     1     -11.295  11.791  68.783  1.00  0.00    -0.267 A  
HETATM   23  C   UNL     1     -11.565  12.118  66.406  1.00  0.00    -0.429 A  
HETATM   24  C   UNL     1     -11.281  11.283  67.487  1.00  0.00    -0.357 A  
HETATM   25  O   UNL     1     -10.951  10.932  69.789  1.00  0.00    -0.255 OA 
BRANCH  20  26
HETATM   26  N   UNL     1     -11.643  13.600  70.356  1.00  0.00    -0.522 N  
HETATM   27  H   UNL     1     -11.345  12.943  71.076  1.00  0.00     0.000 HD 
HETATM   28  O   UNL     1     -12.064  15.135  71.973  1.00  0.00    -0.330 OA 
HETATM   29  C   UNL     1     -12.035  14.833  70.785  1.00  0.00    -0.310 C  
ENDBRANCH  20  26
ENDBRANCH  15  18
ENDBRANCH  14  15
ENDBRANCH  12  14
ENDBRANCH  10  12
ENDBRANCH   9  10
ENDBRANCH   6   9
ENDBRANCH   2   3
TORSDOF 8
ENDMDL
MODEL       54
REMARK 921   NORMALIZED FREE ENERGY PREDICTED BY IDOCK:   -5.44 KCAL/MOL
REMARK 922        TOTAL FREE ENERGY PREDICTED BY IDOCK:   -9.48 KCAL/MOL
REMARK 923 INTER-LIGAND FREE ENERGY PREDICTED BY IDOCK:   -8.41 KCAL/MOL
REMARK 924 INTRA-LIGAND FREE ENERGY PREDICTED BY IDOCK:   -1.08 KCAL/MOL
REMARK 927      BINDING AFFINITY PREDICTED BY RF-SCORE:    0.00 PKD
ROOT
HETATM    1  C   UNL     1      -9.076  10.002  63.202  1.00  0.00    -0.273 C  
HETATM    2  O   UNL     1     -10.172  10.774  63.684  1.00  0.00    -0.333 OA 
ENDROOT
BRANCH   2   3
HETATM    3  C   UNL     1     -10.390  10.679  65.031  1.00  0.00    -0.271 A  
HETATM    4  C   UNL     1     -11.080  11.742  65.611  1.00  0.00    -0.340 A  
HETATM    5  C   UNL     1     -11.316  11.764  66.988  1.00  0.00    -0.387 A  
HETATM    6  C   UNL     1     -10.888  10.702  67.796  1.00  0.00    -0.338 A  
HETATM    7  C   UNL     1      -9.994   9.604  65.823  1.00  0.00    -0.342 A  
HETATM    8  C   UNL     1     -10.239   9.616  67.197  1.00  0.00    -0.305 A  
BRANCH   6   9
HETATM    9  C   UNL     1     -11.002  10.760  69.300  1.00  0.00    -0.292 C  
BRANCH   9  10
HETATM   10  C   UNL     1     -12.186  11.582  69.866  1.00  0.00    -0.258 C  
HETATM   11  C   UNL     1     -12.896  10.805  70.980  1.00  0.00    -0.480 C  
BRANCH  10  12
HETATM   12  N   UNL     1     -11.773  12.890  70.419  1.00  0.00    -0.546 NA 
HETATM   13  H   UNL     1     -10.827  13.128  70.122  1.00  0.00     0.000 HD 
BRANCH  12  14
HETATM   14  C   UNL     1     -12.713  13.970  70.096  1.00  0.00    -0.150 C  
BRANCH  14  15
HETATM   15  C   UNL     1     -12.134  15.390  70.327  1.00  0.00    -0.369 C  
HETATM   16  H   UNL     1     -10.852  16.224  71.561  1.00  0.00     0.000 HD 
HETATM   17  O   UNL     1     -11.207  15.354  71.420  1.00  0.00    -0.367 OA 
BRANCH  15  18
HETATM   18  C   UNL     1     -11.437  15.904  69.072  1.00  0.00    -0.380 A  
HETATM   19  C   UNL     1     -10.619  17.053  69.110  1.00  0.00    -0.303 A  
HETATM   20  C   UNL     1      -9.951  17.513  67.970  1.00  0.00    -0.310 A  
HETATM   21  H   UNL     1      -9.626  16.724  64.798  1.00  0.00     0.000 HD 
HETATM   22  C   UNL     1     -10.105  16.800  66.776  1.00  0.00    -0.294 A  
HETATM   23  C   UNL     1     -11.571  15.216  67.860  1.00  0.00    -0.326 A  
HETATM   24  C   UNL     1     -10.900  15.659  66.719  1.00  0.00    -0.277 A  
HETATM   25  O   UNL     1      -9.522  17.208  65.609  1.00  0.00    -0.523 OA 
BRANCH  20  26
HETATM   26  N   UNL     1      -9.110  18.641  67.995  1.00  0.00    -0.297 N  
HETATM   27  H   UNL     1      -9.472  19.487  67.554  1.00  0.00     0.000 HD 
HETATM   28  O   UNL     1      -7.193  19.752  68.483  1.00  0.00    -0.311 OA 
HETATM   29  C   UNL     1      -7.865  18.729  68.542  1.00  0.00    -0.336 C  
ENDBRANCH  20  26
ENDBRANCH  15  18
ENDBRANCH  14  15
ENDBRANCH  12  14
ENDBRANCH  10  12
ENDBRANCH   9  10
ENDBRANCH   6   9
ENDBRANCH   2   3
TORSDOF 8
ENDMDL
MODEL       55
REMARK 921   NORMALIZED FREE ENERGY PREDICTED BY IDOCK:   -5.42 KCAL/MOL
REMARK 922        TOTAL FREE ENERGY PREDICTED BY IDOCK:   -9.45 KCAL/MOL
REMARK 923 INTER-LIGAND FREE ENERGY PREDICTED BY IDOCK:   -7.89 KCAL/MOL
REMARK 924 INTRA-LIGAND FREE ENERGY PREDICTED BY IDOCK:   -1.56 KCAL/MOL
REMARK 927      BINDING AFFINITY PREDICTED BY RF-SCORE:    0.00 PKD
ROOT
HETATM    1  C   UNL     1     -10.266   5.699  74.195  1.00  0.00    -0.270 C  
HETATM    2  O   UNL     1     -10.581   7.009  73.732  1.00  0.00    -0.375 OA 
ENDROOT
BRANCH   2   3
HETATM    3  C   UNL     1     -10.647   7.134  72.372  1.00  0.00    -0.226 A  
HETATM    4  C   UNL     1      -9.940   8.203  71.824  1.00  0.00    -0.264 A  
HETATM    5  C   UNL     1      -9.978   8.445  70.448  1.00  0.00    -0.199 A  
HETATM    6  C   UNL     1     -10.703   7.597  69.601  1.00  0.00    -0.230 A  
HETATM    7  C   UNL     1     -11.339   6.266  71.530  1.00  0.00    -0.352 A  
HETATM    8  C   UNL     1     -11.370   6.497  70.154  1.00  0.00    -0.463 A  
BRANCH   6   9
HETATM    9  C   UNL     1     -10.879   7.910  68.134  1.00  0.00     0.002 C  
BRANCH   9  10
HETATM   10  C   UNL     1      -9.789   8.799  67.488  1.00  0.00    -0.179 C  
HETATM   11  C   UNL     1      -8.969   7.995  66.474  1.00  0.00    -0.188 C  
BRANCH  10  12
HETATM   12  N   UNL     1     -10.343   9.979  66.789  1.00  0.00    -0.227 NA 
HETATM   13  H   UNL     1     -11.360   9.930  66.741  1.00  0.00     0.000 HD 
BRANCH  12  14
HETATM   14  C   UNL     1      -9.905  11.251  67.378  1.00  0.00    -0.181 C  
BRANCH  14  15
HETATM   15  C   UNL     1     -10.995  12.354  67.360  1.00  0.00    -0.254 C  
HETATM   16  H   UNL     1     -12.664  12.692  66.380  1.00  0.00     0.000 HD 
HETATM   17  O   UNL     1     -11.997  12.017  66.391  1.00  0.00    -0.611 OA 
BRANCH  15  18
HETATM   18  C   UNL     1     -11.635  12.509  68.735  1.00  0.00    -0.366 A  
HETATM   19  C   UNL     1     -11.876  11.388  69.558  1.00  0.00    -0.426 A  
HETATM   20  C   UNL     1     -12.434  11.525  70.834  1.00  0.00    -0.366 A  
HETATM   21  H   UNL     1     -13.546  13.898  72.814  1.00  0.00     0.000 HD 
HETATM   22  C   UNL     1     -12.746  12.811  71.290  1.00  0.00    -0.269 A  
HETATM   23  C   UNL     1     -11.962  13.780  69.221  1.00  0.00    -0.399 A  
HETATM   24  C   UNL     1     -12.507  13.930  70.497  1.00  0.00    -0.422 A  
HETATM   25  O   UNL     1     -13.334  13.025  72.505  1.00  0.00    -0.519 OA 
BRANCH  20  26
HETATM   26  N   UNL     1     -12.657  10.422  71.680  1.00  0.00    -0.419 N  
HETATM   27  H   UNL     1     -11.947  10.245  72.390  1.00  0.00     0.000 HD 
HETATM   28  O   UNL     1     -13.805   8.608  72.416  1.00  0.00    -0.394 OA 
HETATM   29  C   UNL     1     -13.716   9.565  71.654  1.00  0.00    -0.291 C  
ENDBRANCH  20  26
ENDBRANCH  15  18
ENDBRANCH  14  15
ENDBRANCH  12  14
ENDBRANCH  10  12
ENDBRANCH   9  10
ENDBRANCH   6   9
ENDBRANCH   2   3
TORSDOF 8
ENDMDL
MODEL       56
REMARK 921   NORMALIZED FREE ENERGY PREDICTED BY IDOCK:   -5.41 KCAL/MOL
REMARK 922        TOTAL FREE ENERGY PREDICTED BY IDOCK:   -9.44 KCAL/MOL
REMARK 923 INTER-LIGAND FREE ENERGY PREDICTED BY IDOCK:   -8.79 KCAL/MOL
REMARK 924 INTRA-LIGAND FREE ENERGY PREDICTED BY IDOCK:   -0.65 KCAL/MOL
REMARK 927      BINDING AFFINITY PREDICTED BY RF-SCORE:    0.00 PKD
ROOT
HETATM    1  C   UNL     1      -6.413  20.916  66.258  1.00  0.00    -0.238 C  
HETATM    2  O   UNL     1      -7.400  21.293  67.214  1.00  0.00    -0.484 OA 
ENDROOT
BRANCH   2   3
HETATM    3  C   UNL     1      -8.280  20.301  67.549  1.00  0.00    -0.310 A  
HETATM    4  C   UNL     1      -7.736  19.206  68.220  1.00  0.00    -0.350 A  
HETATM    5  C   UNL     1      -8.542  18.119  68.567  1.00  0.00    -0.307 A  
HETATM    6  C   UNL     1      -9.912  18.132  68.273  1.00  0.00    -0.380 A  
HETATM    7  C   UNL     1      -9.647  20.335  67.286  1.00  0.00    -0.581 A  
HETATM    8  C   UNL     1     -10.458  19.256  67.644  1.00  0.00    -0.557 A  
BRANCH   6   9
HETATM    9  C   UNL     1     -10.780  16.918  68.509  1.00  0.00    -0.359 C  
BRANCH   9  10
HETATM   10  C   UNL     1     -10.370  16.001  69.687  1.00  0.00    -0.283 C  
HETATM   11  C   UNL     1     -11.469  15.973  70.754  1.00  0.00    -0.444 C  
BRANCH  10  12
HETATM   12  N   UNL     1     -10.106  14.606  69.271  1.00  0.00    -0.377 NA 
HETATM   13  H   UNL     1      -9.335  14.206  69.806  1.00  0.00     0.000 HD 
BRANCH  12  14
HETATM   14  C   UNL     1     -11.298  13.752  69.349  1.00  0.00    -0.250 C  
BRANCH  14  15
HETATM   15  C   UNL     1     -11.050  12.293  68.885  1.00  0.00    -0.242 C  
HETATM   16  H   UNL     1      -9.493  11.195  68.408  1.00  0.00     0.000 HD 
HETATM   17  O   UNL     1      -9.644  12.088  68.692  1.00  0.00    -0.175 OA 
BRANCH  15  18
HETATM   18  C   UNL     1     -11.584  11.298  69.909  1.00  0.00    -0.413 A  
HETATM   19  C   UNL     1     -11.189   9.943  69.885  1.00  0.00    -0.298 A  
HETATM   20  C   UNL     1     -11.651   9.031  70.840  1.00  0.00    -0.290 A  
HETATM   21  H   UNL     1     -13.634   8.969  73.458  1.00  0.00     0.000 HD 
HETATM   22  C   UNL     1     -12.517   9.493  71.838  1.00  0.00    -0.384 A  
HETATM   23  C   UNL     1     -12.455  11.725  70.919  1.00  0.00    -0.416 A  
HETATM   24  C   UNL     1     -12.911  10.827  71.885  1.00  0.00    -0.524 A  
HETATM   25  O   UNL     1     -13.046   8.656  72.781  1.00  0.00    -0.304 OA 
BRANCH  20  26
HETATM   26  N   UNL     1     -11.247   7.683  70.849  1.00  0.00    -0.264 N  
HETATM   27  H   UNL     1     -10.676   7.385  71.640  1.00  0.00     0.000 HD 
HETATM   28  O   UNL     1     -11.106   5.584  69.998  1.00  0.00    -0.256 OA 
HETATM   29  C   UNL     1     -11.534   6.730  69.918  1.00  0.00    -0.300 C  
ENDBRANCH  20  26
ENDBRANCH  15  18
ENDBRANCH  14  15
ENDBRANCH  12  14
ENDBRANCH  10  12
ENDBRANCH   9  10
ENDBRANCH   6   9
ENDBRANCH   2   3
TORSDOF 8
ENDMDL
MODEL       57
REMARK 921   NORMALIZED FREE ENERGY PREDICTED BY IDOCK:   -5.41 KCAL/MOL
REMARK 922        TOTAL FREE ENERGY PREDICTED BY IDOCK:   -9.44 KCAL/MOL
REMARK 923 INTER-LIGAND FREE ENERGY PREDICTED BY IDOCK:   -8.37 KCAL/MOL
REMARK 924 INTRA-LIGAND FREE ENERGY PREDICTED BY IDOCK:   -1.07 KCAL/MOL
REMARK 927      BINDING AFFINITY PREDICTED BY RF-SCORE:    0.00 PKD
ROOT
HETATM    1  C   UNL     1     -12.899  11.950  63.469  1.00  0.00    -0.305 C  
HETATM    2  O   UNL     1     -13.232  12.585  64.700  1.00  0.00    -0.848 OA 
ENDROOT
BRANCH   2   3
HETATM    3  C   UNL     1     -12.170  12.817  65.530  1.00  0.00    -0.463 A  
HETATM    4  C   UNL     1     -10.948  12.289  65.116  1.00  0.00    -0.344 A  
HETATM    5  C   UNL     1      -9.810  12.431  65.914  1.00  0.00    -0.265 A  
HETATM    6  C   UNL     1      -9.878  13.134  67.123  1.00  0.00    -0.235 A  
HETATM    7  C   UNL     1     -12.236  13.548  66.714  1.00  0.00    -0.392 A  
HETATM    8  C   UNL     1     -11.098  13.703  67.507  1.00  0.00    -0.296 A  
BRANCH   6   9
HETATM    9  C   UNL     1      -8.704  13.186  68.072  1.00  0.00    -0.190 C  
BRANCH   9  10
HETATM   10  C   UNL     1      -7.904  11.872  68.244  1.00  0.00    -0.141 C  
HETATM   11  C   UNL     1      -6.406  12.124  68.041  1.00  0.00    -0.068 C  
BRANCH  10  12
HETATM   12  N   UNL     1      -8.082  11.255  69.576  1.00  0.00    -0.329 NA 
HETATM   13  H   UNL     1      -8.500  11.916  70.231  1.00  0.00     0.000 HD 
BRANCH  12  14
HETATM   14  C   UNL     1      -8.852  10.005  69.529  1.00  0.00    -0.195 C  
BRANCH  14  15
HETATM   15  C   UNL     1     -10.281  10.175  68.951  1.00  0.00    -0.199 C  
HETATM   16  H   UNL     1     -11.315   9.420  67.460  1.00  0.00     0.000 HD 
HETATM   17  O   UNL     1     -10.439   9.316  67.814  1.00  0.00    -0.233 OA 
BRANCH  15  18
HETATM   18  C   UNL     1     -11.335   9.845  70.001  1.00  0.00    -0.303 A  
HETATM   19  C   UNL     1     -11.447   8.545  70.540  1.00  0.00    -0.198 A  
HETATM   20  C   UNL     1     -12.392   8.242  71.527  1.00  0.00    -0.306 A  
HETATM   21  H   UNL     1     -14.775   9.737  73.223  1.00  0.00     0.000 HD 
HETATM   22  C   UNL     1     -13.229   9.266  71.984  1.00  0.00    -0.447 A  
HETATM   23  C   UNL     1     -12.192  10.845  70.479  1.00  0.00    -0.459 A  
HETATM   24  C   UNL     1     -13.129  10.557  71.472  1.00  0.00    -0.532 A  
HETATM   25  O   UNL     1     -14.206   9.042  72.913  1.00  0.00    -0.528 OA 
BRANCH  20  26
HETATM   26  N   UNL     1     -12.500   6.959  72.095  1.00  0.00    -0.524 N  
HETATM   27  H   UNL     1     -13.446   6.605  72.239  1.00  0.00     0.000 HD 
HETATM   28  O   UNL     1     -11.680   5.044  72.994  1.00  0.00    -0.297 OA 
HETATM   29  C   UNL     1     -11.482   6.137  72.475  1.00  0.00    -0.276 C  
ENDBRANCH  20  26
ENDBRANCH  15  18
ENDBRANCH  14  15
ENDBRANCH  12  14
ENDBRANCH  10  12
ENDBRANCH   9  10
ENDBRANCH   6   9
ENDBRANCH   2   3
TORSDOF 8
ENDMDL
MODEL       58
REMARK 921   NORMALIZED FREE ENERGY PREDICTED BY IDOCK:   -5.41 KCAL/MOL
REMARK 922        TOTAL FREE ENERGY PREDICTED BY IDOCK:   -9.43 KCAL/MOL
REMARK 923 INTER-LIGAND FREE ENERGY PREDICTED BY IDOCK:   -8.39 KCAL/MOL
REMARK 924 INTRA-LIGAND FREE ENERGY PREDICTED BY IDOCK:   -1.04 KCAL/MOL
REMARK 927      BINDING AFFINITY PREDICTED BY RF-SCORE:    0.00 PKD
ROOT
HETATM    1  C   UNL     1     -11.958  16.184  71.771  1.00  0.00    -0.489 C  
HETATM    2  O   UNL     1     -13.099  15.478  71.292  1.00  0.00    -0.464 OA 
ENDROOT
BRANCH   2   3
HETATM    3  C   UNL     1     -12.920  14.129  71.154  1.00  0.00    -0.349 A  
HETATM    4  C   UNL     1     -13.563  13.330  72.098  1.00  0.00    -0.655 A  
HETATM    5  C   UNL     1     -13.409  11.942  72.071  1.00  0.00    -0.425 A  
HETATM    6  C   UNL     1     -12.633  11.335  71.076  1.00  0.00    -0.495 A  
HETATM    7  C   UNL     1     -12.176  13.529  70.140  1.00  0.00    -0.400 A  
HETATM    8  C   UNL     1     -12.031  12.141  70.103  1.00  0.00    -0.394 A  
BRANCH   6   9
HETATM    9  C   UNL     1     -12.333   9.855  71.101  1.00  0.00    -0.466 C  
BRANCH   9  10
HETATM   10  C   UNL     1     -13.108   9.018  72.148  1.00  0.00    -0.435 C  
HETATM   11  C   UNL     1     -14.315   8.330  71.500  1.00  0.00    -0.525 C  
BRANCH  10  12
HETATM   12  N   UNL     1     -12.278   7.971  72.783  1.00  0.00    -0.614 NA 
HETATM   13  H   UNL     1     -12.528   7.854  73.765  1.00  0.00     0.000 HD 
BRANCH  12  14
HETATM   14  C   UNL     1     -12.333   6.688  72.071  1.00  0.00    -0.272 C  
BRANCH  14  15
HETATM   15  C   UNL     1     -10.965   5.961  71.990  1.00  0.00    -0.266 C  
HETATM   16  H   UNL     1     -10.282   4.162  72.387  1.00  0.00     0.000 HD 
HETATM   17  O   UNL     1     -11.119   4.607  72.436  1.00  0.00    -0.075 OA 
BRANCH  15  18
HETATM   18  C   UNL     1     -10.422   5.980  70.566  1.00  0.00    -0.303 A  
HETATM   19  C   UNL     1     -10.308   7.188  69.845  1.00  0.00    -0.224 A  
HETATM   20  C   UNL     1      -9.782   7.218  68.549  1.00  0.00    -0.149 A  
HETATM   21  H   UNL     1      -8.582   5.136  66.309  1.00  0.00     0.000 HD 
HETATM   22  C   UNL     1      -9.356   6.015  67.975  1.00  0.00    -0.114 A  
HETATM   23  C   UNL     1      -9.989   4.794  69.961  1.00  0.00    -0.314 A  
HETATM   24  C   UNL     1      -9.450   4.814  68.673  1.00  0.00    -0.208 A  
HETATM   25  O   UNL     1      -8.871   5.953  66.699  1.00  0.00    -0.118 OA 
BRANCH  20  26
HETATM   26  N   UNL     1      -9.636   8.416  67.824  1.00  0.00    -0.152 N  
HETATM   27  H   UNL     1      -8.695   8.640  67.502  1.00  0.00     0.000 HD 
HETATM   28  O   UNL     1     -10.381  10.347  66.894  1.00  0.00    -0.221 OA 
HETATM   29  C   UNL     1     -10.614   9.310  67.504  1.00  0.00    -0.262 C  
ENDBRANCH  20  26
ENDBRANCH  15  18
ENDBRANCH  14  15
ENDBRANCH  12  14
ENDBRANCH  10  12
ENDBRANCH   9  10
ENDBRANCH   6   9
ENDBRANCH   2   3
TORSDOF 8
ENDMDL
MODEL       59
REMARK 921   NORMALIZED FREE ENERGY PREDICTED BY IDOCK:   -5.41 KCAL/MOL
REMARK 922        TOTAL FREE ENERGY PREDICTED BY IDOCK:   -9.43 KCAL/MOL
REMARK 923 INTER-LIGAND FREE ENERGY PREDICTED BY IDOCK:   -8.71 KCAL/MOL
REMARK 924 INTRA-LIGAND FREE ENERGY PREDICTED BY IDOCK:   -0.72 KCAL/MOL
REMARK 927      BINDING AFFINITY PREDICTED BY RF-SCORE:    0.00 PKD
ROOT
HETATM    1  C   UNL     1      -9.568   5.439  66.275  1.00  0.00    -0.160 C  
HETATM    2  O   UNL     1     -10.691   5.412  67.151  1.00  0.00    -0.235 OA 
ENDROOT
BRANCH   2   3
HETATM    3  C   UNL     1     -10.747   6.448  68.041  1.00  0.00    -0.291 A  
HETATM    4  C   UNL     1     -11.165   6.121  69.330  1.00  0.00    -0.466 A  
HETATM    5  C   UNL     1     -11.300   7.115  70.303  1.00  0.00    -0.305 A  
HETATM    6  C   UNL     1     -10.984   8.446  70.003  1.00  0.00    -0.194 A  
HETATM    7  C   UNL     1     -10.398   7.764  67.747  1.00  0.00    -0.284 A  
HETATM    8  C   UNL     1     -10.518   8.758  68.720  1.00  0.00    -0.214 A  
BRANCH   6   9
HETATM    9  C   UNL     1     -11.251   9.561  70.986  1.00  0.00    -0.432 C  
BRANCH   9  10
HETATM   10  C   UNL     1     -12.687  10.141  70.991  1.00  0.00    -0.386 C  
HETATM   11  C   UNL     1     -13.526   9.488  72.094  1.00  0.00    -0.535 C  
BRANCH  10  12
HETATM   12  N   UNL     1     -12.720  11.604  71.203  1.00  0.00    -0.370 NA 
HETATM   13  H   UNL     1     -12.369  11.846  72.130  1.00  0.00     0.000 HD 
BRANCH  12  14
HETATM   14  C   UNL     1     -12.005  12.349  70.159  1.00  0.00    -0.298 C  
BRANCH  14  15
HETATM   15  C   UNL     1     -12.361  13.858  70.116  1.00  0.00    -0.334 C  
HETATM   16  H   UNL     1     -12.083  15.421  71.274  1.00  0.00     0.000 HD 
HETATM   17  O   UNL     1     -11.865  14.497  71.300  1.00  0.00    -0.337 OA 
BRANCH  15  18
HETATM   18  C   UNL     1     -11.767  14.522  68.880  1.00  0.00    -0.354 A  
HETATM   19  C   UNL     1     -11.810  13.889  67.619  1.00  0.00    -0.422 A  
HETATM   20  C   UNL     1     -11.295  14.505  66.474  1.00  0.00    -0.352 A  
HETATM   21  H   UNL     1      -9.792  17.299  65.622  1.00  0.00     0.000 HD 
HETATM   22  C   UNL     1     -10.735  15.782  66.599  1.00  0.00    -0.287 A  
HETATM   23  C   UNL     1     -11.197  15.798  68.970  1.00  0.00    -0.319 A  
HETATM   24  C   UNL     1     -10.692  16.428  67.831  1.00  0.00    -0.332 A  
HETATM   25  O   UNL     1     -10.172  16.433  65.537  1.00  0.00    -0.496 OA 
BRANCH  20  26
HETATM   26  N   UNL     1     -11.353  13.901  65.204  1.00  0.00    -0.308 N  
HETATM   27  H   UNL     1     -10.459  13.685  64.763  1.00  0.00     0.000 HD 
HETATM   28  O   UNL     1     -12.418  13.077  63.378  1.00  0.00    -0.710 OA 
HETATM   29  C   UNL     1     -12.471  13.573  64.498  1.00  0.00    -0.291 C  
ENDBRANCH  20  26
ENDBRANCH  15  18
ENDBRANCH  14  15
ENDBRANCH  12  14
ENDBRANCH  10  12
ENDBRANCH   9  10
ENDBRANCH   6   9
ENDBRANCH   2   3
TORSDOF 8
ENDMDL
MODEL       60
REMARK 921   NORMALIZED FREE ENERGY PREDICTED BY IDOCK:   -5.41 KCAL/MOL
REMARK 922        TOTAL FREE ENERGY PREDICTED BY IDOCK:   -9.43 KCAL/MOL
REMARK 923 INTER-LIGAND FREE ENERGY PREDICTED BY IDOCK:   -8.67 KCAL/MOL
REMARK 924 INTRA-LIGAND FREE ENERGY PREDICTED BY IDOCK:   -0.76 KCAL/MOL
REMARK 927      BINDING AFFINITY PREDICTED BY RF-SCORE:    0.00 PKD
ROOT
HETATM    1  C   UNL     1      -9.852   5.592  66.263  1.00  0.00    -0.145 C  
HETATM    2  O   UNL     1     -10.529   5.321  67.487  1.00  0.00    -0.187 OA 
ENDROOT
BRANCH   2   3
HETATM    3  C   UNL     1     -10.581   6.375  68.357  1.00  0.00    -0.257 A  
HETATM    4  C   UNL     1     -11.336   6.174  69.511  1.00  0.00    -0.426 A  
HETATM    5  C   UNL     1     -11.490   7.204  70.443  1.00  0.00    -0.317 A  
HETATM    6  C   UNL     1     -10.860   8.439  70.244  1.00  0.00    -0.244 A  
HETATM    7  C   UNL     1      -9.923   7.588  68.171  1.00  0.00    -0.198 A  
HETATM    8  C   UNL     1     -10.063   8.615  69.106  1.00  0.00    -0.203 A  
BRANCH   6   9
HETATM    9  C   UNL     1     -11.118   9.613  71.157  1.00  0.00    -0.444 C  
BRANCH   9  10
HETATM   10  C   UNL     1     -12.109  10.682  70.635  1.00  0.00    -0.365 C  
HETATM   11  C   UNL     1     -13.139  11.033  71.715  1.00  0.00    -0.554 C  
BRANCH  10  12
HETATM   12  N   UNL     1     -11.444  11.935  70.219  1.00  0.00    -0.506 NA 
HETATM   13  H   UNL     1     -10.441  11.794  70.103  1.00  0.00     0.000 HD 
BRANCH  12  14
HETATM   14  C   UNL     1     -12.036  12.523  69.011  1.00  0.00    -0.233 C  
BRANCH  14  15
HETATM   15  C   UNL     1     -11.320  12.104  67.700  1.00  0.00    -0.314 C  
HETATM   16  H   UNL     1     -11.424  10.603  66.436  1.00  0.00     0.000 HD 
HETATM   17  O   UNL     1     -11.862  10.859  67.239  1.00  0.00    -0.389 OA 
BRANCH  15  18
HETATM   18  C   UNL     1     -11.484  13.172  66.625  1.00  0.00    -0.389 A  
HETATM   19  C   UNL     1     -11.013  14.487  66.825  1.00  0.00    -0.316 A  
HETATM   20  C   UNL     1     -11.132  15.465  65.832  1.00  0.00    -0.247 A  
HETATM   21  H   UNL     1     -12.325  15.776  62.787  1.00  0.00     0.000 HD 
HETATM   22  C   UNL     1     -11.728  15.110  64.616  1.00  0.00    -0.348 A  
HETATM   23  C   UNL     1     -12.078  12.852  65.398  1.00  0.00    -0.501 A  
HETATM   24  C   UNL     1     -12.190  13.816  64.395  1.00  0.00    -0.440 A  
HETATM   25  O   UNL     1     -11.921  16.017  63.612  1.00  0.00    -0.765 OA 
BRANCH  20  26
HETATM   26  N   UNL     1     -10.645  16.775  66.003  1.00  0.00    -0.275 N  
HETATM   27  H   UNL     1     -10.641  17.369  65.174  1.00  0.00     0.000 HD 
HETATM   28  O   UNL     1      -9.741  18.481  67.194  1.00  0.00    -0.289 OA 
HETATM   29  C   UNL     1     -10.177  17.336  67.153  1.00  0.00    -0.319 C  
ENDBRANCH  20  26
ENDBRANCH  15  18
ENDBRANCH  14  15
ENDBRANCH  12  14
ENDBRANCH  10  12
ENDBRANCH   9  10
ENDBRANCH   6   9
ENDBRANCH   2   3
TORSDOF 8
ENDMDL
MODEL       61
REMARK 921   NORMALIZED FREE ENERGY PREDICTED BY IDOCK:   -5.40 KCAL/MOL
REMARK 922        TOTAL FREE ENERGY PREDICTED BY IDOCK:   -9.42 KCAL/MOL
REMARK 923 INTER-LIGAND FREE ENERGY PREDICTED BY IDOCK:   -7.69 KCAL/MOL
REMARK 924 INTRA-LIGAND FREE ENERGY PREDICTED BY IDOCK:   -1.73 KCAL/MOL
REMARK 927      BINDING AFFINITY PREDICTED BY RF-SCORE:    0.00 PKD
ROOT
HETATM    1  C   UNL     1      -9.197   6.333  71.777  1.00  0.00    -0.144 C  
HETATM    2  O   UNL     1      -9.636   7.686  71.690  1.00  0.00    -0.152 OA 
ENDROOT
BRANCH   2   3
HETATM    3  C   UNL     1      -9.630   8.209  70.426  1.00  0.00    -0.170 A  
HETATM    4  C   UNL     1     -10.489   7.600  69.512  1.00  0.00    -0.227 A  
HETATM    5  C   UNL     1     -10.527   8.031  68.184  1.00  0.00    -0.222 A  
HETATM    6  C   UNL     1      -9.725   9.099  67.763  1.00  0.00    -0.188 A  
HETATM    7  C   UNL     1      -8.858   9.295  70.023  1.00  0.00    -0.212 A  
HETATM    8  C   UNL     1      -8.902   9.736  68.699  1.00  0.00    -0.126 A  
BRANCH   6   9
HETATM    9  C   UNL     1      -9.639   9.496  66.309  1.00  0.00    -0.287 C  
BRANCH   9  10
HETATM   10  C   UNL     1      -8.746  10.718  65.984  1.00  0.00    -0.183 C  
HETATM   11  C   UNL     1      -7.506  10.284  65.194  1.00  0.00    -0.130 C  
BRANCH  10  12
HETATM   12  N   UNL     1      -9.446  11.755  65.194  1.00  0.00    -0.407 NA 
HETATM   13  H   UNL     1      -9.042  11.837  64.261  1.00  0.00     0.000 HD 
BRANCH  12  14
HETATM   14  C   UNL     1     -10.896  11.535  65.121  1.00  0.00    -0.265 C  
BRANCH  14  15
HETATM   15  C   UNL     1     -11.733  12.823  65.335  1.00  0.00    -0.387 C  
HETATM   16  H   UNL     1     -13.586  13.389  65.010  1.00  0.00     0.000 HD 
HETATM   17  O   UNL     1     -13.074  12.600  64.879  1.00  0.00    -0.850 OA 
BRANCH  15  18
HETATM   18  C   UNL     1     -11.744  13.227  66.804  1.00  0.00    -0.434 A  
HETATM   19  C   UNL     1     -11.693  12.257  67.828  1.00  0.00    -0.403 A  
HETATM   20  C   UNL     1     -11.672  12.620  69.179  1.00  0.00    -0.321 A  
HETATM   21  H   UNL     1     -11.736  15.342  71.017  1.00  0.00     0.000 HD 
HETATM   22  C   UNL     1     -11.694  13.982  69.502  1.00  0.00    -0.313 A  
HETATM   23  C   UNL     1     -11.769  14.580  67.164  1.00  0.00    -0.420 A  
HETATM   24  C   UNL     1     -11.735  14.955  68.508  1.00  0.00    -0.338 A  
HETATM   25  O   UNL     1     -11.721  14.418  70.798  1.00  0.00    -0.293 OA 
BRANCH  20  26
HETATM   26  N   UNL     1     -11.594  11.669  70.213  1.00  0.00    -0.510 N  
HETATM   27  H   UNL     1     -10.757  11.698  70.795  1.00  0.00     0.000 HD 
HETATM   28  O   UNL     1     -12.339   9.903  71.428  1.00  0.00    -0.346 OA 
HETATM   29  C   UNL     1     -12.513  10.712  70.523  1.00  0.00    -0.358 C  
ENDBRANCH  20  26
ENDBRANCH  15  18
ENDBRANCH  14  15
ENDBRANCH  12  14
ENDBRANCH  10  12
ENDBRANCH   9  10
ENDBRANCH   6   9
ENDBRANCH   2   3
TORSDOF 8
ENDMDL
MODEL       62
REMARK 921   NORMALIZED FREE ENERGY PREDICTED BY IDOCK:   -5.40 KCAL/MOL
REMARK 922        TOTAL FREE ENERGY PREDICTED BY IDOCK:   -9.41 KCAL/MOL
REMARK 923 INTER-LIGAND FREE ENERGY PREDICTED BY IDOCK:   -7.91 KCAL/MOL
REMARK 924 INTRA-LIGAND FREE ENERGY PREDICTED BY IDOCK:   -1.50 KCAL/MOL
REMARK 927      BINDING AFFINITY PREDICTED BY RF-SCORE:    0.00 PKD
ROOT
HETATM    1  C   UNL     1     -12.133  15.508  73.039  1.00  0.00    -0.464 C  
HETATM    2  O   UNL     1     -11.777  16.361  71.955  1.00  0.00    -0.493 OA 
ENDROOT
BRANCH   2   3
HETATM    3  C   UNL     1     -11.675  15.735  70.744  1.00  0.00    -0.399 A  
HETATM    4  C   UNL     1     -11.035  16.458  69.737  1.00  0.00    -0.341 A  
HETATM    5  C   UNL     1     -10.918  15.926  68.451  1.00  0.00    -0.331 A  
HETATM    6  C   UNL     1     -11.414  14.647  68.167  1.00  0.00    -0.346 A  
HETATM    7  C   UNL     1     -12.137  14.449  70.476  1.00  0.00    -0.404 A  
HETATM    8  C   UNL     1     -12.010  13.909  69.195  1.00  0.00    -0.404 A  
BRANCH   6   9
HETATM    9  C   UNL     1     -11.428  14.102  66.758  1.00  0.00    -0.383 C  
BRANCH   9  10
HETATM   10  C   UNL     1     -10.057  14.010  66.045  1.00  0.00    -0.315 C  
HETATM   11  C   UNL     1      -8.938  13.757  67.062  1.00  0.00    -0.247 C  
BRANCH  10  12
HETATM   12  N   UNL     1     -10.001  12.933  65.033  1.00  0.00    -0.493 NA 
HETATM   13  H   UNL     1      -9.085  12.484  65.029  1.00  0.00     0.000 HD 
BRANCH  12  14
HETATM   14  C   UNL     1     -11.072  11.941  65.194  1.00  0.00    -0.305 C  
BRANCH  14  15
HETATM   15  C   UNL     1     -10.555  10.491  65.384  1.00  0.00    -0.073 C  
HETATM   16  H   UNL     1      -9.207   9.336  64.540  1.00  0.00     0.000 HD 
HETATM   17  O   UNL     1      -9.524  10.224  64.424  1.00  0.00    -0.255 OA 
BRANCH  15  18
HETATM   18  C   UNL     1     -10.016  10.286  66.795  1.00  0.00    -0.261 A  
HETATM   19  C   UNL     1     -10.804  10.583  67.927  1.00  0.00    -0.333 A  
HETATM   20  C   UNL     1     -10.328  10.368  69.226  1.00  0.00    -0.230 A  
HETATM   21  H   UNL     1      -7.614   9.281  70.725  1.00  0.00     0.000 HD 
HETATM   22  C   UNL     1      -9.042   9.838  69.384  1.00  0.00    -0.201 A  
HETATM   23  C   UNL     1      -8.732   9.760  66.990  1.00  0.00    -0.141 A  
HETATM   24  C   UNL     1      -8.252   9.530  68.280  1.00  0.00    -0.113 A  
HETATM   25  O   UNL     1      -8.487   9.641  70.617  1.00  0.00    -0.212 OA 
BRANCH  20  26
HETATM   26  N   UNL     1     -11.108  10.633  70.366  1.00  0.00    -0.440 N  
HETATM   27  H   UNL     1     -11.059  11.581  70.740  1.00  0.00     0.000 HD 
HETATM   28  O   UNL     1     -12.540  10.082  72.038  1.00  0.00    -0.372 OA 
HETATM   29  C   UNL     1     -11.923   9.763  71.027  1.00  0.00    -0.352 C  
ENDBRANCH  20  26
ENDBRANCH  15  18
ENDBRANCH  14  15
ENDBRANCH  12  14
ENDBRANCH  10  12
ENDBRANCH   9  10
ENDBRANCH   6   9
ENDBRANCH   2   3
TORSDOF 8
ENDMDL
MODEL       63
REMARK 921   NORMALIZED FREE ENERGY PREDICTED BY IDOCK:   -5.39 KCAL/MOL
REMARK 922        TOTAL FREE ENERGY PREDICTED BY IDOCK:   -9.40 KCAL/MOL
REMARK 923 INTER-LIGAND FREE ENERGY PREDICTED BY IDOCK:   -8.54 KCAL/MOL
REMARK 924 INTRA-LIGAND FREE ENERGY PREDICTED BY IDOCK:   -0.86 KCAL/MOL
REMARK 927      BINDING AFFINITY PREDICTED BY RF-SCORE:    0.00 PKD
ROOT
HETATM    1  C   UNL     1     -10.379   5.393  71.015  1.00  0.00    -0.236 C  
HETATM    2  O   UNL     1     -11.352   6.258  70.437  1.00  0.00    -0.345 OA 
ENDROOT
BRANCH   2   3
HETATM    3  C   UNL     1     -10.933   6.926  69.320  1.00  0.00    -0.221 A  
HETATM    4  C   UNL     1     -10.484   8.230  69.524  1.00  0.00    -0.228 A  
HETATM    5  C   UNL     1     -10.076   9.014  68.442  1.00  0.00    -0.216 A  
HETATM    6  C   UNL     1     -10.083   8.487  67.144  1.00  0.00    -0.331 A  
HETATM    7  C   UNL     1     -10.908   6.385  68.037  1.00  0.00    -0.396 A  
HETATM    8  C   UNL     1     -10.489   7.161  66.955  1.00  0.00    -0.392 A  
BRANCH   6   9
HETATM    9  C   UNL     1      -9.782   9.349  65.942  1.00  0.00    -0.355 C  
BRANCH   9  10
HETATM   10  C   UNL     1     -10.278  10.815  66.008  1.00  0.00    -0.251 C  
HETATM   11  C   UNL     1      -9.117  11.761  66.332  1.00  0.00    -0.215 C  
BRANCH  10  12
HETATM   12  N   UNL     1     -10.898  11.275  64.747  1.00  0.00    -0.281 NA 
HETATM   13  H   UNL     1     -11.913  11.178  64.784  1.00  0.00     0.000 HD 
BRANCH  12  14
HETATM   14  C   UNL     1     -10.513  12.645  64.387  1.00  0.00    -0.373 C  
BRANCH  14  15
HETATM   15  C   UNL     1     -11.640  13.688  64.609  1.00  0.00    -0.371 C  
HETATM   16  H   UNL     1     -13.575  13.645  64.946  1.00  0.00     0.000 HD 
HETATM   17  O   UNL     1     -12.885  13.006  64.810  1.00  0.00    -0.708 OA 
BRANCH  15  18
HETATM   18  C   UNL     1     -11.333  14.573  65.811  1.00  0.00    -0.336 A  
HETATM   19  C   UNL     1     -10.652  15.800  65.659  1.00  0.00    -0.393 A  
HETATM   20  C   UNL     1     -10.393  16.632  66.754  1.00  0.00    -0.295 A  
HETATM   21  H   UNL     1     -10.883  16.685  70.002  1.00  0.00     0.000 HD 
HETATM   22  C   UNL     1     -10.835  16.226  68.018  1.00  0.00    -0.339 A  
HETATM   23  C   UNL     1     -11.757  14.196  67.091  1.00  0.00    -0.430 A  
HETATM   24  C   UNL     1     -11.516  15.024  68.188  1.00  0.00    -0.355 A  
HETATM   25  O   UNL     1     -10.583  16.961  69.143  1.00  0.00    -0.325 OA 
BRANCH  20  26
HETATM   26  N   UNL     1      -9.739  17.871  66.618  1.00  0.00    -0.305 N  
HETATM   27  H   UNL     1      -8.722  17.857  66.687  1.00  0.00     0.000 HD 
HETATM   28  O   UNL     1      -9.659  20.121  66.333  1.00  0.00    -0.399 OA 
HETATM   29  C   UNL     1     -10.315  19.088  66.405  1.00  0.00    -0.448 C  
ENDBRANCH  20  26
ENDBRANCH  15  18
ENDBRANCH  14  15
ENDBRANCH  12  14
ENDBRANCH  10  12
ENDBRANCH   9  10
ENDBRANCH   6   9
ENDBRANCH   2   3
TORSDOF 8
ENDMDL
MODEL       64
REMARK 921   NORMALIZED FREE ENERGY PREDICTED BY IDOCK:   -5.37 KCAL/MOL
REMARK 922        TOTAL FREE ENERGY PREDICTED BY IDOCK:   -9.38 KCAL/MOL
REMARK 923 INTER-LIGAND FREE ENERGY PREDICTED BY IDOCK:   -8.48 KCAL/MOL
REMARK 924 INTRA-LIGAND FREE ENERGY PREDICTED BY IDOCK:   -0.90 KCAL/MOL
REMARK 927      BINDING AFFINITY PREDICTED BY RF-SCORE:    0.00 PKD
ROOT
HETATM    1  C   UNL     1     -10.447   7.104  73.762  1.00  0.00    -0.329 C  
HETATM    2  O   UNL     1     -11.115   7.985  72.863  1.00  0.00    -0.392 OA 
ENDROOT
BRANCH   2   3
HETATM    3  C   UNL     1     -11.009   7.643  71.544  1.00  0.00    -0.233 A  
HETATM    4  C   UNL     1     -10.533   8.640  70.693  1.00  0.00    -0.243 A  
HETATM    5  C   UNL     1     -10.429   8.406  69.320  1.00  0.00    -0.223 A  
HETATM    6  C   UNL     1     -10.773   7.158  68.786  1.00  0.00    -0.199 A  
HETATM    7  C   UNL     1     -11.318   6.388  71.024  1.00  0.00    -0.386 A  
HETATM    8  C   UNL     1     -11.204   6.147  69.654  1.00  0.00    -0.488 A  
BRANCH   6   9
HETATM    9  C   UNL     1     -10.806   6.919  67.296  1.00  0.00    -0.426 C  
BRANCH   9  10
HETATM   10  C   UNL     1      -9.444   6.625  66.619  1.00  0.00    -0.164 C  
HETATM   11  C   UNL     1      -9.434   5.214  66.022  1.00  0.00    -0.170 C  
BRANCH  10  12
HETATM   12  N   UNL     1      -9.118   7.577  65.535  1.00  0.00    -0.380 NA 
HETATM   13  H   UNL     1      -9.741   7.449  64.738  1.00  0.00     0.000 HD 
BRANCH  12  14
HETATM   14  C   UNL     1      -9.120   8.976  65.984  1.00  0.00    -0.208 C  
BRANCH  14  15
HETATM   15  C   UNL     1      -9.054  10.003  64.823  1.00  0.00    -0.224 C  
HETATM   16  H   UNL     1      -9.093   9.938  62.859  1.00  0.00     0.000 HD 
HETATM   17  O   UNL     1      -9.134   9.309  63.570  1.00  0.00    -0.140 OA 
BRANCH  15  18
HETATM   18  C   UNL     1     -10.186  11.017  64.928  1.00  0.00    -0.373 A  
HETATM   19  C   UNL     1     -10.506  11.627  66.160  1.00  0.00    -0.289 A  
HETATM   20  C   UNL     1     -11.524  12.583  66.259  1.00  0.00    -0.370 A  
HETATM   21  H   UNL     1     -13.732  14.065  64.331  1.00  0.00     0.000 HD 
HETATM   22  C   UNL     1     -12.222  12.934  65.098  1.00  0.00    -0.470 A  
HETATM   23  C   UNL     1     -10.907  11.390  63.788  1.00  0.00    -0.468 A  
HETATM   24  C   UNL     1     -11.915  12.352  63.872  1.00  0.00    -0.572 A  
HETATM   25  O   UNL     1     -13.258  13.826  65.119  1.00  0.00    -0.757 OA 
BRANCH  20  26
HETATM   26  N   UNL     1     -11.840  13.221  67.473  1.00  0.00    -0.361 N  
HETATM   27  H   UNL     1     -12.103  14.205  67.413  1.00  0.00     0.000 HD 
HETATM   28  O   UNL     1     -12.095  13.322  69.726  1.00  0.00    -0.316 OA 
HETATM   29  C   UNL     1     -11.834  12.671  68.720  1.00  0.00    -0.300 C  
ENDBRANCH  20  26
ENDBRANCH  15  18
ENDBRANCH  14  15
ENDBRANCH  12  14
ENDBRANCH  10  12
ENDBRANCH   9  10
ENDBRANCH   6   9
ENDBRANCH   2   3
TORSDOF 8
ENDMDL
MODEL       65
REMARK 921   NORMALIZED FREE ENERGY PREDICTED BY IDOCK:   -5.37 KCAL/MOL
REMARK 922        TOTAL FREE ENERGY PREDICTED BY IDOCK:   -9.38 KCAL/MOL
REMARK 923 INTER-LIGAND FREE ENERGY PREDICTED BY IDOCK:   -8.61 KCAL/MOL
REMARK 924 INTRA-LIGAND FREE ENERGY PREDICTED BY IDOCK:   -0.76 KCAL/MOL
REMARK 927      BINDING AFFINITY PREDICTED BY RF-SCORE:    0.00 PKD
ROOT
HETATM    1  C   UNL     1     -11.473  15.864  64.349  1.00  0.00    -0.264 C  
HETATM    2  O   UNL     1     -12.411  14.818  64.581  1.00  0.00    -0.477 OA 
ENDROOT
BRANCH   2   3
HETATM    3  C   UNL     1     -11.863  13.570  64.682  1.00  0.00    -0.394 A  
HETATM    4  C   UNL     1     -11.835  13.020  65.963  1.00  0.00    -0.471 A  
HETATM    5  C   UNL     1     -11.256  11.767  66.181  1.00  0.00    -0.363 A  
HETATM    6  C   UNL     1     -10.726  11.036  65.111  1.00  0.00    -0.253 A  
HETATM    7  C   UNL     1     -11.370  12.832  63.608  1.00  0.00    -0.514 A  
HETATM    8  C   UNL     1     -10.802  11.575  63.821  1.00  0.00    -0.486 A  
BRANCH   6   9
HETATM    9  C   UNL     1      -9.971   9.748  65.333  1.00  0.00    -0.302 C  
BRANCH   9  10
HETATM   10  C   UNL     1     -10.034   9.154  66.761  1.00  0.00    -0.254 C  
HETATM   11  C   UNL     1     -10.479   7.688  66.715  1.00  0.00    -0.319 C  
BRANCH  10  12
HETATM   12  N   UNL     1      -8.738   9.211  67.471  1.00  0.00    -0.119 NA 
HETATM   13  H   UNL     1      -8.302  10.127  67.360  1.00  0.00     0.000 HD 
BRANCH  12  14
HETATM   14  C   UNL     1      -8.847   8.850  68.890  1.00  0.00    -0.137 C  
BRANCH  14  15
HETATM   15  C   UNL     1      -9.264  10.032  69.804  1.00  0.00    -0.199 C  
HETATM   16  H   UNL     1      -9.660  11.942  69.572  1.00  0.00     0.000 HD 
HETATM   17  O   UNL     1      -9.405  11.218  69.012  1.00  0.00    -0.126 OA 
BRANCH  15  18
HETATM   18  C   UNL     1     -10.573   9.728  70.523  1.00  0.00    -0.376 A  
HETATM   19  C   UNL     1     -10.753   8.522  71.233  1.00  0.00    -0.302 A  
HETATM   20  C   UNL     1     -11.940   8.249  71.922  1.00  0.00    -0.330 A  
HETATM   21  H   UNL     1     -14.853   9.654  72.498  1.00  0.00     0.000 HD 
HETATM   22  C   UNL     1     -12.957   9.210  71.901  1.00  0.00    -0.404 A  
HETATM   23  C   UNL     1     -11.613  10.666  70.521  1.00  0.00    -0.444 A  
HETATM   24  C   UNL     1     -12.796  10.410  71.215  1.00  0.00    -0.533 A  
HETATM   25  O   UNL     1     -14.162   9.002  72.512  1.00  0.00    -0.537 OA 
BRANCH  20  26
HETATM   26  N   UNL     1     -12.128   7.064  72.657  1.00  0.00    -0.495 N  
HETATM   27  H   UNL     1     -13.047   6.932  73.078  1.00  0.00     0.000 HD 
HETATM   28  O   UNL     1     -11.467   5.087  73.555  1.00  0.00    -0.286 OA 
HETATM   29  C   UNL     1     -11.217   6.072  72.869  1.00  0.00    -0.230 C  
ENDBRANCH  20  26
ENDBRANCH  15  18
ENDBRANCH  14  15
ENDBRANCH  12  14
ENDBRANCH  10  12
ENDBRANCH   9  10
ENDBRANCH   6   9
ENDBRANCH   2   3
TORSDOF 8
ENDMDL
MODEL       66
REMARK 921   NORMALIZED FREE ENERGY PREDICTED BY IDOCK:   -5.37 KCAL/MOL
REMARK 922        TOTAL FREE ENERGY PREDICTED BY IDOCK:   -9.38 KCAL/MOL
REMARK 923 INTER-LIGAND FREE ENERGY PREDICTED BY IDOCK:   -8.24 KCAL/MOL
REMARK 924 INTRA-LIGAND FREE ENERGY PREDICTED BY IDOCK:   -1.14 KCAL/MOL
REMARK 927      BINDING AFFINITY PREDICTED BY RF-SCORE:    0.00 PKD
ROOT
HETATM    1  C   UNL     1      -8.852   6.974  74.042  1.00  0.00    -0.179 C  
HETATM    2  O   UNL     1     -10.195   7.351  73.751  1.00  0.00    -0.342 OA 
ENDROOT
BRANCH   2   3
HETATM    3  C   UNL     1     -10.346   8.099  72.617  1.00  0.00    -0.328 A  
HETATM    4  C   UNL     1     -11.658   8.415  72.267  1.00  0.00    -0.453 A  
HETATM    5  C   UNL     1     -11.924   9.139  71.102  1.00  0.00    -0.374 A  
HETATM    6  C   UNL     1     -10.872   9.582  70.289  1.00  0.00    -0.319 A  
HETATM    7  C   UNL     1      -9.295   8.569  71.833  1.00  0.00    -0.337 A  
HETATM    8  C   UNL     1      -9.556   9.303  70.675  1.00  0.00    -0.334 A  
BRANCH   6   9
HETATM    9  C   UNL     1     -11.130  10.243  68.956  1.00  0.00    -0.277 C  
BRANCH   9  10
HETATM   10  C   UNL     1     -10.361   9.663  67.744  1.00  0.00    -0.236 C  
HETATM   11  C   UNL     1     -10.861   8.252  67.414  1.00  0.00    -0.105 C  
BRANCH  10  12
HETATM   12  N   UNL     1     -10.494  10.488  66.524  1.00  0.00    -0.234 NA 
HETATM   13  H   UNL     1     -11.465  10.522  66.212  1.00  0.00     0.000 HD 
BRANCH  12  14
HETATM   14  C   UNL     1      -9.946  11.841  66.685  1.00  0.00    -0.200 C  
BRANCH  14  15
HETATM   15  C   UNL     1     -10.973  12.967  66.401  1.00  0.00    -0.281 C  
HETATM   16  H   UNL     1     -12.881  13.074  65.941  1.00  0.00     0.000 HD 
HETATM   17  O   UNL     1     -12.252  12.384  66.116  1.00  0.00    -0.635 OA 
BRANCH  15  18
HETATM   18  C   UNL     1     -11.088  13.913  67.591  1.00  0.00    -0.295 A  
HETATM   19  C   UNL     1     -12.150  13.799  68.513  1.00  0.00    -0.327 A  
HETATM   20  C   UNL     1     -12.245  14.644  69.625  1.00  0.00    -0.283 A  
HETATM   21  H   UNL     1     -10.619  17.157  70.979  1.00  0.00     0.000 HD 
HETATM   22  C   UNL     1     -11.250  15.610  69.814  1.00  0.00    -0.321 A  
HETATM   23  C   UNL     1     -10.112  14.893  67.809  1.00  0.00    -0.234 A  
HETATM   24  C   UNL     1     -10.189  15.732  68.921  1.00  0.00    -0.219 A  
HETATM   25  O   UNL     1     -11.294  16.501  70.850  1.00  0.00    -0.321 OA 
BRANCH  20  26
HETATM   26  N   UNL     1     -13.282  14.529  70.570  1.00  0.00    -0.512 N  
HETATM   27  H   UNL     1     -14.141  15.038  70.365  1.00  0.00     0.000 HD 
HETATM   28  O   UNL     1     -14.211  13.801  72.508  1.00  0.00    -0.706 OA 
HETATM   29  C   UNL     1     -13.264  13.812  71.729  1.00  0.00    -0.386 C  
ENDBRANCH  20  26
ENDBRANCH  15  18
ENDBRANCH  14  15
ENDBRANCH  12  14
ENDBRANCH  10  12
ENDBRANCH   9  10
ENDBRANCH   6   9
ENDBRANCH   2   3
TORSDOF 8
ENDMDL
MODEL       67
REMARK 921   NORMALIZED FREE ENERGY PREDICTED BY IDOCK:   -5.37 KCAL/MOL
REMARK 922        TOTAL FREE ENERGY PREDICTED BY IDOCK:   -9.37 KCAL/MOL
REMARK 923 INTER-LIGAND FREE ENERGY PREDICTED BY IDOCK:   -8.07 KCAL/MOL
REMARK 924 INTRA-LIGAND FREE ENERGY PREDICTED BY IDOCK:   -1.31 KCAL/MOL
REMARK 927      BINDING AFFINITY PREDICTED BY RF-SCORE:    0.00 PKD
ROOT
HETATM    1  C   UNL     1     -12.883  11.594  63.342  1.00  0.00    -0.023 C  
HETATM    2  O   UNL     1     -13.282  12.352  64.480  1.00  0.00    -0.834 OA 
ENDROOT
BRANCH   2   3
HETATM    3  C   UNL     1     -12.332  13.213  64.955  1.00  0.00    -0.441 A  
HETATM    4  C   UNL     1     -11.110  13.202  64.283  1.00  0.00    -0.426 A  
HETATM    5  C   UNL     1     -10.058  14.013  64.716  1.00  0.00    -0.224 A  
HETATM    6  C   UNL     1     -10.230  14.870  65.811  1.00  0.00    -0.358 A  
HETATM    7  C   UNL     1     -12.520  14.090  66.021  1.00  0.00    -0.489 A  
HETATM    8  C   UNL     1     -11.476  14.911  66.448  1.00  0.00    -0.280 A  
BRANCH   6   9
HETATM    9  C   UNL     1      -9.075  15.652  66.389  1.00  0.00    -0.355 C  
BRANCH   9  10
HETATM   10  C   UNL     1      -8.076  14.855  67.262  1.00  0.00    -0.208 C  
HETATM   11  C   UNL     1      -8.279  15.182  68.746  1.00  0.00    -0.169 C  
BRANCH  10  12
HETATM   12  N   UNL     1      -8.205  13.390  67.100  1.00  0.00    -0.336 NA 
HETATM   13  H   UNL     1      -7.338  12.985  66.749  1.00  0.00     0.000 HD 
BRANCH  12  14
HETATM   14  C   UNL     1      -8.641  12.715  68.330  1.00  0.00    -0.167 C  
BRANCH  14  15
HETATM   15  C   UNL     1      -9.912  11.846  68.147  1.00  0.00    -0.197 C  
HETATM   16  H   UNL     1     -10.331   9.927  68.093  1.00  0.00     0.000 HD 
HETATM   17  O   UNL     1      -9.553  10.460  68.205  1.00  0.00    -0.139 OA 
BRANCH  15  18
HETATM   18  C   UNL     1     -10.946  12.161  69.221  1.00  0.00    -0.168 A  
HETATM   19  C   UNL     1     -11.555  11.133  69.972  1.00  0.00    -0.421 A  
HETATM   20  C   UNL     1     -12.481  11.415  70.981  1.00  0.00    -0.383 A  
HETATM   21  H   UNL     1     -13.930  14.021  72.361  1.00  0.00     0.000 HD 
HETATM   22  C   UNL     1     -12.792  12.754  71.244  1.00  0.00    -0.262 A  
HETATM   23  C   UNL     1     -11.282  13.490  69.508  1.00  0.00    -0.194 A  
HETATM   24  C   UNL     1     -12.196  13.784  70.522  1.00  0.00    -0.440 A  
HETATM   25  O   UNL     1     -13.719  13.112  72.183  1.00  0.00    -0.510 OA 
BRANCH  20  26
HETATM   26  N   UNL     1     -13.079  10.405  71.758  1.00  0.00    -0.451 N  
HETATM   27  H   UNL     1     -13.700  10.715  72.505  1.00  0.00     0.000 HD 
HETATM   28  O   UNL     1     -13.460   8.255  72.374  1.00  0.00    -0.233 OA 
HETATM   29  C   UNL     1     -12.919   9.058  71.622  1.00  0.00    -0.361 C  
ENDBRANCH  20  26
ENDBRANCH  15  18
ENDBRANCH  14  15
ENDBRANCH  12  14
ENDBRANCH  10  12
ENDBRANCH   9  10
ENDBRANCH   6   9
ENDBRANCH   2   3
TORSDOF 8
ENDMDL
MODEL       68
REMARK 921   NORMALIZED FREE ENERGY PREDICTED BY IDOCK:   -5.36 KCAL/MOL
REMARK 922        TOTAL FREE ENERGY PREDICTED BY IDOCK:   -9.35 KCAL/MOL
REMARK 923 INTER-LIGAND FREE ENERGY PREDICTED BY IDOCK:   -8.64 KCAL/MOL
REMARK 924 INTRA-LIGAND FREE ENERGY PREDICTED BY IDOCK:   -0.71 KCAL/MOL
REMARK 927      BINDING AFFINITY PREDICTED BY RF-SCORE:    0.00 PKD
ROOT
HETATM    1  C   UNL     1      -9.469   3.141  71.559  1.00  0.00    -0.145 C  
HETATM    2  O   UNL     1     -10.145   3.766  72.646  1.00  0.00    -0.151 OA 
ENDROOT
BRANCH   2   3
HETATM    3  C   UNL     1     -10.399   5.097  72.472  1.00  0.00    -0.204 A  
HETATM    4  C   UNL     1     -10.572   5.517  71.154  1.00  0.00    -0.303 A  
HETATM    5  C   UNL     1     -10.793   6.865  70.864  1.00  0.00    -0.277 A  
HETATM    6  C   UNL     1     -10.875   7.807  71.898  1.00  0.00    -0.281 A  
HETATM    7  C   UNL     1     -10.517   6.023  73.507  1.00  0.00    -0.275 A  
HETATM    8  C   UNL     1     -10.750   7.369  73.222  1.00  0.00    -0.441 A  
BRANCH   6   9
HETATM    9  C   UNL     1     -10.973   9.286  71.612  1.00  0.00    -0.433 C  
BRANCH   9  10
HETATM   10  C   UNL     1     -12.189   9.742  70.769  1.00  0.00    -0.256 C  
HETATM   11  C   UNL     1     -12.906  10.914  71.448  1.00  0.00    -0.554 C  
BRANCH  10  12
HETATM   12  N   UNL     1     -11.819  10.169  69.402  1.00  0.00    -0.489 NA 
HETATM   13  H   UNL     1     -12.177   9.514  68.706  1.00  0.00     0.000 HD 
BRANCH  12  14
HETATM   14  C   UNL     1     -12.242  11.542  69.098  1.00  0.00    -0.156 C  
BRANCH  14  15
HETATM   15  C   UNL     1     -11.436  12.203  67.950  1.00  0.00    -0.328 C  
HETATM   16  H   UNL     1     -11.665  12.468  66.016  1.00  0.00     0.000 HD 
HETATM   17  O   UNL     1     -12.159  12.063  66.719  1.00  0.00    -0.613 OA 
BRANCH  15  18
HETATM   18  C   UNL     1     -11.185  13.678  68.240  1.00  0.00    -0.302 A  
HETATM   19  C   UNL     1     -11.672  14.283  69.418  1.00  0.00    -0.363 A  
HETATM   20  C   UNL     1     -11.419  15.628  69.707  1.00  0.00    -0.342 A  
HETATM   21  H   UNL     1      -9.886  18.207  68.369  1.00  0.00     0.000 HD 
HETATM   22  C   UNL     1     -10.657  16.372  68.799  1.00  0.00    -0.310 A  
HETATM   23  C   UNL     1     -10.428  14.452  67.352  1.00  0.00    -0.261 A  
HETATM   24  C   UNL     1     -10.159  15.792  67.636  1.00  0.00    -0.247 A  
HETATM   25  O   UNL     1     -10.403  17.702  68.986  1.00  0.00    -0.360 OA 
BRANCH  20  26
HETATM   26  N   UNL     1     -11.874  16.242  70.889  1.00  0.00    -0.556 N  
HETATM   27  H   UNL     1     -12.277  17.174  70.790  1.00  0.00     0.000 HD 
HETATM   28  O   UNL     1     -12.229  16.359  73.127  1.00  0.00    -0.503 OA 
HETATM   29  C   UNL     1     -11.836  15.730  72.151  1.00  0.00    -0.496 C  
ENDBRANCH  20  26
ENDBRANCH  15  18
ENDBRANCH  14  15
ENDBRANCH  12  14
ENDBRANCH  10  12
ENDBRANCH   9  10
ENDBRANCH   6   9
ENDBRANCH   2   3
TORSDOF 8
ENDMDL
MODEL       69
REMARK 921   NORMALIZED FREE ENERGY PREDICTED BY IDOCK:   -5.35 KCAL/MOL
REMARK 922        TOTAL FREE ENERGY PREDICTED BY IDOCK:   -9.35 KCAL/MOL
REMARK 923 INTER-LIGAND FREE ENERGY PREDICTED BY IDOCK:   -7.82 KCAL/MOL
REMARK 924 INTRA-LIGAND FREE ENERGY PREDICTED BY IDOCK:   -1.53 KCAL/MOL
REMARK 927      BINDING AFFINITY PREDICTED BY RF-SCORE:    0.00 PKD
ROOT
HETATM    1  C   UNL     1     -12.399  12.706  63.462  1.00  0.00    -0.496 C  
HETATM    2  O   UNL     1     -12.797  12.567  64.823  1.00  0.00    -0.755 OA 
ENDROOT
BRANCH   2   3
HETATM    3  C   UNL     1     -11.809  12.140  65.667  1.00  0.00    -0.276 A  
HETATM    4  C   UNL     1     -10.739  11.479  65.066  1.00  0.00    -0.350 A  
HETATM    5  C   UNL     1      -9.700  10.964  65.844  1.00  0.00    -0.269 A  
HETATM    6  C   UNL     1      -9.705  11.135  67.234  1.00  0.00    -0.186 A  
HETATM    7  C   UNL     1     -11.802  12.344  67.044  1.00  0.00    -0.368 A  
HETATM    8  C   UNL     1     -10.759  11.843  67.824  1.00  0.00    -0.243 A  
BRANCH   6   9
HETATM    9  C   UNL     1      -8.673  10.472  68.114  1.00  0.00    -0.130 C  
BRANCH   9  10
HETATM   10  C   UNL     1      -7.405  11.303  68.429  1.00  0.00    -0.097 C  
HETATM   11  C   UNL     1      -6.644  11.631  67.140  1.00  0.00    -0.134 C  
BRANCH  10  12
HETATM   12  N   UNL     1      -7.704  12.579  69.115  1.00  0.00    -0.322 NA 
HETATM   13  H   UNL     1      -7.270  12.607  70.037  1.00  0.00     0.000 HD 
BRANCH  12  14
HETATM   14  C   UNL     1      -7.328  13.756  68.322  1.00  0.00    -0.118 C  
BRANCH  14  15
HETATM   15  C   UNL     1      -7.989  15.072  68.808  1.00  0.00    -0.162 C  
HETATM   16  H   UNL     1      -7.375  16.793  69.531  1.00  0.00     0.000 HD 
HETATM   17  O   UNL     1      -6.970  15.987  69.233  1.00  0.00    -0.182 OA 
BRANCH  15  18
HETATM   18  C   UNL     1      -8.825  15.703  67.701  1.00  0.00    -0.181 A  
HETATM   19  C   UNL     1      -9.097  17.088  67.690  1.00  0.00    -0.229 A  
HETATM   20  C   UNL     1      -9.837  17.680  66.661  1.00  0.00    -0.309 A  
HETATM   21  H   UNL     1     -11.384  16.805  63.898  1.00  0.00     0.000 HD 
HETATM   22  C   UNL     1     -10.302  16.865  65.622  1.00  0.00    -0.237 A  
HETATM   23  C   UNL     1      -9.308  14.917  66.647  1.00  0.00    -0.291 A  
HETATM   24  C   UNL     1     -10.036  15.499  65.608  1.00  0.00    -0.406 A  
HETATM   25  O   UNL     1     -11.069  17.358  64.603  1.00  0.00    -1.029 OA 
BRANCH  20  26
HETATM   26  N   UNL     1     -10.096  19.063  66.620  1.00  0.00    -0.363 N  
HETATM   27  H   UNL     1     -10.719  19.385  65.880  1.00  0.00     0.000 HD 
HETATM   28  O   UNL     1      -9.866  21.208  67.321  1.00  0.00    -0.298 OA 
HETATM   29  C   UNL     1      -9.607  20.018  67.459  1.00  0.00    -0.393 C  
ENDBRANCH  20  26
ENDBRANCH  15  18
ENDBRANCH  14  15
ENDBRANCH  12  14
ENDBRANCH  10  12
ENDBRANCH   9  10
ENDBRANCH   6   9
ENDBRANCH   2   3
TORSDOF 8
ENDMDL
MODEL       70
REMARK 921   NORMALIZED FREE ENERGY PREDICTED BY IDOCK:   -5.35 KCAL/MOL
REMARK 922        TOTAL FREE ENERGY PREDICTED BY IDOCK:   -9.34 KCAL/MOL
REMARK 923 INTER-LIGAND FREE ENERGY PREDICTED BY IDOCK:   -8.61 KCAL/MOL
REMARK 924 INTRA-LIGAND FREE ENERGY PREDICTED BY IDOCK:   -0.74 KCAL/MOL
REMARK 927      BINDING AFFINITY PREDICTED BY RF-SCORE:    0.00 PKD
ROOT
HETATM    1  C   UNL     1      -6.582  20.998  67.195  1.00  0.00    -0.356 C  
HETATM    2  O   UNL     1      -8.002  21.103  67.236  1.00  0.00    -0.255 OA 
ENDROOT
BRANCH   2   3
HETATM    3  C   UNL     1      -8.654  19.935  67.518  1.00  0.00    -0.337 A  
HETATM    4  C   UNL     1      -9.930  19.803  66.971  1.00  0.00    -0.532 A  
HETATM    5  C   UNL     1     -10.698  18.666  67.235  1.00  0.00    -0.449 A  
HETATM    6  C   UNL     1     -10.182  17.632  68.026  1.00  0.00    -0.362 A  
HETATM    7  C   UNL     1      -8.122  18.895  68.275  1.00  0.00    -0.353 A  
HETATM    8  C   UNL     1      -8.882  17.751  68.531  1.00  0.00    -0.284 A  
BRANCH   6   9
HETATM    9  C   UNL     1     -11.035  16.459  68.444  1.00  0.00    -0.353 C  
BRANCH   9  10
HETATM   10  C   UNL     1     -11.327  15.401  67.352  1.00  0.00    -0.243 C  
HETATM   11  C   UNL     1     -10.059  14.607  67.019  1.00  0.00    -0.249 C  
BRANCH  10  12
HETATM   12  N   UNL     1     -12.375  14.434  67.746  1.00  0.00    -0.603 NA 
HETATM   13  H   UNL     1     -12.973  14.202  66.954  1.00  0.00     0.000 HD 
BRANCH  12  14
HETATM   14  C   UNL     1     -11.829  13.220  68.365  1.00  0.00    -0.360 C  
BRANCH  14  15
HETATM   15  C   UNL     1     -11.864  13.241  69.916  1.00  0.00    -0.310 C  
HETATM   16  H   UNL     1     -12.943  14.115  71.305  1.00  0.00     0.000 HD 
HETATM   17  O   UNL     1     -12.922  14.102  70.355  1.00  0.00    -0.278 OA 
BRANCH  15  18
HETATM   18  C   UNL     1     -12.070  11.838  70.474  1.00  0.00    -0.439 A  
HETATM   19  C   UNL     1     -11.298  10.749  70.016  1.00  0.00    -0.397 A  
HETATM   20  C   UNL     1     -11.460   9.464  70.546  1.00  0.00    -0.262 A  
HETATM   21  H   UNL     1     -13.302   7.917  72.783  1.00  0.00     0.000 HD 
HETATM   22  C   UNL     1     -12.408   9.276  71.558  1.00  0.00    -0.360 A  
HETATM   23  C   UNL     1     -13.013  11.613  71.485  1.00  0.00    -0.463 A  
HETATM   24  C   UNL     1     -13.174  10.338  72.030  1.00  0.00    -0.516 A  
HETATM   25  O   UNL     1     -12.658   8.044  72.096  1.00  0.00    -0.313 OA 
BRANCH  20  26
HETATM   26  N   UNL     1     -10.681   8.372  70.121  1.00  0.00    -0.234 N  
HETATM   27  H   UNL     1     -11.189   7.568  69.753  1.00  0.00     0.000 HD 
HETATM   28  O   UNL     1      -8.733   7.257  69.783  1.00  0.00    -0.140 OA 
HETATM   29  C   UNL     1      -9.322   8.269  70.147  1.00  0.00    -0.159 C  
ENDBRANCH  20  26
ENDBRANCH  15  18
ENDBRANCH  14  15
ENDBRANCH  12  14
ENDBRANCH  10  12
ENDBRANCH   9  10
ENDBRANCH   6   9
ENDBRANCH   2   3
TORSDOF 8
ENDMDL
MODEL       71
REMARK 921   NORMALIZED FREE ENERGY PREDICTED BY IDOCK:   -5.34 KCAL/MOL
REMARK 922        TOTAL FREE ENERGY PREDICTED BY IDOCK:   -9.34 KCAL/MOL
REMARK 923 INTER-LIGAND FREE ENERGY PREDICTED BY IDOCK:   -8.27 KCAL/MOL
REMARK 924 INTRA-LIGAND FREE ENERGY PREDICTED BY IDOCK:   -1.06 KCAL/MOL
REMARK 927      BINDING AFFINITY PREDICTED BY RF-SCORE:    0.00 PKD
ROOT
HETATM    1  C   UNL     1      -9.252   3.577  67.230  1.00  0.00    -0.193 C  
HETATM    2  O   UNL     1      -8.813   4.760  67.892  1.00  0.00    -0.103 OA 
ENDROOT
BRANCH   2   3
HETATM    3  C   UNL     1      -9.631   5.190  68.899  1.00  0.00    -0.144 A  
HETATM    4  C   UNL     1     -10.666   6.043  68.519  1.00  0.00    -0.354 A  
HETATM    5  C   UNL     1     -11.533   6.574  69.478  1.00  0.00    -0.384 A  
HETATM    6  C   UNL     1     -11.390   6.229  70.828  1.00  0.00    -0.397 A  
HETATM    7  C   UNL     1      -9.507   4.814  70.234  1.00  0.00    -0.243 A  
HETATM    8  C   UNL     1     -10.379   5.333  71.194  1.00  0.00    -0.291 A  
BRANCH   6   9
HETATM    9  C   UNL     1     -12.218   6.892  71.903  1.00  0.00    -0.370 C  
BRANCH   9  10
HETATM   10  C   UNL     1     -11.932   8.391  72.161  1.00  0.00    -0.374 C  
HETATM   11  C   UNL     1     -10.423   8.639  72.273  1.00  0.00    -0.376 C  
BRANCH  10  12
HETATM   12  N   UNL     1     -12.458   9.274  71.097  1.00  0.00    -0.399 NA 
HETATM   13  H   UNL     1     -13.291   9.769  71.414  1.00  0.00     0.000 HD 
BRANCH  12  14
HETATM   14  C   UNL     1     -11.452  10.212  70.583  1.00  0.00    -0.349 C  
BRANCH  14  15
HETATM   15  C   UNL     1     -12.014  11.223  69.550  1.00  0.00    -0.351 C  
HETATM   16  H   UNL     1     -12.028  13.176  69.330  1.00  0.00     0.000 HD 
HETATM   17  O   UNL     1     -11.684  12.556  69.963  1.00  0.00    -0.297 OA 
BRANCH  15  18
HETATM   18  C   UNL     1     -11.447  10.954  68.161  1.00  0.00    -0.368 A  
HETATM   19  C   UNL     1     -11.634  11.873  67.106  1.00  0.00    -0.363 A  
HETATM   20  C   UNL     1     -11.090  11.648  65.836  1.00  0.00    -0.264 A  
HETATM   21  H   UNL     1      -9.304   9.380  64.268  1.00  0.00     0.000 HD 
HETATM   22  C   UNL     1     -10.340  10.484  65.630  1.00  0.00    -0.204 A  
HETATM   23  C   UNL     1     -10.694   9.799  67.919  1.00  0.00    -0.312 A  
HETATM   24  C   UNL     1     -10.136   9.570  66.660  1.00  0.00    -0.321 A  
HETATM   25  O   UNL     1      -9.813  10.170  64.409  1.00  0.00    -0.322 OA 
BRANCH  20  26
HETATM   26  N   UNL     1     -11.243  12.565  64.780  1.00  0.00    -0.296 N  
HETATM   27  H   UNL     1     -10.420  13.114  64.533  1.00  0.00     0.000 HD 
HETATM   28  O   UNL     1     -12.413  13.647  63.164  1.00  0.00    -0.786 OA 
HETATM   29  C   UNL     1     -12.369  12.799  64.049  1.00  0.00    -0.411 C  
ENDBRANCH  20  26
ENDBRANCH  15  18
ENDBRANCH  14  15
ENDBRANCH  12  14
ENDBRANCH  10  12
ENDBRANCH   9  10
ENDBRANCH   6   9
ENDBRANCH   2   3
TORSDOF 8
ENDMDL
MODEL       72
REMARK 921   NORMALIZED FREE ENERGY PREDICTED BY IDOCK:   -5.34 KCAL/MOL
REMARK 922        TOTAL FREE ENERGY PREDICTED BY IDOCK:   -9.33 KCAL/MOL
REMARK 923 INTER-LIGAND FREE ENERGY PREDICTED BY IDOCK:   -8.10 KCAL/MOL
REMARK 924 INTRA-LIGAND FREE ENERGY PREDICTED BY IDOCK:   -1.23 KCAL/MOL
REMARK 927      BINDING AFFINITY PREDICTED BY RF-SCORE:    0.00 PKD
ROOT
HETATM    1  C   UNL     1      -9.390  17.725  68.454  1.00  0.00    -0.294 C  
HETATM    2  O   UNL     1     -10.665  17.440  69.022  1.00  0.00    -0.265 OA 
ENDROOT
BRANCH   2   3
HETATM    3  C   UNL     1     -11.038  16.126  68.959  1.00  0.00    -0.336 A  
HETATM    4  C   UNL     1     -11.473  15.559  70.157  1.00  0.00    -0.342 A  
HETATM    5  C   UNL     1     -11.834  14.211  70.210  1.00  0.00    -0.373 A  
HETATM    6  C   UNL     1     -11.795  13.422  69.053  1.00  0.00    -0.378 A  
HETATM    7  C   UNL     1     -11.031  15.356  67.799  1.00  0.00    -0.311 A  
HETATM    8  C   UNL     1     -11.404  14.011  67.845  1.00  0.00    -0.317 A  
BRANCH   6   9
HETATM    9  C   UNL     1     -12.044  11.933  69.105  1.00  0.00    -0.261 C  
BRANCH   9  10
HETATM   10  C   UNL     1     -11.542  11.198  70.372  1.00  0.00    -0.259 C  
HETATM   11  C   UNL     1     -12.692  10.444  71.048  1.00  0.00    -0.490 C  
BRANCH  10  12
HETATM   12  N   UNL     1     -10.466  10.223  70.088  1.00  0.00    -0.412 NA 
HETATM   13  H   UNL     1     -10.835   9.273  70.056  1.00  0.00     0.000 HD 
BRANCH  12  14
HETATM   14  C   UNL     1      -9.717  10.538  68.864  1.00  0.00    -0.199 C  
BRANCH  14  15
HETATM   15  C   UNL     1      -9.598   9.343  67.883  1.00  0.00    -0.134 C  
HETATM   16  H   UNL     1     -10.606   7.698  67.510  1.00  0.00     0.000 HD 
HETATM   17  O   UNL     1     -10.680   8.430  68.111  1.00  0.00    -0.152 OA 
BRANCH  15  18
HETATM   18  C   UNL     1      -9.618   9.823  66.437  1.00  0.00    -0.256 A  
HETATM   19  C   UNL     1     -10.264  11.025  66.075  1.00  0.00    -0.305 A  
HETATM   20  C   UNL     1     -10.261  11.488  64.755  1.00  0.00    -0.281 A  
HETATM   21  H   UNL     1      -9.122  10.581  61.810  1.00  0.00     0.000 HD 
HETATM   22  C   UNL     1      -9.590  10.732  63.786  1.00  0.00    -0.295 A  
HETATM   23  C   UNL     1      -8.959   9.090  65.441  1.00  0.00    -0.249 A  
HETATM   24  C   UNL     1      -8.939   9.549  64.123  1.00  0.00    -0.240 A  
HETATM   25  O   UNL     1      -9.578  11.093  62.468  1.00  0.00    -0.268 OA 
BRANCH  20  26
HETATM   26  N   UNL     1     -10.877  12.697  64.381  1.00  0.00    -0.332 N  
HETATM   27  H   UNL     1     -10.344  13.549  64.554  1.00  0.00     0.000 HD 
HETATM   28  O   UNL     1     -12.570  13.958  63.551  1.00  0.00    -0.842 OA 
HETATM   29  C   UNL     1     -12.105  12.854  63.812  1.00  0.00    -0.508 C  
ENDBRANCH  20  26
ENDBRANCH  15  18
ENDBRANCH  14  15
ENDBRANCH  12  14
ENDBRANCH  10  12
ENDBRANCH   9  10
ENDBRANCH   6   9
ENDBRANCH   2   3
TORSDOF 8
ENDMDL
MODEL       73
REMARK 921   NORMALIZED FREE ENERGY PREDICTED BY IDOCK:   -5.34 KCAL/MOL
REMARK 922        TOTAL FREE ENERGY PREDICTED BY IDOCK:   -9.33 KCAL/MOL
REMARK 923 INTER-LIGAND FREE ENERGY PREDICTED BY IDOCK:   -8.35 KCAL/MOL
REMARK 924 INTRA-LIGAND FREE ENERGY PREDICTED BY IDOCK:   -0.98 KCAL/MOL
REMARK 927      BINDING AFFINITY PREDICTED BY RF-SCORE:    0.00 PKD
ROOT
HETATM    1  C   UNL     1     -11.297  15.695  64.637  1.00  0.00    -0.349 C  
HETATM    2  O   UNL     1     -12.187  14.585  64.584  1.00  0.00    -0.451 OA 
ENDROOT
BRANCH   2   3
HETATM    3  C   UNL     1     -11.613  13.377  64.868  1.00  0.00    -0.330 A  
HETATM    4  C   UNL     1     -11.254  13.172  66.199  1.00  0.00    -0.320 A  
HETATM    5  C   UNL     1     -10.620  11.988  66.585  1.00  0.00    -0.266 A  
HETATM    6  C   UNL     1     -10.368  10.981  65.645  1.00  0.00    -0.311 A  
HETATM    7  C   UNL     1     -11.398  12.365  63.936  1.00  0.00    -0.502 A  
HETATM    8  C   UNL     1     -10.776  11.175  64.321  1.00  0.00    -0.403 A  
BRANCH   6   9
HETATM    9  C   UNL     1      -9.562   9.754  66.000  1.00  0.00    -0.296 C  
BRANCH   9  10
HETATM   10  C   UNL     1      -9.967   9.023  67.304  1.00  0.00    -0.216 C  
HETATM   11  C   UNL     1     -10.700   7.716  66.982  1.00  0.00    -0.340 C  
BRANCH  10  12
HETATM   12  N   UNL     1      -8.811   8.693  68.166  1.00  0.00    -0.141 NA 
HETATM   13  H   UNL     1      -7.939   8.737  67.639  1.00  0.00     0.000 HD 
BRANCH  12  14
HETATM   14  C   UNL     1      -8.739   9.530  69.370  1.00  0.00    -0.165 C  
BRANCH  14  15
HETATM   15  C   UNL     1      -8.894   8.735  70.692  1.00  0.00    -0.182 C  
HETATM   16  H   UNL     1      -8.052   8.742  72.467  1.00  0.00     0.000 HD 
HETATM   17  O   UNL     1      -7.957   9.230  71.658  1.00  0.00    -0.321 OA 
BRANCH  15  18
HETATM   18  C   UNL     1     -10.313   8.855  71.236  1.00  0.00    -0.355 A  
HETATM   19  C   UNL     1     -11.061  10.040  71.069  1.00  0.00    -0.341 A  
HETATM   20  C   UNL     1     -12.374  10.147  71.538  1.00  0.00    -0.408 A  
HETATM   21  H   UNL     1     -14.594   8.329  73.138  1.00  0.00     0.000 HD 
HETATM   22  C   UNL     1     -12.945   9.041  72.178  1.00  0.00    -0.424 A  
HETATM   23  C   UNL     1     -10.914   7.768  71.884  1.00  0.00    -0.294 A  
HETATM   24  C   UNL     1     -12.228   7.860  72.345  1.00  0.00    -0.295 A  
HETATM   25  O   UNL     1     -14.206   9.080  72.704  1.00  0.00    -0.574 OA 
BRANCH  20  26
HETATM   26  N   UNL     1     -13.145  11.311  71.357  1.00  0.00    -0.357 N  
HETATM   27  H   UNL     1     -13.802  11.303  70.578  1.00  0.00     0.000 HD 
HETATM   28  O   UNL     1     -13.802  13.426  71.850  1.00  0.00    -0.393 OA 
HETATM   29  C   UNL     1     -13.110  12.447  72.109  1.00  0.00    -0.314 C  
ENDBRANCH  20  26
ENDBRANCH  15  18
ENDBRANCH  14  15
ENDBRANCH  12  14
ENDBRANCH  10  12
ENDBRANCH   9  10
ENDBRANCH   6   9
ENDBRANCH   2   3
TORSDOF 8
ENDMDL
MODEL       74
REMARK 921   NORMALIZED FREE ENERGY PREDICTED BY IDOCK:   -5.33 KCAL/MOL
REMARK 922        TOTAL FREE ENERGY PREDICTED BY IDOCK:   -9.32 KCAL/MOL
REMARK 923 INTER-LIGAND FREE ENERGY PREDICTED BY IDOCK:   -8.00 KCAL/MOL
REMARK 924 INTRA-LIGAND FREE ENERGY PREDICTED BY IDOCK:   -1.32 KCAL/MOL
REMARK 927      BINDING AFFINITY PREDICTED BY RF-SCORE:    0.00 PKD
ROOT
HETATM    1  C   UNL     1     -13.214  15.161  73.162  1.00  0.00    -0.494 C  
HETATM    2  O   UNL     1     -11.895  15.459  72.714  1.00  0.00    -0.417 OA 
ENDROOT
BRANCH   2   3
HETATM    3  C   UNL     1     -11.685  15.257  71.378  1.00  0.00    -0.389 A  
HETATM    4  C   UNL     1     -11.079  16.308  70.692  1.00  0.00    -0.265 A  
HETATM    5  C   UNL     1     -10.860  16.220  69.315  1.00  0.00    -0.318 A  
HETATM    6  C   UNL     1     -11.218  15.060  68.614  1.00  0.00    -0.289 A  
HETATM    7  C   UNL     1     -12.010  14.088  70.694  1.00  0.00    -0.376 A  
HETATM    8  C   UNL     1     -11.781  13.991  69.320  1.00  0.00    -0.372 A  
BRANCH   6   9
HETATM    9  C   UNL     1     -11.125  14.988  67.109  1.00  0.00    -0.332 C  
BRANCH   9  10
HETATM   10  C   UNL     1      -9.696  14.931  66.514  1.00  0.00    -0.276 C  
HETATM   11  C   UNL     1      -8.795  14.029  67.364  1.00  0.00    -0.210 C  
BRANCH  10  12
HETATM   12  N   UNL     1      -9.667  14.420  65.126  1.00  0.00    -0.507 NA 
HETATM   13  H   UNL     1      -8.989  13.664  65.030  1.00  0.00     0.000 HD 
BRANCH  12  14
HETATM   14  C   UNL     1     -10.989  14.005  64.641  1.00  0.00    -0.392 C  
BRANCH  14  15
HETATM   15  C   UNL     1     -11.015  12.570  64.052  1.00  0.00    -0.398 C  
HETATM   16  H   UNL     1      -9.977  11.555  62.729  1.00  0.00     0.000 HD 
HETATM   17  O   UNL     1      -9.961  12.433  63.090  1.00  0.00    -0.350 OA 
BRANCH  15  18
HETATM   18  C   UNL     1     -10.854  11.528  65.152  1.00  0.00    -0.326 A  
HETATM   19  C   UNL     1     -10.077  10.367  64.948  1.00  0.00    -0.382 A  
HETATM   20  C   UNL     1      -9.898   9.420  65.963  1.00  0.00    -0.296 A  
HETATM   21  H   UNL     1     -10.827   8.911  69.073  1.00  0.00     0.000 HD 
HETATM   22  C   UNL     1     -10.505   9.651  67.203  1.00  0.00    -0.249 A  
HETATM   23  C   UNL     1     -11.449  11.725  66.404  1.00  0.00    -0.309 A  
HETATM   24  C   UNL     1     -11.267  10.794  67.427  1.00  0.00    -0.315 A  
HETATM   25  O   UNL     1     -10.415   8.754  68.231  1.00  0.00    -0.215 OA 
BRANCH  20  26
HETATM   26  N   UNL     1      -9.106   8.271  65.788  1.00  0.00    -0.341 N  
HETATM   27  H   UNL     1      -9.569   7.374  65.934  1.00  0.00     0.000 HD 
HETATM   28  O   UNL     1      -7.173   7.166  65.348  1.00  0.00    -0.065 OA 
HETATM   29  C   UNL     1      -7.788   8.223  65.445  1.00  0.00    -0.113 C  
ENDBRANCH  20  26
ENDBRANCH  15  18
ENDBRANCH  14  15
ENDBRANCH  12  14
ENDBRANCH  10  12
ENDBRANCH   9  10
ENDBRANCH   6   9
ENDBRANCH   2   3
TORSDOF 8
ENDMDL
MODEL       75
REMARK 921   NORMALIZED FREE ENERGY PREDICTED BY IDOCK:   -5.32 KCAL/MOL
REMARK 922        TOTAL FREE ENERGY PREDICTED BY IDOCK:   -9.31 KCAL/MOL
REMARK 923 INTER-LIGAND FREE ENERGY PREDICTED BY IDOCK:   -8.62 KCAL/MOL
REMARK 924 INTRA-LIGAND FREE ENERGY PREDICTED BY IDOCK:   -0.69 KCAL/MOL
REMARK 927      BINDING AFFINITY PREDICTED BY RF-SCORE:    0.00 PKD
ROOT
HETATM    1  C   UNL     1      -9.913   4.251  74.269  1.00  0.00    -0.161 C  
HETATM    2  O   UNL     1     -11.138   4.944  74.048  1.00  0.00    -0.287 OA 
ENDROOT
BRANCH   2   3
HETATM    3  C   UNL     1     -11.025   6.079  73.294  1.00  0.00    -0.215 A  
HETATM    4  C   UNL     1     -11.847   6.147  72.170  1.00  0.00    -0.339 A  
HETATM    5  C   UNL     1     -11.777   7.244  71.308  1.00  0.00    -0.328 A  
HETATM    6  C   UNL     1     -10.903   8.304  71.582  1.00  0.00    -0.320 A  
HETATM    7  C   UNL     1     -10.181   7.146  73.591  1.00  0.00    -0.402 A  
HETATM    8  C   UNL     1     -10.118   8.250  72.739  1.00  0.00    -0.333 A  
BRANCH   6   9
HETATM    9  C   UNL     1     -10.703   9.434  70.601  1.00  0.00    -0.353 C  
BRANCH   9  10
HETATM   10  C   UNL     1     -11.972  10.223  70.196  1.00  0.00    -0.234 C  
HETATM   11  C   UNL     1     -12.550  10.968  71.405  1.00  0.00    -0.498 C  
BRANCH  10  12
HETATM   12  N   UNL     1     -11.721  11.217  69.130  1.00  0.00    -0.311 NA 
HETATM   13  H   UNL     1     -11.602  12.151  69.522  1.00  0.00     0.000 HD 
BRANCH  12  14
HETATM   14  C   UNL     1     -10.586  10.859  68.270  1.00  0.00    -0.190 C  
BRANCH  14  15
HETATM   15  C   UNL     1      -9.860  12.083  67.655  1.00  0.00    -0.189 C  
HETATM   16  H   UNL     1      -8.056  12.482  66.985  1.00  0.00     0.000 HD 
HETATM   17  O   UNL     1      -8.501  11.732  67.362  1.00  0.00    -0.145 OA 
BRANCH  15  18
HETATM   18  C   UNL     1     -10.561  12.549  66.384  1.00  0.00    -0.271 A  
HETATM   19  C   UNL     1     -10.641  13.920  66.056  1.00  0.00    -0.293 A  
HETATM   20  C   UNL     1     -11.255  14.354  64.876  1.00  0.00    -0.389 A  
HETATM   21  H   UNL     1     -12.807  13.083  62.274  1.00  0.00     0.000 HD 
HETATM   22  C   UNL     1     -11.790  13.392  64.011  1.00  0.00    -0.445 A  
HETATM   23  C   UNL     1     -11.109  11.614  65.497  1.00  0.00    -0.297 A  
HETATM   24  C   UNL     1     -11.713  12.035  64.312  1.00  0.00    -0.425 A  
HETATM   25  O   UNL     1     -12.444  13.736  62.861  1.00  0.00    -0.601 OA 
BRANCH  20  26
HETATM   26  N   UNL     1     -11.321  15.713  64.518  1.00  0.00    -0.685 N  
HETATM   27  H   UNL     1     -11.681  15.920  63.587  1.00  0.00     0.000 HD 
HETATM   28  O   UNL     1     -11.022  17.936  64.864  1.00  0.00    -0.827 OA 
HETATM   29  C   UNL     1     -10.958  16.784  65.279  1.00  0.00    -0.078 C  
ENDBRANCH  20  26
ENDBRANCH  15  18
ENDBRANCH  14  15
ENDBRANCH  12  14
ENDBRANCH  10  12
ENDBRANCH   9  10
ENDBRANCH   6   9
ENDBRANCH   2   3
TORSDOF 8
ENDMDL
MODEL       76
REMARK 921   NORMALIZED FREE ENERGY PREDICTED BY IDOCK:   -5.31 KCAL/MOL
REMARK 922        TOTAL FREE ENERGY PREDICTED BY IDOCK:   -9.29 KCAL/MOL
REMARK 923 INTER-LIGAND FREE ENERGY PREDICTED BY IDOCK:   -8.23 KCAL/MOL
REMARK 924 INTRA-LIGAND FREE ENERGY PREDICTED BY IDOCK:   -1.06 KCAL/MOL
REMARK 927      BINDING AFFINITY PREDICTED BY RF-SCORE:    0.00 PKD
ROOT
HETATM    1  C   UNL     1     -10.440  17.771  65.817  1.00  0.00    -0.198 C  
HETATM    2  O   UNL     1     -10.859  17.021  64.680  1.00  0.00    -0.855 OA 
ENDROOT
BRANCH   2   3
HETATM    3  C   UNL     1     -11.053  15.688  64.914  1.00  0.00    -0.402 A  
HETATM    4  C   UNL     1     -10.168  15.093  65.812  1.00  0.00    -0.365 A  
HETATM    5  C   UNL     1     -10.253  13.725  66.087  1.00  0.00    -0.305 A  
HETATM    6  C   UNL     1     -11.249  12.944  65.486  1.00  0.00    -0.319 A  
HETATM    7  C   UNL     1     -12.067  14.924  64.342  1.00  0.00    -0.417 A  
HETATM    8  C   UNL     1     -12.163  13.560  64.624  1.00  0.00    -0.450 A  
BRANCH   6   9
HETATM    9  C   UNL     1     -11.281  11.444  65.653  1.00  0.00    -0.144 C  
BRANCH   9  10
HETATM   10  C   UNL     1     -10.162  10.651  64.934  1.00  0.00    -0.324 C  
HETATM   11  C   UNL     1      -9.760  11.349  63.630  1.00  0.00    -0.337 C  
BRANCH  10  12
HETATM   12  N   UNL     1      -8.943  10.494  65.758  1.00  0.00    -0.173 NA 
HETATM   13  H   UNL     1      -8.569  11.402  66.032  1.00  0.00     0.000 HD 
BRANCH  12  14
HETATM   14  C   UNL     1      -9.152   9.635  66.931  1.00  0.00    -0.138 C  
BRANCH  14  15
HETATM   15  C   UNL     1      -8.762  10.308  68.273  1.00  0.00    -0.126 C  
HETATM   16  H   UNL     1      -8.023  12.038  68.837  1.00  0.00     0.000 HD 
HETATM   17  O   UNL     1      -8.262  11.627  68.015  1.00  0.00    -0.131 OA 
BRANCH  15  18
HETATM   18  C   UNL     1      -9.959  10.380  69.213  1.00  0.00    -0.246 A  
HETATM   19  C   UNL     1     -10.094   9.481  70.293  1.00  0.00    -0.314 A  
HETATM   20  C   UNL     1     -11.174   9.561  71.180  1.00  0.00    -0.376 A  
HETATM   21  H   UNL     1     -13.880  11.366  71.637  1.00  0.00     0.000 HD 
HETATM   22  C   UNL     1     -12.127  10.566  70.979  1.00  0.00    -0.387 A  
HETATM   23  C   UNL     1     -10.933  11.371  69.040  1.00  0.00    -0.288 A  
HETATM   24  C   UNL     1     -12.007  11.468  69.926  1.00  0.00    -0.426 A  
HETATM   25  O   UNL     1     -13.233  10.683  71.773  1.00  0.00    -0.438 OA 
BRANCH  20  26
HETATM   26  N   UNL     1     -11.311   8.691  72.278  1.00  0.00    -0.363 N  
HETATM   27  H   UNL     1     -12.216   8.694  72.748  1.00  0.00     0.000 HD 
HETATM   28  O   UNL     1     -10.575   7.147  73.768  1.00  0.00    -0.377 OA 
HETATM   29  C   UNL     1     -10.369   7.846  72.782  1.00  0.00    -0.333 C  
ENDBRANCH  20  26
ENDBRANCH  15  18
ENDBRANCH  14  15
ENDBRANCH  12  14
ENDBRANCH  10  12
ENDBRANCH   9  10
ENDBRANCH   6   9
ENDBRANCH   2   3
TORSDOF 8
ENDMDL
MODEL       77
REMARK 921   NORMALIZED FREE ENERGY PREDICTED BY IDOCK:   -5.28 KCAL/MOL
REMARK 922        TOTAL FREE ENERGY PREDICTED BY IDOCK:   -9.25 KCAL/MOL
REMARK 923 INTER-LIGAND FREE ENERGY PREDICTED BY IDOCK:   -8.58 KCAL/MOL
REMARK 924 INTRA-LIGAND FREE ENERGY PREDICTED BY IDOCK:   -0.67 KCAL/MOL
REMARK 927      BINDING AFFINITY PREDICTED BY RF-SCORE:    0.00 PKD
ROOT
HETATM    1  C   UNL     1      -8.230   4.692  66.668  1.00  0.00    -0.106 C  
HETATM    2  O   UNL     1      -9.621   4.962  66.816  1.00  0.00    -0.137 OA 
ENDROOT
BRANCH   2   3
HETATM    3  C   UNL     1     -10.021   5.219  68.098  1.00  0.00    -0.155 A  
HETATM    4  C   UNL     1      -9.343   4.522  69.097  1.00  0.00    -0.214 A  
HETATM    5  C   UNL     1      -9.704   4.679  70.437  1.00  0.00    -0.292 A  
HETATM    6  C   UNL     1     -10.730   5.563  70.794  1.00  0.00    -0.294 A  
HETATM    7  C   UNL     1     -11.017   6.126  68.449  1.00  0.00    -0.391 A  
HETATM    8  C   UNL     1     -11.372   6.295  69.789  1.00  0.00    -0.506 A  
BRANCH   6   9
HETATM    9  C   UNL     1     -11.238   5.651  72.214  1.00  0.00    -0.317 C  
BRANCH   9  10
HETATM   10  C   UNL     1     -10.832   6.916  73.009  1.00  0.00    -0.296 C  
HETATM   11  C   UNL     1      -9.558   7.534  72.423  1.00  0.00    -0.205 C  
BRANCH  10  12
HETATM   12  N   UNL     1     -11.880   7.959  73.014  1.00  0.00    -0.633 NA 
HETATM   13  H   UNL     1     -12.018   8.332  73.953  1.00  0.00     0.000 HD 
BRANCH  12  14
HETATM   14  C   UNL     1     -11.618   9.038  72.053  1.00  0.00    -0.343 C  
BRANCH  14  15
HETATM   15  C   UNL     1     -12.899   9.608  71.392  1.00  0.00    -0.379 C  
HETATM   16  H   UNL     1     -14.820   9.646  71.804  1.00  0.00     0.000 HD 
HETATM   17  O   UNL     1     -14.035   9.297  72.210  1.00  0.00    -0.440 OA 
BRANCH  15  18
HETATM   18  C   UNL     1     -12.791  11.117  71.206  1.00  0.00    -0.515 A  
HETATM   19  C   UNL     1     -12.152  11.669  70.075  1.00  0.00    -0.395 A  
HETATM   20  C   UNL     1     -12.075  13.052  69.881  1.00  0.00    -0.277 A  
HETATM   21  H   UNL     1     -12.982  15.823  71.395  1.00  0.00     0.000 HD 
HETATM   22  C   UNL     1     -12.658  13.891  70.838  1.00  0.00    -0.361 A  
HETATM   23  C   UNL     1     -13.359  11.986  72.145  1.00  0.00    -0.396 A  
HETATM   24  C   UNL     1     -13.300  13.367  71.956  1.00  0.00    -0.569 A  
HETATM   25  O   UNL     1     -12.587  15.253  70.746  1.00  0.00    -0.356 OA 
BRANCH  20  26
HETATM   26  N   UNL     1     -11.467  13.621  68.747  1.00  0.00    -0.285 N  
HETATM   27  H   UNL     1     -10.498  13.920  68.854  1.00  0.00     0.000 HD 
HETATM   28  O   UNL     1     -11.424  14.352  66.599  1.00  0.00    -0.339 OA 
HETATM   29  C   UNL     1     -12.029  13.815  67.521  1.00  0.00    -0.376 C  
ENDBRANCH  20  26
ENDBRANCH  15  18
ENDBRANCH  14  15
ENDBRANCH  12  14
ENDBRANCH  10  12
ENDBRANCH   9  10
ENDBRANCH   6   9
ENDBRANCH   2   3
TORSDOF 8
ENDMDL
MODEL       78
REMARK 921   NORMALIZED FREE ENERGY PREDICTED BY IDOCK:   -5.26 KCAL/MOL
REMARK 922        TOTAL FREE ENERGY PREDICTED BY IDOCK:   -9.21 KCAL/MOL
REMARK 923 INTER-LIGAND FREE ENERGY PREDICTED BY IDOCK:   -8.25 KCAL/MOL
REMARK 924 INTRA-LIGAND FREE ENERGY PREDICTED BY IDOCK:   -0.96 KCAL/MOL
REMARK 927      BINDING AFFINITY PREDICTED BY RF-SCORE:    0.00 PKD
ROOT
HETATM    1  C   UNL     1      -9.162   6.542  73.759  1.00  0.00    -0.144 C  
HETATM    2  O   UNL     1     -10.208   7.508  73.782  1.00  0.00    -0.322 OA 
ENDROOT
BRANCH   2   3
HETATM    3  C   UNL     1     -10.389   8.184  72.607  1.00  0.00    -0.328 A  
HETATM    4  C   UNL     1     -11.704   8.532  72.302  1.00  0.00    -0.443 A  
HETATM    5  C   UNL     1     -12.001   9.186  71.104  1.00  0.00    -0.374 A  
HETATM    6  C   UNL     1     -10.977   9.528  70.211  1.00  0.00    -0.317 A  
HETATM    7  C   UNL     1      -9.363   8.553  71.741  1.00  0.00    -0.323 A  
HETATM    8  C   UNL     1      -9.655   9.218  70.549  1.00  0.00    -0.317 A  
BRANCH   6   9
HETATM    9  C   UNL     1     -11.279  10.107  68.849  1.00  0.00    -0.220 C  
BRANCH   9  10
HETATM   10  C   UNL     1     -10.287   9.746  67.717  1.00  0.00    -0.225 C  
HETATM   11  C   UNL     1     -10.517   8.308  67.239  1.00  0.00    -0.373 C  
BRANCH  10  12
HETATM   12  N   UNL     1     -10.400  10.637  66.541  1.00  0.00    -0.240 NA 
HETATM   13  H   UNL     1     -11.345  10.616  66.158  1.00  0.00     0.000 HD 
BRANCH  12  14
HETATM   14  C   UNL     1      -9.979  12.015  66.826  1.00  0.00    -0.201 C  
BRANCH  14  15
HETATM   15  C   UNL     1     -11.083  13.071  66.560  1.00  0.00    -0.288 C  
HETATM   16  H   UNL     1     -12.980  13.052  66.051  1.00  0.00     0.000 HD 
HETATM   17  O   UNL     1     -12.305  12.405  66.214  1.00  0.00    -0.577 OA 
BRANCH  15  18
HETATM   18  C   UNL     1     -11.300  13.952  67.784  1.00  0.00    -0.335 A  
HETATM   19  C   UNL     1     -10.842  15.287  67.813  1.00  0.00    -0.295 A  
HETATM   20  C   UNL     1     -11.064  16.112  68.921  1.00  0.00    -0.347 A  
HETATM   21  H   UNL     1     -12.461  15.955  71.890  1.00  0.00     0.000 HD 
HETATM   22  C   UNL     1     -11.765  15.586  70.013  1.00  0.00    -0.346 A  
HETATM   23  C   UNL     1     -11.995  13.457  68.895  1.00  0.00    -0.362 A  
HETATM   24  C   UNL     1     -12.234  14.275  70.000  1.00  0.00    -0.417 A  
HETATM   25  O   UNL     1     -11.985  16.312  71.150  1.00  0.00    -0.379 OA 
BRANCH  20  26
HETATM   26  N   UNL     1     -10.639  17.453  68.958  1.00  0.00    -0.353 N  
HETATM   27  H   UNL     1     -10.257  17.783  69.844  1.00  0.00     0.000 HD 
HETATM   28  O   UNL     1     -10.314  19.520  68.082  1.00  0.00    -0.421 OA 
HETATM   29  C   UNL     1     -10.681  18.359  67.941  1.00  0.00    -0.305 C  
ENDBRANCH  20  26
ENDBRANCH  15  18
ENDBRANCH  14  15
ENDBRANCH  12  14
ENDBRANCH  10  12
ENDBRANCH   9  10
ENDBRANCH   6   9
ENDBRANCH   2   3
TORSDOF 8
ENDMDL
MODEL       79
REMARK 921   NORMALIZED FREE ENERGY PREDICTED BY IDOCK:   -5.25 KCAL/MOL
REMARK 922        TOTAL FREE ENERGY PREDICTED BY IDOCK:   -9.20 KCAL/MOL
REMARK 923 INTER-LIGAND FREE ENERGY PREDICTED BY IDOCK:   -7.93 KCAL/MOL
REMARK 924 INTRA-LIGAND FREE ENERGY PREDICTED BY IDOCK:   -1.27 KCAL/MOL
REMARK 927      BINDING AFFINITY PREDICTED BY RF-SCORE:    0.00 PKD
ROOT
HETATM    1  C   UNL     1     -12.183  13.866  66.173  1.00  0.00    -0.464 C  
HETATM    2  O   UNL     1     -12.040  14.158  67.560  1.00  0.00    -0.395 OA 
ENDROOT
BRANCH   2   3
HETATM    3  C   UNL     1     -11.944  13.060  68.369  1.00  0.00    -0.271 A  
HETATM    4  C   UNL     1     -12.295  13.256  69.704  1.00  0.00    -0.154 A  
HETATM    5  C   UNL     1     -12.190  12.209  70.623  1.00  0.00    -0.392 A  
HETATM    6  C   UNL     1     -11.761  10.942  70.206  1.00  0.00    -0.437 A  
HETATM    7  C   UNL     1     -11.552  11.794  67.942  1.00  0.00    -0.377 A  
HETATM    8  C   UNL     1     -11.458  10.742  68.854  1.00  0.00    -0.362 A  
BRANCH   6   9
HETATM    9  C   UNL     1     -11.504   9.831  71.196  1.00  0.00    -0.472 C  
BRANCH   9  10
HETATM   10  C   UNL     1     -12.702   9.413  72.083  1.00  0.00    -0.382 C  
HETATM   11  C   UNL     1     -13.889   8.981  71.215  1.00  0.00    -0.224 C  
BRANCH  10  12
HETATM   12  N   UNL     1     -12.382   8.298  73.001  1.00  0.00    -0.610 NA 
HETATM   13  H   UNL     1     -13.159   7.639  73.057  1.00  0.00     0.000 HD 
BRANCH  12  14
HETATM   14  C   UNL     1     -11.133   7.609  72.650  1.00  0.00    -0.359 C  
BRANCH  14  15
HETATM   15  C   UNL     1     -11.322   6.104  72.326  1.00  0.00    -0.300 C  
HETATM   16  H   UNL     1     -12.817   4.830  72.292  1.00  0.00     0.000 HD 
HETATM   17  O   UNL     1     -12.702   5.751  72.490  1.00  0.00     0.032 OA 
BRANCH  15  18
HETATM   18  C   UNL     1     -10.871   5.792  70.904  1.00  0.00    -0.326 A  
HETATM   19  C   UNL     1     -11.099   6.703  69.851  1.00  0.00    -0.403 A  
HETATM   20  C   UNL     1     -10.661   6.439  68.548  1.00  0.00    -0.252 A  
HETATM   21  H   UNL     1      -9.088   4.078  66.891  1.00  0.00     0.000 HD 
HETATM   22  C   UNL     1      -9.975   5.243  68.307  1.00  0.00    -0.156 A  
HETATM   23  C   UNL     1     -10.185   4.604  70.626  1.00  0.00    -0.211 A  
HETATM   24  C   UNL     1      -9.732   4.335  69.334  1.00  0.00    -0.257 A  
HETATM   25  O   UNL     1      -9.554   4.890  67.055  1.00  0.00    -0.138 OA 
BRANCH  20  26
HETATM   26  N   UNL     1     -10.855   7.346  67.490  1.00  0.00    -0.497 N  
HETATM   27  H   UNL     1     -11.754   7.299  67.011  1.00  0.00     0.000 HD 
HETATM   28  O   UNL     1     -10.226   9.009  66.081  1.00  0.00    -0.267 OA 
HETATM   29  C   UNL     1      -9.975   8.282  67.036  1.00  0.00    -0.255 C  
ENDBRANCH  20  26
ENDBRANCH  15  18
ENDBRANCH  14  15
ENDBRANCH  12  14
ENDBRANCH  10  12
ENDBRANCH   9  10
ENDBRANCH   6   9
ENDBRANCH   2   3
TORSDOF 8
ENDMDL
MODEL       80
REMARK 921   NORMALIZED FREE ENERGY PREDICTED BY IDOCK:   -5.24 KCAL/MOL
REMARK 922        TOTAL FREE ENERGY PREDICTED BY IDOCK:   -9.19 KCAL/MOL
REMARK 923 INTER-LIGAND FREE ENERGY PREDICTED BY IDOCK:   -7.80 KCAL/MOL
REMARK 924 INTRA-LIGAND FREE ENERGY PREDICTED BY IDOCK:   -1.39 KCAL/MOL
REMARK 927      BINDING AFFINITY PREDICTED BY RF-SCORE:    0.00 PKD
ROOT
HETATM    1  C   UNL     1     -12.034  15.727  70.717  1.00  0.00    -0.407 C  
HETATM    2  O   UNL     1     -10.743  15.823  70.122  1.00  0.00    -0.308 OA 
ENDROOT
BRANCH   2   3
HETATM    3  C   UNL     1     -10.702  15.507  68.792  1.00  0.00    -0.249 A  
HETATM    4  C   UNL     1     -11.850  14.910  68.273  1.00  0.00    -0.308 A  
HETATM    5  C   UNL     1     -11.894  14.509  66.935  1.00  0.00    -0.399 A  
HETATM    6  C   UNL     1     -10.796  14.731  66.094  1.00  0.00    -0.321 A  
HETATM    7  C   UNL     1      -9.621  15.763  67.951  1.00  0.00    -0.214 A  
HETATM    8  C   UNL     1      -9.667  15.375  66.611  1.00  0.00    -0.269 A  
BRANCH   6   9
HETATM    9  C   UNL     1     -10.759  14.185  64.686  1.00  0.00    -0.408 C  
BRANCH   9  10
HETATM   10  C   UNL     1     -11.097  12.683  64.525  1.00  0.00    -0.327 C  
HETATM   11  C   UNL     1     -12.087  12.475  63.373  1.00  0.00    -0.621 C  
BRANCH  10  12
HETATM   12  N   UNL     1      -9.907  11.846  64.256  1.00  0.00    -0.422 NA 
HETATM   13  H   UNL     1      -9.187  12.383  63.772  1.00  0.00     0.000 HD 
BRANCH  12  14
HETATM   14  C   UNL     1      -9.368  11.213  65.466  1.00  0.00    -0.223 C  
BRANCH  14  15
HETATM   15  C   UNL     1     -10.121   9.922  65.882  1.00  0.00    -0.245 C  
HETATM   16  H   UNL     1      -9.722   7.999  65.948  1.00  0.00     0.000 HD 
HETATM   17  O   UNL     1      -9.261   8.790  65.693  1.00  0.00    -0.217 OA 
BRANCH  15  18
HETATM   18  C   UNL     1     -10.569   9.998  67.336  1.00  0.00    -0.330 A  
HETATM   19  C   UNL     1     -10.194   9.006  68.268  1.00  0.00    -0.241 A  
HETATM   20  C   UNL     1     -10.576   9.084  69.612  1.00  0.00    -0.224 A  
HETATM   21  H   UNL     1     -12.306  11.057  71.589  1.00  0.00     0.000 HD 
HETATM   22  C   UNL     1     -11.338  10.183  70.024  1.00  0.00    -0.287 A  
HETATM   23  C   UNL     1     -11.335  11.082  67.783  1.00  0.00    -0.365 A  
HETATM   24  C   UNL     1     -11.710  11.177  69.123  1.00  0.00    -0.408 A  
HETATM   25  O   UNL     1     -11.788  10.311  71.309  1.00  0.00    -0.364 OA 
BRANCH  20  26
HETATM   26  N   UNL     1     -10.190   8.119  70.561  1.00  0.00    -0.196 N  
HETATM   27  H   UNL     1      -9.303   8.282  71.038  1.00  0.00     0.000 HD 
HETATM   28  O   UNL     1     -10.432   6.191  71.731  1.00  0.00    -0.206 OA 
HETATM   29  C   UNL     1     -10.869   6.992  70.912  1.00  0.00    -0.241 C  
ENDBRANCH  20  26
ENDBRANCH  15  18
ENDBRANCH  14  15
ENDBRANCH  12  14
ENDBRANCH  10  12
ENDBRANCH   9  10
ENDBRANCH   6   9
ENDBRANCH   2   3
TORSDOF 8
ENDMDL
MODEL       81
REMARK 921   NORMALIZED FREE ENERGY PREDICTED BY IDOCK:   -5.24 KCAL/MOL
REMARK 922        TOTAL FREE ENERGY PREDICTED BY IDOCK:   -9.19 KCAL/MOL
REMARK 923 INTER-LIGAND FREE ENERGY PREDICTED BY IDOCK:   -8.23 KCAL/MOL
REMARK 924 INTRA-LIGAND FREE ENERGY PREDICTED BY IDOCK:   -0.96 KCAL/MOL
REMARK 927      BINDING AFFINITY PREDICTED BY RF-SCORE:    0.00 PKD
ROOT
HETATM    1  C   UNL     1     -12.464  15.612  72.097  1.00  0.00    -0.427 C  
HETATM    2  O   UNL     1     -13.023  14.380  71.651  1.00  0.00    -0.309 OA 
ENDROOT
BRANCH   2   3
HETATM    3  C   UNL     1     -12.290  13.733  70.695  1.00  0.00    -0.375 A  
HETATM    4  C   UNL     1     -11.424  14.530  69.949  1.00  0.00    -0.320 A  
HETATM    5  C   UNL     1     -10.663  13.974  68.917  1.00  0.00    -0.265 A  
HETATM    6  C   UNL     1     -10.739  12.602  68.643  1.00  0.00    -0.269 A  
HETATM    7  C   UNL     1     -12.343  12.362  70.450  1.00  0.00    -0.307 A  
HETATM    8  C   UNL     1     -11.574  11.801  69.429  1.00  0.00    -0.386 A  
BRANCH   6   9
HETATM    9  C   UNL     1     -10.039  11.997  67.450  1.00  0.00    -0.206 C  
BRANCH   9  10
HETATM   10  C   UNL     1     -10.565  12.423  66.057  1.00  0.00    -0.256 C  
HETATM   11  C   UNL     1     -12.095  12.526  66.069  1.00  0.00    -0.390 C  
BRANCH  10  12
HETATM   12  N   UNL     1     -10.028  13.726  65.608  1.00  0.00    -0.430 NA 
HETATM   13  H   UNL     1      -9.445  13.613  64.779  1.00  0.00     0.000 HD 
BRANCH  12  14
HETATM   14  C   UNL     1     -11.076  14.729  65.381  1.00  0.00    -0.357 C  
BRANCH  14  15
HETATM   15  C   UNL     1     -10.558  16.033  64.719  1.00  0.00    -0.070 C  
HETATM   16  H   UNL     1     -11.298  17.430  63.553  1.00  0.00     0.000 HD 
HETATM   17  O   UNL     1     -11.615  16.632  63.958  1.00  0.00    -1.197 OA 
BRANCH  15  18
HETATM   18  C   UNL     1     -10.054  17.014  65.770  1.00  0.00    -0.219 A  
HETATM   19  C   UNL     1      -8.964  16.690  66.607  1.00  0.00    -0.285 A  
HETATM   20  C   UNL     1      -8.476  17.597  67.554  1.00  0.00    -0.219 A  
HETATM   21  H   UNL     1      -9.116  20.628  68.648  1.00  0.00     0.000 HD 
HETATM   22  C   UNL     1      -9.089  18.852  67.652  1.00  0.00    -0.283 A  
HETATM   23  C   UNL     1     -10.646  18.276  65.898  1.00  0.00    -0.274 A  
HETATM   24  C   UNL     1     -10.158  19.194  66.830  1.00  0.00    -0.458 A  
HETATM   25  O   UNL     1      -8.700  19.777  68.581  1.00  0.00    -0.299 OA 
BRANCH  20  26
HETATM   26  N   UNL     1      -7.374  17.303  68.379  1.00  0.00    -0.214 N  
HETATM   27  H   UNL     1      -6.551  17.893  68.263  1.00  0.00     0.000 HD 
HETATM   28  O   UNL     1      -6.265  16.118  69.965  1.00  0.00    -0.192 OA 
HETATM   29  C   UNL     1      -7.286  16.317  69.315  1.00  0.00    -0.221 C  
ENDBRANCH  20  26
ENDBRANCH  15  18
ENDBRANCH  14  15
ENDBRANCH  12  14
ENDBRANCH  10  12
ENDBRANCH   9  10
ENDBRANCH   6   9
ENDBRANCH   2   3
TORSDOF 8
ENDMDL
MODEL       82
REMARK 921   NORMALIZED FREE ENERGY PREDICTED BY IDOCK:   -5.24 KCAL/MOL
REMARK 922        TOTAL FREE ENERGY PREDICTED BY IDOCK:   -9.18 KCAL/MOL
REMARK 923 INTER-LIGAND FREE ENERGY PREDICTED BY IDOCK:   -8.37 KCAL/MOL
REMARK 924 INTRA-LIGAND FREE ENERGY PREDICTED BY IDOCK:   -0.81 KCAL/MOL
REMARK 927      BINDING AFFINITY PREDICTED BY RF-SCORE:    0.00 PKD
ROOT
HETATM    1  C   UNL     1     -11.569  15.991  64.342  1.00  0.00    -0.212 C  
HETATM    2  O   UNL     1     -12.431  14.859  64.273  1.00  0.00    -0.670 OA 
ENDROOT
BRANCH   2   3
HETATM    3  C   UNL     1     -12.058  13.807  65.062  1.00  0.00    -0.403 A  
HETATM    4  C   UNL     1     -11.498  12.717  64.398  1.00  0.00    -0.402 A  
HETATM    5  C   UNL     1     -11.124  11.573  65.108  1.00  0.00    -0.260 A  
HETATM    6  C   UNL     1     -11.277  11.522  66.499  1.00  0.00    -0.324 A  
HETATM    7  C   UNL     1     -12.179  13.776  66.450  1.00  0.00    -0.480 A  
HETATM    8  C   UNL     1     -11.794  12.640  67.164  1.00  0.00    -0.399 A  
BRANCH   6   9
HETATM    9  C   UNL     1     -11.014  10.254  67.276  1.00  0.00    -0.277 C  
BRANCH   9  10
HETATM   10  C   UNL     1      -9.971   9.283  66.669  1.00  0.00    -0.264 C  
HETATM   11  C   UNL     1      -8.717   9.224  67.548  1.00  0.00    -0.116 C  
BRANCH  10  12
HETATM   12  N   UNL     1     -10.483   7.904  66.517  1.00  0.00    -0.450 NA 
HETATM   13  H   UNL     1     -10.512   7.632  65.535  1.00  0.00     0.000 HD 
BRANCH  12  14
HETATM   14  C   UNL     1      -9.730   6.924  67.311  1.00  0.00    -0.146 C  
BRANCH  14  15
HETATM   15  C   UNL     1     -10.593   5.741  67.822  1.00  0.00    -0.237 C  
HETATM   16  H   UNL     1     -10.533   3.780  67.707  1.00  0.00     0.000 HD 
HETATM   17  O   UNL     1     -10.005   4.505  67.395  1.00  0.00    -0.177 OA 
BRANCH  15  18
HETATM   18  C   UNL     1     -10.705   5.765  69.341  1.00  0.00    -0.397 A  
HETATM   19  C   UNL     1     -11.688   6.544  69.988  1.00  0.00    -0.388 A  
HETATM   20  C   UNL     1     -11.817   6.548  71.382  1.00  0.00    -0.329 A  
HETATM   21  H   UNL     1     -10.392   5.187  74.009  1.00  0.00     0.000 HD 
HETATM   22  C   UNL     1     -10.949   5.748  72.133  1.00  0.00    -0.257 A  
HETATM   23  C   UNL     1      -9.850   4.979  70.124  1.00  0.00    -0.303 A  
HETATM   24  C   UNL     1      -9.979   4.965  71.514  1.00  0.00    -0.260 A  
HETATM   25  O   UNL     1     -10.981   5.730  73.499  1.00  0.00    -0.262 OA 
BRANCH  20  26
HETATM   26  N   UNL     1     -12.808   7.298  72.043  1.00  0.00    -0.508 N  
HETATM   27  H   UNL     1     -13.374   6.797  72.728  1.00  0.00     0.000 HD 
HETATM   28  O   UNL     1     -14.005   9.177  72.473  1.00  0.00    -0.479 OA 
HETATM   29  C   UNL     1     -13.095   8.618  71.870  1.00  0.00    -0.373 C  
ENDBRANCH  20  26
ENDBRANCH  15  18
ENDBRANCH  14  15
ENDBRANCH  12  14
ENDBRANCH  10  12
ENDBRANCH   9  10
ENDBRANCH   6   9
ENDBRANCH   2   3
TORSDOF 8
ENDMDL
MODEL       83
REMARK 921   NORMALIZED FREE ENERGY PREDICTED BY IDOCK:   -5.24 KCAL/MOL
REMARK 922        TOTAL FREE ENERGY PREDICTED BY IDOCK:   -9.18 KCAL/MOL
REMARK 923 INTER-LIGAND FREE ENERGY PREDICTED BY IDOCK:   -8.03 KCAL/MOL
REMARK 924 INTRA-LIGAND FREE ENERGY PREDICTED BY IDOCK:   -1.15 KCAL/MOL
REMARK 927      BINDING AFFINITY PREDICTED BY RF-SCORE:    0.00 PKD
ROOT
HETATM    1  C   UNL     1     -12.233  15.382  64.234  1.00  0.00    -0.126 C  
HETATM    2  O   UNL     1     -12.509  14.108  63.658  1.00  0.00    -0.819 OA 
ENDROOT
BRANCH   2   3
HETATM    3  C   UNL     1     -11.919  13.052  64.297  1.00  0.00    -0.402 A  
HETATM    4  C   UNL     1     -12.117  12.988  65.676  1.00  0.00    -0.507 A  
HETATM    5  C   UNL     1     -11.520  11.973  66.428  1.00  0.00    -0.417 A  
HETATM    6  C   UNL     1     -10.743  10.991  65.801  1.00  0.00    -0.216 A  
HETATM    7  C   UNL     1     -11.177  12.058  63.663  1.00  0.00    -0.528 A  
HETATM    8  C   UNL     1     -10.590  11.036  64.411  1.00  0.00    -0.395 A  
BRANCH   6   9
HETATM    9  C   UNL     1      -9.973   9.966  66.599  1.00  0.00    -0.277 C  
BRANCH   9  10
HETATM   10  C   UNL     1      -9.111   8.971  65.785  1.00  0.00    -0.219 C  
HETATM   11  C   UNL     1      -7.646   9.037  66.231  1.00  0.00    -0.092 C  
BRANCH  10  12
HETATM   12  N   UNL     1      -9.562   7.568  65.920  1.00  0.00    -0.413 NA 
HETATM   13  H   UNL     1      -8.774   6.949  66.112  1.00  0.00     0.000 HD 
BRANCH  12  14
HETATM   14  C   UNL     1     -10.618   7.402  66.927  1.00  0.00    -0.305 C  
BRANCH  14  15
HETATM   15  C   UNL     1     -10.324   6.283  67.959  1.00  0.00    -0.192 C  
HETATM   16  H   UNL     1      -8.768   5.209  68.493  1.00  0.00     0.000 HD 
HETATM   17  O   UNL     1      -8.948   5.895  67.861  1.00  0.00    -0.113 OA 
BRANCH  15  18
HETATM   18  C   UNL     1     -10.631   6.755  69.375  1.00  0.00    -0.265 A  
HETATM   19  C   UNL     1     -10.879   8.116  69.653  1.00  0.00    -0.162 A  
HETATM   20  C   UNL     1     -11.192   8.553  70.945  1.00  0.00    -0.266 A  
HETATM   21  H   UNL     1     -11.571   7.308  73.962  1.00  0.00     0.000 HD 
HETATM   22  C   UNL     1     -11.265   7.602  71.970  1.00  0.00    -0.272 A  
HETATM   23  C   UNL     1     -10.709   5.831  70.425  1.00  0.00    -0.372 A  
HETATM   24  C   UNL     1     -11.034   6.254  71.715  1.00  0.00    -0.305 A  
HETATM   25  O   UNL     1     -11.521   7.953  73.266  1.00  0.00    -0.290 OA 
BRANCH  20  26
HETATM   26  N   UNL     1     -11.468   9.902  71.237  1.00  0.00    -0.375 N  
HETATM   27  H   UNL     1     -11.357  10.188  72.209  1.00  0.00     0.000 HD 
HETATM   28  O   UNL     1     -12.117  12.014  70.722  1.00  0.00    -0.349 OA 
HETATM   29  C   UNL     1     -11.868  10.868  70.363  1.00  0.00    -0.357 C  
ENDBRANCH  20  26
ENDBRANCH  15  18
ENDBRANCH  14  15
ENDBRANCH  12  14
ENDBRANCH  10  12
ENDBRANCH   9  10
ENDBRANCH   6   9
ENDBRANCH   2   3
TORSDOF 8
ENDMDL
MODEL       84
REMARK 921   NORMALIZED FREE ENERGY PREDICTED BY IDOCK:   -5.22 KCAL/MOL
REMARK 922        TOTAL FREE ENERGY PREDICTED BY IDOCK:   -9.16 KCAL/MOL
REMARK 923 INTER-LIGAND FREE ENERGY PREDICTED BY IDOCK:   -8.40 KCAL/MOL
REMARK 924 INTRA-LIGAND FREE ENERGY PREDICTED BY IDOCK:   -0.75 KCAL/MOL
REMARK 927      BINDING AFFINITY PREDICTED BY RF-SCORE:    0.00 PKD
ROOT
HETATM    1  C   UNL     1     -12.411  15.071  64.338  1.00  0.00    -0.266 C  
HETATM    2  O   UNL     1     -12.351  13.867  63.579  1.00  0.00    -0.739 OA 
ENDROOT
BRANCH   2   3
HETATM    3  C   UNL     1     -11.715  12.830  64.202  1.00  0.00    -0.401 A  
HETATM    4  C   UNL     1     -10.877  12.058  63.397  1.00  0.00    -0.471 A  
HETATM    5  C   UNL     1     -10.215  10.948  63.927  1.00  0.00    -0.418 A  
HETATM    6  C   UNL     1     -10.359  10.617  65.280  1.00  0.00    -0.321 A  
HETATM    7  C   UNL     1     -11.834  12.527  65.556  1.00  0.00    -0.491 A  
HETATM    8  C   UNL     1     -11.163  11.426  66.092  1.00  0.00    -0.203 A  
BRANCH   6   9
HETATM    9  C   UNL     1      -9.771   9.348  65.849  1.00  0.00    -0.355 C  
BRANCH   9  10
HETATM   10  C   UNL     1      -8.559   9.519  66.796  1.00  0.00    -0.127 C  
HETATM   11  C   UNL     1      -7.944  10.914  66.636  1.00  0.00    -0.148 C  
BRANCH  10  12
HETATM   12  N   UNL     1      -8.908   9.340  68.222  1.00  0.00    -0.129 NA 
HETATM   13  H   UNL     1      -8.713  10.188  68.755  1.00  0.00     0.000 HD 
BRANCH  12  14
HETATM   14  C   UNL     1     -10.296   8.902  68.420  1.00  0.00    -0.200 C  
BRANCH  14  15
HETATM   15  C   UNL     1     -10.663   8.649  69.906  1.00  0.00    -0.225 C  
HETATM   16  H   UNL     1      -9.688   8.320  71.579  1.00  0.00     0.000 HD 
HETATM   17  O   UNL     1      -9.462   8.475  70.670  1.00  0.00    -0.161 OA 
BRANCH  15  18
HETATM   18  C   UNL     1     -11.474   9.809  70.471  1.00  0.00    -0.370 A  
HETATM   19  C   UNL     1     -11.298  11.125  69.990  1.00  0.00    -0.326 A  
HETATM   20  C   UNL     1     -12.061  12.190  70.482  1.00  0.00    -0.293 A  
HETATM   21  H   UNL     1     -14.425  12.735  72.696  1.00  0.00     0.000 HD 
HETATM   22  C   UNL     1     -13.020  11.924  71.466  1.00  0.00    -0.323 A  
HETATM   23  C   UNL     1     -12.441   9.580  71.458  1.00  0.00    -0.463 A  
HETATM   24  C   UNL     1     -13.216  10.632  71.946  1.00  0.00    -0.528 A  
HETATM   25  O   UNL     1     -13.774  12.916  72.028  1.00  0.00    -0.433 OA 
BRANCH  20  26
HETATM   26  N   UNL     1     -11.918  13.504  69.996  1.00  0.00    -0.344 N  
HETATM   27  H   UNL     1     -11.967  14.251  70.689  1.00  0.00     0.000 HD 
HETATM   28  O   UNL     1     -11.643  15.066  68.374  1.00  0.00    -0.309 OA 
HETATM   29  C   UNL     1     -11.723  13.888  68.704  1.00  0.00    -0.361 C  
ENDBRANCH  20  26
ENDBRANCH  15  18
ENDBRANCH  14  15
ENDBRANCH  12  14
ENDBRANCH  10  12
ENDBRANCH   9  10
ENDBRANCH   6   9
ENDBRANCH   2   3
TORSDOF 8
ENDMDL
MODEL       85
REMARK 921   NORMALIZED FREE ENERGY PREDICTED BY IDOCK:   -5.22 KCAL/MOL
REMARK 922        TOTAL FREE ENERGY PREDICTED BY IDOCK:   -9.15 KCAL/MOL
REMARK 923 INTER-LIGAND FREE ENERGY PREDICTED BY IDOCK:   -8.39 KCAL/MOL
REMARK 924 INTRA-LIGAND FREE ENERGY PREDICTED BY IDOCK:   -0.76 KCAL/MOL
REMARK 927      BINDING AFFINITY PREDICTED BY RF-SCORE:    0.00 PKD
ROOT
HETATM    1  C   UNL     1      -6.649   8.547  65.213  1.00  0.00    -0.063 C  
HETATM    2  O   UNL     1      -7.566   8.537  64.122  1.00  0.00    -0.109 OA 
ENDROOT
BRANCH   2   3
HETATM    3  C   UNL     1      -8.629   9.385  64.262  1.00  0.00    -0.196 A  
HETATM    4  C   UNL     1      -8.969  10.126  63.130  1.00  0.00    -0.260 A  
HETATM    5  C   UNL     1     -10.012  11.054  63.180  1.00  0.00    -0.382 A  
HETATM    6  C   UNL     1     -10.749  11.227  64.359  1.00  0.00    -0.407 A  
HETATM    7  C   UNL     1      -9.381   9.527  65.425  1.00  0.00    -0.324 A  
HETATM    8  C   UNL     1     -10.433  10.444  65.475  1.00  0.00    -0.192 A  
BRANCH   6   9
HETATM    9  C   UNL     1     -11.787  12.316  64.487  1.00  0.00    -0.441 C  
BRANCH   9  10
HETATM   10  C   UNL     1     -11.252  13.769  64.539  1.00  0.00    -0.373 C  
HETATM   11  C   UNL     1     -12.383  14.768  64.269  1.00  0.00    -0.345 C  
BRANCH  10  12
HETATM   12  N   UNL     1     -10.642  14.116  65.841  1.00  0.00    -0.290 NA 
HETATM   13  H   UNL     1      -9.956  14.863  65.734  1.00  0.00     0.000 HD 
BRANCH  12  14
HETATM   14  C   UNL     1     -11.637  14.459  66.865  1.00  0.00    -0.388 C  
BRANCH  14  15
HETATM   15  C   UNL     1     -11.022  15.073  68.150  1.00  0.00    -0.279 C  
HETATM   16  H   UNL     1     -10.674  16.879  68.841  1.00  0.00     0.000 HD 
HETATM   17  O   UNL     1     -11.051  16.503  68.054  1.00  0.00    -0.345 OA 
BRANCH  15  18
HETATM   18  C   UNL     1     -11.785  14.619  69.388  1.00  0.00    -0.355 A  
HETATM   19  C   UNL     1     -11.986  13.249  69.661  1.00  0.00    -0.376 A  
HETATM   20  C   UNL     1     -12.659  12.824  70.812  1.00  0.00    -0.225 A  
HETATM   21  H   UNL     1     -14.153  14.121  73.434  1.00  0.00     0.000 HD 
HETATM   22  C   UNL     1     -13.129  13.794  71.705  1.00  0.00    -0.375 A  
HETATM   23  C   UNL     1     -12.272  15.563  70.301  1.00  0.00    -0.432 A  
HETATM   24  C   UNL     1     -12.933  15.150  71.459  1.00  0.00    -0.458 A  
HETATM   25  O   UNL     1     -13.834  13.463  72.828  1.00  0.00    -0.720 OA 
BRANCH  20  26
HETATM   26  N   UNL     1     -12.846  11.462  71.115  1.00  0.00    -0.371 N  
HETATM   27  H   UNL     1     -13.758  11.201  71.487  1.00  0.00     0.000 HD 
HETATM   28  O   UNL     1     -12.188   9.298  71.290  1.00  0.00    -0.307 OA 
HETATM   29  C   UNL     1     -11.941  10.454  70.965  1.00  0.00    -0.382 C  
ENDBRANCH  20  26
ENDBRANCH  15  18
ENDBRANCH  14  15
ENDBRANCH  12  14
ENDBRANCH  10  12
ENDBRANCH   9  10
ENDBRANCH   6   9
ENDBRANCH   2   3
TORSDOF 8
ENDMDL
MODEL       86
REMARK 921   NORMALIZED FREE ENERGY PREDICTED BY IDOCK:   -5.21 KCAL/MOL
REMARK 922        TOTAL FREE ENERGY PREDICTED BY IDOCK:   -9.14 KCAL/MOL
REMARK 923 INTER-LIGAND FREE ENERGY PREDICTED BY IDOCK:   -8.24 KCAL/MOL
REMARK 924 INTRA-LIGAND FREE ENERGY PREDICTED BY IDOCK:   -0.90 KCAL/MOL
REMARK 927      BINDING AFFINITY PREDICTED BY RF-SCORE:    0.00 PKD
ROOT
HETATM    1  C   UNL     1      -9.410   3.964  67.334  1.00  0.00    -0.191 C  
HETATM    2  O   UNL     1     -10.479   4.885  67.141  1.00  0.00    -0.170 OA 
ENDROOT
BRANCH   2   3
HETATM    3  C   UNL     1     -10.090   6.143  66.772  1.00  0.00    -0.182 A  
HETATM    4  C   UNL     1      -8.946   6.218  65.980  1.00  0.00    -0.150 A  
HETATM    5  C   UNL     1      -8.440   7.459  65.585  1.00  0.00    -0.137 A  
HETATM    6  C   UNL     1      -9.096   8.641  65.954  1.00  0.00    -0.259 A  
HETATM    7  C   UNL     1     -10.767   7.312  67.112  1.00  0.00    -0.413 A  
HETATM    8  C   UNL     1     -10.271   8.553  66.709  1.00  0.00    -0.370 A  
BRANCH   6   9
HETATM    9  C   UNL     1      -8.500   9.997  65.664  1.00  0.00    -0.155 C  
BRANCH   9  10
HETATM   10  C   UNL     1      -9.433  11.215  65.875  1.00  0.00    -0.215 C  
HETATM   11  C   UNL     1      -8.793  12.222  66.838  1.00  0.00    -0.207 C  
BRANCH  10  12
HETATM   12  N   UNL     1      -9.750  11.928  64.619  1.00  0.00    -0.419 NA 
HETATM   13  H   UNL     1      -9.022  11.776  63.921  1.00  0.00     0.000 HD 
BRANCH  12  14
HETATM   14  C   UNL     1     -11.072  11.581  64.083  1.00  0.00    -0.344 C  
BRANCH  14  15
HETATM   15  C   UNL     1     -12.064  12.773  64.054  1.00  0.00    -0.457 C  
HETATM   16  H   UNL     1     -14.005  13.017  64.243  1.00  0.00     0.000 HD 
HETATM   17  O   UNL     1     -13.397  12.287  64.261  1.00  0.00    -0.777 OA 
BRANCH  15  18
HETATM   18  C   UNL     1     -11.714  13.799  65.124  1.00  0.00    -0.354 A  
HETATM   19  C   UNL     1     -12.197  13.671  66.444  1.00  0.00    -0.472 A  
HETATM   20  C   UNL     1     -11.854  14.592  67.440  1.00  0.00    -0.348 A  
HETATM   21  H   UNL     1     -10.083  17.338  67.778  1.00  0.00     0.000 HD 
HETATM   22  C   UNL     1     -11.005  15.653  67.103  1.00  0.00    -0.270 A  
HETATM   23  C   UNL     1     -10.869  14.875  64.821  1.00  0.00    -0.382 A  
HETATM   24  C   UNL     1     -10.510  15.792  65.810  1.00  0.00    -0.384 A  
HETATM   25  O   UNL     1     -10.659  16.618  68.007  1.00  0.00    -0.311 OA 
BRANCH  20  26
HETATM   26  N   UNL     1     -12.304  14.466  68.768  1.00  0.00    -0.585 N  
HETATM   27  H   UNL     1     -12.999  15.145  69.078  1.00  0.00     0.000 HD 
HETATM   28  O   UNL     1     -12.342  13.530  70.835  1.00  0.00    -0.351 OA 
HETATM   29  C   UNL     1     -11.914  13.538  69.686  1.00  0.00    -0.337 C  
ENDBRANCH  20  26
ENDBRANCH  15  18
ENDBRANCH  14  15
ENDBRANCH  12  14
ENDBRANCH  10  12
ENDBRANCH   9  10
ENDBRANCH   6   9
ENDBRANCH   2   3
TORSDOF 8
ENDMDL
MODEL       87
REMARK 921   NORMALIZED FREE ENERGY PREDICTED BY IDOCK:   -5.21 KCAL/MOL
REMARK 922        TOTAL FREE ENERGY PREDICTED BY IDOCK:   -9.14 KCAL/MOL
REMARK 923 INTER-LIGAND FREE ENERGY PREDICTED BY IDOCK:   -8.78 KCAL/MOL
REMARK 924 INTRA-LIGAND FREE ENERGY PREDICTED BY IDOCK:   -0.36 KCAL/MOL
REMARK 927      BINDING AFFINITY PREDICTED BY RF-SCORE:    0.00 PKD
ROOT
HETATM    1  C   UNL     1     -10.067   3.663  73.061  1.00  0.00    -0.152 C  
HETATM    2  O   UNL     1     -11.102   4.577  73.412  1.00  0.00    -0.273 OA 
ENDROOT
BRANCH   2   3
HETATM    3  C   UNL     1     -11.076   5.760  72.727  1.00  0.00    -0.284 A  
HETATM    4  C   UNL     1     -10.557   6.853  73.419  1.00  0.00    -0.372 A  
HETATM    5  C   UNL     1     -10.527   8.117  72.824  1.00  0.00    -0.385 A  
HETATM    6  C   UNL     1     -10.989   8.293  71.514  1.00  0.00    -0.312 A  
HETATM    7  C   UNL     1     -11.503   5.922  71.411  1.00  0.00    -0.191 A  
HETATM    8  C   UNL     1     -11.463   7.181  70.809  1.00  0.00    -0.342 A  
BRANCH   6   9
HETATM    9  C   UNL     1     -11.100   9.666  70.894  1.00  0.00    -0.422 C  
BRANCH   9  10
HETATM   10  C   UNL     1     -12.516  10.290  70.861  1.00  0.00    -0.370 C  
HETATM   11  C   UNL     1     -13.391   9.699  71.973  1.00  0.00    -0.547 C  
BRANCH  10  12
HETATM   12  N   UNL     1     -12.507  11.760  71.026  1.00  0.00    -0.359 NA 
HETATM   13  H   UNL     1     -12.013  12.027  71.877  1.00  0.00     0.000 HD 
BRANCH  12  14
HETATM   14  C   UNL     1     -11.959  12.462  69.858  1.00  0.00    -0.299 C  
BRANCH  14  15
HETATM   15  C   UNL     1     -12.189  13.996  69.889  1.00  0.00    -0.340 C  
HETATM   16  H   UNL     1     -11.746  15.479  71.100  1.00  0.00     0.000 HD 
HETATM   17  O   UNL     1     -11.605  14.540  71.080  1.00  0.00    -0.272 OA 
BRANCH  15  18
HETATM   18  C   UNL     1     -11.581  14.662  68.661  1.00  0.00    -0.343 A  
HETATM   19  C   UNL     1     -11.534  13.996  67.418  1.00  0.00    -0.373 A  
HETATM   20  C   UNL     1     -11.005  14.613  66.278  1.00  0.00    -0.327 A  
HETATM   21  H   UNL     1      -9.628  17.467  65.415  1.00  0.00     0.000 HD 
HETATM   22  C   UNL     1     -10.525  15.923  66.392  1.00  0.00    -0.308 A  
HETATM   23  C   UNL     1     -11.089  15.971  68.740  1.00  0.00    -0.338 A  
HETATM   24  C   UNL     1     -10.571  16.600  67.607  1.00  0.00    -0.321 A  
HETATM   25  O   UNL     1      -9.954  16.578  65.338  1.00  0.00    -0.552 OA 
BRANCH  20  26
HETATM   26  N   UNL     1     -10.974  13.975  65.024  1.00  0.00    -0.353 N  
HETATM   27  H   UNL     1     -10.069  13.940  64.555  1.00  0.00     0.000 HD 
HETATM   28  O   UNL     1     -11.898  12.894  63.256  1.00  0.00    -0.537 OA 
HETATM   29  C   UNL     1     -12.020  13.399  64.366  1.00  0.00    -0.411 C  
ENDBRANCH  20  26
ENDBRANCH  15  18
ENDBRANCH  14  15
ENDBRANCH  12  14
ENDBRANCH  10  12
ENDBRANCH   9  10
ENDBRANCH   6   9
ENDBRANCH   2   3
TORSDOF 8
ENDMDL
MODEL       88
REMARK 921   NORMALIZED FREE ENERGY PREDICTED BY IDOCK:   -5.21 KCAL/MOL
REMARK 922        TOTAL FREE ENERGY PREDICTED BY IDOCK:   -9.13 KCAL/MOL
REMARK 923 INTER-LIGAND FREE ENERGY PREDICTED BY IDOCK:   -8.54 KCAL/MOL
REMARK 924 INTRA-LIGAND FREE ENERGY PREDICTED BY IDOCK:   -0.59 KCAL/MOL
REMARK 927      BINDING AFFINITY PREDICTED BY RF-SCORE:    0.00 PKD
ROOT
HETATM    1  C   UNL     1     -10.009   4.955  74.365  1.00  0.00    -0.206 C  
HETATM    2  O   UNL     1     -10.639   6.134  73.872  1.00  0.00    -0.272 OA 
ENDROOT
BRANCH   2   3
HETATM    3  C   UNL     1     -10.846   6.150  72.521  1.00  0.00    -0.240 A  
HETATM    4  C   UNL     1     -10.093   5.241  71.779  1.00  0.00    -0.257 A  
HETATM    5  C   UNL     1     -10.197   5.207  70.387  1.00  0.00    -0.334 A  
HETATM    6  C   UNL     1     -11.083   6.065  69.723  1.00  0.00    -0.476 A  
HETATM    7  C   UNL     1     -11.755   6.980  71.869  1.00  0.00    -0.333 A  
HETATM    8  C   UNL     1     -11.871   6.940  70.479  1.00  0.00    -0.385 A  
BRANCH   6   9
HETATM    9  C   UNL     1     -11.117   6.151  68.215  1.00  0.00    -0.336 C  
BRANCH   9  10
HETATM   10  C   UNL     1      -9.862   6.752  67.535  1.00  0.00    -0.132 C  
HETATM   11  C   UNL     1      -8.939   5.638  67.031  1.00  0.00    -0.114 C  
BRANCH  10  12
HETATM   12  N   UNL     1     -10.187   7.625  66.386  1.00  0.00    -0.485 NA 
HETATM   13  H   UNL     1     -11.014   7.286  65.894  1.00  0.00     0.000 HD 
BRANCH  12  14
HETATM   14  C   UNL     1     -10.343   9.035  66.766  1.00  0.00    -0.240 C  
BRANCH  14  15
HETATM   15  C   UNL     1      -9.558  10.016  65.857  1.00  0.00    -0.224 C  
HETATM   16  H   UNL     1      -8.612   9.917  64.137  1.00  0.00     0.000 HD 
HETATM   17  O   UNL     1      -9.093   9.317  64.694  1.00  0.00    -0.210 OA 
BRANCH  15  18
HETATM   18  C   UNL     1     -10.434  11.191  65.441  1.00  0.00    -0.321 A  
HETATM   19  C   UNL     1     -10.940  12.099  66.396  1.00  0.00    -0.327 A  
HETATM   20  C   UNL     1     -11.719  13.198  66.019  1.00  0.00    -0.379 A  
HETATM   21  H   UNL     1     -12.954  14.544  63.289  1.00  0.00     0.000 HD 
HETATM   22  C   UNL     1     -11.984  13.390  64.658  1.00  0.00    -0.399 A  
HETATM   23  C   UNL     1     -10.722  11.412  64.088  1.00  0.00    -0.434 A  
HETATM   24  C   UNL     1     -11.487  12.513  63.699  1.00  0.00    -0.568 A  
HETATM   25  O   UNL     1     -12.773  14.414  64.213  1.00  0.00    -0.657 OA 
BRANCH  20  26
HETATM   26  N   UNL     1     -12.209  14.128  66.954  1.00  0.00    -0.536 N  
HETATM   27  H   UNL     1     -13.214  14.300  66.939  1.00  0.00     0.000 HD 
HETATM   28  O   UNL     1     -12.007  15.643  68.632  1.00  0.00    -0.336 OA 
HETATM   29  C   UNL     1     -11.490  14.825  67.878  1.00  0.00    -0.342 C  
ENDBRANCH  20  26
ENDBRANCH  15  18
ENDBRANCH  14  15
ENDBRANCH  12  14
ENDBRANCH  10  12
ENDBRANCH   9  10
ENDBRANCH   6   9
ENDBRANCH   2   3
TORSDOF 8
ENDMDL
MODEL       89
REMARK 921   NORMALIZED FREE ENERGY PREDICTED BY IDOCK:   -5.19 KCAL/MOL
REMARK 922        TOTAL FREE ENERGY PREDICTED BY IDOCK:   -9.11 KCAL/MOL
REMARK 923 INTER-LIGAND FREE ENERGY PREDICTED BY IDOCK:   -7.11 KCAL/MOL
REMARK 924 INTRA-LIGAND FREE ENERGY PREDICTED BY IDOCK:   -1.99 KCAL/MOL
REMARK 927      BINDING AFFINITY PREDICTED BY RF-SCORE:    0.00 PKD
ROOT
HETATM    1  C   UNL     1     -11.763  16.081  64.359  1.00  0.00    -0.134 C  
HETATM    2  O   UNL     1     -12.605  14.946  64.174  1.00  0.00    -0.785 OA 
ENDROOT
BRANCH   2   3
HETATM    3  C   UNL     1     -11.945  13.753  64.084  1.00  0.00    -0.432 A  
HETATM    4  C   UNL     1     -10.594  13.777  64.427  1.00  0.00    -0.316 A  
HETATM    5  C   UNL     1      -9.818  12.619  64.327  1.00  0.00    -0.085 A  
HETATM    6  C   UNL     1     -10.397  11.414  63.911  1.00  0.00    -0.434 A  
HETATM    7  C   UNL     1     -12.534  12.549  63.704  1.00  0.00    -0.570 A  
HETATM    8  C   UNL     1     -11.765  11.387  63.616  1.00  0.00    -0.092 A  
BRANCH   6   9
HETATM    9  C   UNL     1      -9.560  10.182  63.659  1.00  0.00    -0.268 C  
BRANCH   9  10
HETATM   10  C   UNL     1      -9.110   9.392  64.912  1.00  0.00    -0.202 C  
HETATM   11  C   UNL     1      -7.875  10.042  65.544  1.00  0.00    -0.134 C  
BRANCH  10  12
HETATM   12  N   UNL     1     -10.159   9.307  65.951  1.00  0.00    -0.367 NA 
HETATM   13  H   UNL     1     -10.524   8.357  66.024  1.00  0.00     0.000 HD 
BRANCH  12  14
HETATM   14  C   UNL     1      -9.708   9.797  67.260  1.00  0.00    -0.169 C  
BRANCH  14  15
HETATM   15  C   UNL     1     -10.837  10.437  68.109  1.00  0.00    -0.264 C  
HETATM   16  H   UNL     1     -11.377  10.432  69.998  1.00  0.00     0.000 HD 
HETATM   17  O   UNL     1     -10.685  10.041  69.478  1.00  0.00    -0.213 OA 
BRANCH  15  18
HETATM   18  C   UNL     1     -10.805  11.957  68.001  1.00  0.00    -0.256 A  
HETATM   19  C   UNL     1      -9.584  12.653  67.863  1.00  0.00    -0.211 A  
HETATM   20  C   UNL     1      -9.548  14.045  67.733  1.00  0.00    -0.216 A  
HETATM   21  H   UNL     1     -11.629  16.585  67.654  1.00  0.00     0.000 HD 
HETATM   22  C   UNL     1     -10.760  14.746  67.733  1.00  0.00    -0.268 A  
HETATM   23  C   UNL     1     -11.998  12.690  68.001  1.00  0.00    -0.300 A  
HETATM   24  C   UNL     1     -11.974  14.078  67.858  1.00  0.00    -0.387 A  
HETATM   25  O   UNL     1     -10.807  16.110  67.654  1.00  0.00    -0.318 OA 
BRANCH  20  26
HETATM   26  N   UNL     1      -8.343  14.754  67.567  1.00  0.00    -0.170 N  
HETATM   27  H   UNL     1      -8.427  15.750  67.366  1.00  0.00     0.000 HD 
HETATM   28  O   UNL     1      -6.085  14.951  67.453  1.00  0.00    -0.339 OA 
HETATM   29  C   UNL     1      -7.077  14.256  67.646  1.00  0.00    -0.183 C  
ENDBRANCH  20  26
ENDBRANCH  15  18
ENDBRANCH  14  15
ENDBRANCH  12  14
ENDBRANCH  10  12
ENDBRANCH   9  10
ENDBRANCH   6   9
ENDBRANCH   2   3
TORSDOF 8
ENDMDL
MODEL       90
REMARK 921   NORMALIZED FREE ENERGY PREDICTED BY IDOCK:   -5.18 KCAL/MOL
REMARK 922        TOTAL FREE ENERGY PREDICTED BY IDOCK:   -9.10 KCAL/MOL
REMARK 923 INTER-LIGAND FREE ENERGY PREDICTED BY IDOCK:   -7.57 KCAL/MOL
REMARK 924 INTRA-LIGAND FREE ENERGY PREDICTED BY IDOCK:   -1.53 KCAL/MOL
REMARK 927      BINDING AFFINITY PREDICTED BY RF-SCORE:    0.00 PKD
ROOT
HETATM    1  C   UNL     1     -11.654  15.975  64.331  1.00  0.00    -0.212 C  
HETATM    2  O   UNL     1     -12.530  14.856  64.429  1.00  0.00    -0.558 OA 
ENDROOT
BRANCH   2   3
HETATM    3  C   UNL     1     -12.096  13.861  65.260  1.00  0.00    -0.410 A  
HETATM    4  C   UNL     1     -11.420  12.807  64.646  1.00  0.00    -0.367 A  
HETATM    5  C   UNL     1     -10.974  11.719  65.400  1.00  0.00    -0.352 A  
HETATM    6  C   UNL     1     -11.173  11.689  66.786  1.00  0.00    -0.371 A  
HETATM    7  C   UNL     1     -12.265  13.854  66.642  1.00  0.00    -0.465 A  
HETATM    8  C   UNL     1     -11.810  12.774  67.401  1.00  0.00    -0.404 A  
BRANCH   6   9
HETATM    9  C   UNL     1     -10.830  10.469  67.607  1.00  0.00    -0.355 C  
BRANCH   9  10
HETATM   10  C   UNL     1      -9.360  10.353  68.079  1.00  0.00    -0.140 C  
HETATM   11  C   UNL     1      -8.460   9.895  66.926  1.00  0.00    -0.125 C  
BRANCH  10  12
HETATM   12  N   UNL     1      -8.816  11.625  68.601  1.00  0.00    -0.316 NA 
HETATM   13  H   UNL     1      -8.398  11.492  69.521  1.00  0.00     0.000 HD 
BRANCH  12  14
HETATM   14  C   UNL     1      -7.866  12.261  67.679  1.00  0.00    -0.156 C  
BRANCH  14  15
HETATM   15  C   UNL     1      -7.287  13.600  68.208  1.00  0.00    -0.119 C  
HETATM   16  H   UNL     1      -5.684  14.687  67.878  1.00  0.00     0.000 HD 
HETATM   17  O   UNL     1      -6.039  13.868  67.555  1.00  0.00    -0.317 OA 
BRANCH  15  18
HETATM   18  C   UNL     1      -8.259  14.748  67.963  1.00  0.00    -0.142 A  
HETATM   19  C   UNL     1      -9.323  15.005  68.853  1.00  0.00    -0.208 A  
HETATM   20  C   UNL     1     -10.201  16.076  68.652  1.00  0.00    -0.231 A  
HETATM   21  H   UNL     1     -10.699  18.505  66.497  1.00  0.00     0.000 HD 
HETATM   22  C   UNL     1      -9.998  16.904  67.541  1.00  0.00    -0.268 A  
HETATM   23  C   UNL     1      -8.087  15.594  66.860  1.00  0.00    -0.290 A  
HETATM   24  C   UNL     1      -8.948  16.673  66.657  1.00  0.00    -0.285 A  
HETATM   25  O   UNL     1     -10.837  17.943  67.251  1.00  0.00    -0.312 OA 
BRANCH  20  26
HETATM   26  N   UNL     1     -11.252  16.365  69.542  1.00  0.00    -0.290 N  
HETATM   27  H   UNL     1     -11.316  17.328  69.871  1.00  0.00     0.000 HD 
HETATM   28  O   UNL     1     -13.054  15.841  70.818  1.00  0.00    -0.522 OA 
HETATM   29  C   UNL     1     -12.193  15.500  70.014  1.00  0.00    -0.355 C  
ENDBRANCH  20  26
ENDBRANCH  15  18
ENDBRANCH  14  15
ENDBRANCH  12  14
ENDBRANCH  10  12
ENDBRANCH   9  10
ENDBRANCH   6   9
ENDBRANCH   2   3
TORSDOF 8
ENDMDL
MODEL       91
REMARK 921   NORMALIZED FREE ENERGY PREDICTED BY IDOCK:   -5.18 KCAL/MOL
REMARK 922        TOTAL FREE ENERGY PREDICTED BY IDOCK:   -9.09 KCAL/MOL
REMARK 923 INTER-LIGAND FREE ENERGY PREDICTED BY IDOCK:   -6.92 KCAL/MOL
REMARK 924 INTRA-LIGAND FREE ENERGY PREDICTED BY IDOCK:   -2.17 KCAL/MOL
REMARK 927      BINDING AFFINITY PREDICTED BY RF-SCORE:    0.00 PKD
ROOT
HETATM    1  C   UNL     1      -8.086   8.771  65.042  1.00  0.00    -0.144 C  
HETATM    2  O   UNL     1      -7.948   7.506  65.683  1.00  0.00    -0.103 OA 
ENDROOT
BRANCH   2   3
HETATM    3  C   UNL     1      -8.827   7.284  66.706  1.00  0.00    -0.134 A  
HETATM    4  C   UNL     1      -8.258   7.025  67.952  1.00  0.00    -0.115 A  
HETATM    5  C   UNL     1      -9.068   6.742  69.055  1.00  0.00    -0.137 A  
HETATM    6  C   UNL     1     -10.463   6.747  68.927  1.00  0.00    -0.229 A  
HETATM    7  C   UNL     1     -10.214   7.327  66.582  1.00  0.00    -0.232 A  
HETATM    8  C   UNL     1     -11.027   7.057  67.684  1.00  0.00    -0.259 A  
BRANCH   6   9
HETATM    9  C   UNL     1     -11.360   6.310  70.060  1.00  0.00    -0.486 C  
BRANCH   9  10
HETATM   10  C   UNL     1     -12.092   7.437  70.829  1.00  0.00    -0.200 C  
HETATM   11  C   UNL     1     -13.325   6.884  71.550  1.00  0.00    -0.303 C  
BRANCH  10  12
HETATM   12  N   UNL     1     -11.237   8.100  71.838  1.00  0.00    -0.272 NA 
HETATM   13  H   UNL     1     -10.437   7.515  72.078  1.00  0.00     0.000 HD 
BRANCH  12  14
HETATM   14  C   UNL     1     -10.803   9.442  71.426  1.00  0.00    -0.360 C  
BRANCH  14  15
HETATM   15  C   UNL     1     -11.820  10.173  70.512  1.00  0.00    -0.321 C  
HETATM   16  H   UNL     1     -12.977  11.756  70.649  1.00  0.00     0.000 HD 
HETATM   17  O   UNL     1     -12.354  11.308  71.208  1.00  0.00    -0.336 OA 
BRANCH  15  18
HETATM   18  C   UNL     1     -11.161  10.623  69.214  1.00  0.00    -0.306 A  
HETATM   19  C   UNL     1     -11.902  11.279  68.208  1.00  0.00    -0.299 A  
HETATM   20  C   UNL     1     -11.298  11.723  67.027  1.00  0.00    -0.321 A  
HETATM   21  H   UNL     1      -8.336  11.726  65.605  1.00  0.00     0.000 HD 
HETATM   22  C   UNL     1      -9.924  11.508  66.861  1.00  0.00    -0.205 A  
HETATM   23  C   UNL     1      -9.790  10.422  69.014  1.00  0.00    -0.222 A  
HETATM   24  C   UNL     1      -9.174  10.872  67.845  1.00  0.00    -0.152 A  
HETATM   25  O   UNL     1      -9.268  11.872  65.718  1.00  0.00    -0.201 OA 
BRANCH  20  26
HETATM   26  N   UNL     1     -12.014  12.403  66.025  1.00  0.00    -0.403 N  
HETATM   27  H   UNL     1     -12.235  11.870  65.184  1.00  0.00     0.000 HD 
HETATM   28  O   UNL     1     -13.038  14.210  65.111  1.00  0.00    -0.757 OA 
HETATM   29  C   UNL     1     -12.447  13.695  66.053  1.00  0.00    -0.426 C  
ENDBRANCH  20  26
ENDBRANCH  15  18
ENDBRANCH  14  15
ENDBRANCH  12  14
ENDBRANCH  10  12
ENDBRANCH   9  10
ENDBRANCH   6   9
ENDBRANCH   2   3
TORSDOF 8
ENDMDL
MODEL       92
REMARK 921   NORMALIZED FREE ENERGY PREDICTED BY IDOCK:   -5.18 KCAL/MOL
REMARK 922        TOTAL FREE ENERGY PREDICTED BY IDOCK:   -9.09 KCAL/MOL
REMARK 923 INTER-LIGAND FREE ENERGY PREDICTED BY IDOCK:   -7.65 KCAL/MOL
REMARK 924 INTRA-LIGAND FREE ENERGY PREDICTED BY IDOCK:   -1.45 KCAL/MOL
REMARK 927      BINDING AFFINITY PREDICTED BY RF-SCORE:    0.00 PKD
ROOT
HETATM    1  C   UNL     1     -12.079  14.884  72.248  1.00  0.00    -0.323 C  
HETATM    2  O   UNL     1     -11.148  15.277  71.244  1.00  0.00    -0.344 OA 
ENDROOT
BRANCH   2   3
HETATM    3  C   UNL     1     -11.432  14.816  69.989  1.00  0.00    -0.277 A  
HETATM    4  C   UNL     1     -11.537  15.787  68.994  1.00  0.00    -0.406 A  
HETATM    5  C   UNL     1     -11.868  15.425  67.685  1.00  0.00    -0.001 A  
HETATM    6  C   UNL     1     -12.066  14.079  67.353  1.00  0.00    -0.384 A  
HETATM    7  C   UNL     1     -11.592  13.473  69.656  1.00  0.00    -0.340 A  
HETATM    8  C   UNL     1     -11.910  13.107  68.347  1.00  0.00    -0.386 A  
BRANCH   6   9
HETATM    9  C   UNL     1     -12.560  13.669  65.986  1.00  0.00    -0.441 C  
BRANCH   9  10
HETATM   10  C   UNL     1     -11.788  14.251  64.776  1.00  0.00    -0.429 C  
HETATM   11  C   UNL     1     -10.358  14.624  65.179  1.00  0.00    -0.431 C  
BRANCH  10  12
HETATM   12  N   UNL     1     -11.707  13.313  63.635  1.00  0.00    -0.663 NA 
HETATM   13  H   UNL     1     -10.821  13.418  63.139  1.00  0.00     0.000 HD 
BRANCH  12  14
HETATM   14  C   UNL     1     -11.926  11.915  64.027  1.00  0.00    -0.356 C  
BRANCH  14  15
HETATM   15  C   UNL     1     -10.635  11.055  64.018  1.00  0.00    -0.324 C  
HETATM   16  H   UNL     1      -8.818  11.221  63.288  1.00  0.00     0.000 HD 
HETATM   17  O   UNL     1      -9.609  11.747  63.295  1.00  0.00    -0.349 OA 
BRANCH  15  18
HETATM   18  C   UNL     1     -10.164  10.764  65.437  1.00  0.00    -0.341 A  
HETATM   19  C   UNL     1     -10.767   9.750  66.212  1.00  0.00     0.044 A  
HETATM   20  C   UNL     1     -10.320   9.455  67.505  1.00  0.00    -0.255 A  
HETATM   21  H   UNL     1      -8.049  10.490  69.641  1.00  0.00     0.000 HD 
HETATM   22  C   UNL     1      -9.245  10.189  68.021  1.00  0.00    -0.138 A  
HETATM   23  C   UNL     1      -9.094  11.480  65.986  1.00  0.00    -0.206 A  
HETATM   24  C   UNL     1      -8.631  11.187  67.270  1.00  0.00    -0.140 A  
HETATM   25  O   UNL     1      -8.778   9.993  69.291  1.00  0.00    -0.151 OA 
BRANCH  20  26
HETATM   26  N   UNL     1     -10.890   8.430  68.283  1.00  0.00    -0.447 N  
HETATM   27  H   UNL     1     -11.493   8.725  69.051  1.00  0.00     0.000 HD 
HETATM   28  O   UNL     1     -11.242   6.269  68.877  1.00  0.00    -0.370 OA 
HETATM   29  C   UNL     1     -10.726   7.087  68.123  1.00  0.00    -0.188 C  
ENDBRANCH  20  26
ENDBRANCH  15  18
ENDBRANCH  14  15
ENDBRANCH  12  14
ENDBRANCH  10  12
ENDBRANCH   9  10
ENDBRANCH   6   9
ENDBRANCH   2   3
TORSDOF 8
ENDMDL
MODEL       93
REMARK 921   NORMALIZED FREE ENERGY PREDICTED BY IDOCK:   -5.18 KCAL/MOL
REMARK 922        TOTAL FREE ENERGY PREDICTED BY IDOCK:   -9.09 KCAL/MOL
REMARK 923 INTER-LIGAND FREE ENERGY PREDICTED BY IDOCK:   -7.85 KCAL/MOL
REMARK 924 INTRA-LIGAND FREE ENERGY PREDICTED BY IDOCK:   -1.24 KCAL/MOL
REMARK 927      BINDING AFFINITY PREDICTED BY RF-SCORE:    0.00 PKD
ROOT
HETATM    1  C   UNL     1     -11.690   6.179  71.577  1.00  0.00    -0.201 C  
HETATM    2  O   UNL     1     -11.024   5.623  70.447  1.00  0.00    -0.285 OA 
ENDROOT
BRANCH   2   3
HETATM    3  C   UNL     1     -10.843   6.491  69.406  1.00  0.00    -0.308 A  
HETATM    4  C   UNL     1     -10.619   7.822  69.754  1.00  0.00    -0.241 A  
HETATM    5  C   UNL     1     -10.466   8.796  68.765  1.00  0.00    -0.214 A  
HETATM    6  C   UNL     1     -10.504   8.440  67.410  1.00  0.00    -0.354 A  
HETATM    7  C   UNL     1     -10.845   6.125  68.062  1.00  0.00    -0.398 A  
HETATM    8  C   UNL     1     -10.679   7.094  67.070  1.00  0.00    -0.420 A  
BRANCH   6   9
HETATM    9  C   UNL     1     -10.482   9.484  66.320  1.00  0.00    -0.137 C  
BRANCH   9  10
HETATM   10  C   UNL     1     -10.021  10.902  66.738  1.00  0.00    -0.205 C  
HETATM   11  C   UNL     1      -8.495  11.015  66.663  1.00  0.00    -0.153 C  
BRANCH  10  12
HETATM   12  N   UNL     1     -10.596  11.971  65.893  1.00  0.00    -0.256 NA 
HETATM   13  H   UNL     1     -10.987  11.585  65.033  1.00  0.00     0.000 HD 
BRANCH  12  14
HETATM   14  C   UNL     1     -11.590  12.787  66.601  1.00  0.00    -0.370 C  
BRANCH  14  15
HETATM   15  C   UNL     1     -10.982  13.690  67.706  1.00  0.00    -0.259 C  
HETATM   16  H   UNL     1     -10.679  15.614  67.967  1.00  0.00     0.000 HD 
HETATM   17  O   UNL     1     -11.052  15.061  67.291  1.00  0.00    -0.318 OA 
BRANCH  15  18
HETATM   18  C   UNL     1     -11.721  13.509  69.026  1.00  0.00    -0.370 A  
HETATM   19  C   UNL     1     -11.852  12.235  69.619  1.00  0.00    -0.393 A  
HETATM   20  C   UNL     1     -12.503  12.064  70.846  1.00  0.00    -0.288 A  
HETATM   21  H   UNL     1     -14.060  13.874  73.102  1.00  0.00     0.000 HD 
HETATM   22  C   UNL     1     -13.021  13.195  71.488  1.00  0.00    -0.321 A  
HETATM   23  C   UNL     1     -12.254  14.618  69.694  1.00  0.00    -0.325 A  
HETATM   24  C   UNL     1     -12.894  14.461  70.924  1.00  0.00    -0.419 A  
HETATM   25  O   UNL     1     -13.708  13.107  72.666  1.00  0.00    -0.651 OA 
BRANCH  20  26
HETATM   26  N   UNL     1     -12.621  10.806  71.466  1.00  0.00    -0.399 N  
HETATM   27  H   UNL     1     -11.907  10.572  72.156  1.00  0.00     0.000 HD 
HETATM   28  O   UNL     1     -13.581   8.780  71.817  1.00  0.00    -0.370 OA 
HETATM   29  C   UNL     1     -13.582   9.866  71.247  1.00  0.00    -0.195 C  
ENDBRANCH  20  26
ENDBRANCH  15  18
ENDBRANCH  14  15
ENDBRANCH  12  14
ENDBRANCH  10  12
ENDBRANCH   9  10
ENDBRANCH   6   9
ENDBRANCH   2   3
TORSDOF 8
ENDMDL
MODEL       94
REMARK 921   NORMALIZED FREE ENERGY PREDICTED BY IDOCK:   -5.17 KCAL/MOL
REMARK 922        TOTAL FREE ENERGY PREDICTED BY IDOCK:   -9.08 KCAL/MOL
REMARK 923 INTER-LIGAND FREE ENERGY PREDICTED BY IDOCK:   -8.27 KCAL/MOL
REMARK 924 INTRA-LIGAND FREE ENERGY PREDICTED BY IDOCK:   -0.81 KCAL/MOL
REMARK 927      BINDING AFFINITY PREDICTED BY RF-SCORE:    0.00 PKD
ROOT
HETATM    1  C   UNL     1      -5.917   9.609  63.655  1.00  0.00    -0.103 C  
HETATM    2  O   UNL     1      -7.156   9.184  63.094  1.00  0.00    -0.090 OA 
ENDROOT
BRANCH   2   3
HETATM    3  C   UNL     1      -8.264   9.755  63.657  1.00  0.00    -0.158 A  
HETATM    4  C   UNL     1      -8.908  10.722  62.886  1.00  0.00    -0.261 A  
HETATM    5  C   UNL     1     -10.023  11.397  63.388  1.00  0.00    -0.435 A  
HETATM    6  C   UNL     1     -10.527  11.086  64.657  1.00  0.00    -0.398 A  
HETATM    7  C   UNL     1      -8.781   9.416  64.905  1.00  0.00    -0.220 A  
HETATM    8  C   UNL     1      -9.904  10.079  65.404  1.00  0.00    -0.384 A  
BRANCH   6   9
HETATM    9  C   UNL     1     -11.641  11.891  65.283  1.00  0.00    -0.278 C  
BRANCH   9  10
HETATM   10  C   UNL     1     -11.433  12.319  66.756  1.00  0.00    -0.361 C  
HETATM   11  C   UNL     1     -11.825  13.788  66.950  1.00  0.00    -0.447 C  
BRANCH  10  12
HETATM   12  N   UNL     1     -12.221  11.511  67.711  1.00  0.00    -0.366 NA 
HETATM   13  H   UNL     1     -12.465  10.606  67.309  1.00  0.00     0.000 HD 
BRANCH  12  14
HETATM   14  C   UNL     1     -11.552  11.346  69.008  1.00  0.00    -0.317 C  
BRANCH  14  15
HETATM   15  C   UNL     1     -12.530  11.301  70.212  1.00  0.00    -0.250 C  
HETATM   16  H   UNL     1     -12.725  10.234  71.850  1.00  0.00     0.000 HD 
HETATM   17  O   UNL     1     -12.127  10.261  71.113  1.00  0.00    -0.341 OA 
BRANCH  15  18
HETATM   18  C   UNL     1     -12.555  12.639  70.941  1.00  0.00    -0.338 A  
HETATM   19  C   UNL     1     -11.772  13.727  70.499  1.00  0.00    -0.204 A  
HETATM   20  C   UNL     1     -11.813  14.968  71.144  1.00  0.00    -0.333 A  
HETATM   21  H   UNL     1     -13.305  16.383  73.706  1.00  0.00     0.000 HD 
HETATM   22  C   UNL     1     -12.663  15.116  72.247  1.00  0.00    -0.340 A  
HETATM   23  C   UNL     1     -13.392  12.822  72.050  1.00  0.00    -0.565 A  
HETATM   24  C   UNL     1     -13.451  14.059  72.693  1.00  0.00    -0.650 A  
HETATM   25  O   UNL     1     -12.728  16.282  72.958  1.00  0.00    -0.442 OA 
BRANCH  20  26
HETATM   26  N   UNL     1     -11.060  16.071  70.702  1.00  0.00    -0.351 N  
HETATM   27  H   UNL     1     -10.582  16.612  71.422  1.00  0.00     0.000 HD 
HETATM   28  O   UNL     1     -10.247  17.496  69.134  1.00  0.00    -0.333 OA 
HETATM   29  C   UNL     1     -10.900  16.498  69.418  1.00  0.00    -0.311 C  
ENDBRANCH  20  26
ENDBRANCH  15  18
ENDBRANCH  14  15
ENDBRANCH  12  14
ENDBRANCH  10  12
ENDBRANCH   9  10
ENDBRANCH   6   9
ENDBRANCH   2   3
TORSDOF 8
ENDMDL
MODEL       95
REMARK 921   NORMALIZED FREE ENERGY PREDICTED BY IDOCK:   -5.17 KCAL/MOL
REMARK 922        TOTAL FREE ENERGY PREDICTED BY IDOCK:   -9.08 KCAL/MOL
REMARK 923 INTER-LIGAND FREE ENERGY PREDICTED BY IDOCK:   -8.19 KCAL/MOL
REMARK 924 INTRA-LIGAND FREE ENERGY PREDICTED BY IDOCK:   -0.89 KCAL/MOL
REMARK 927      BINDING AFFINITY PREDICTED BY RF-SCORE:    0.00 PKD
ROOT
HETATM    1  C   UNL     1     -11.221  15.839  64.489  1.00  0.00    -0.322 C  
HETATM    2  O   UNL     1     -11.897  14.595  64.648  1.00  0.00    -0.419 OA 
ENDROOT
BRANCH   2   3
HETATM    3  C   UNL     1     -11.846  14.074  65.911  1.00  0.00    -0.383 A  
HETATM    4  C   UNL     1     -11.748  12.686  65.993  1.00  0.00    -0.470 A  
HETATM    5  C   UNL     1     -11.734  12.050  67.237  1.00  0.00    -0.339 A  
HETATM    6  C   UNL     1     -11.785  12.803  68.416  1.00  0.00    -0.380 A  
HETATM    7  C   UNL     1     -11.860  14.830  67.081  1.00  0.00    -0.307 A  
HETATM    8  C   UNL     1     -11.833  14.199  68.326  1.00  0.00    -0.391 A  
BRANCH   6   9
HETATM    9  C   UNL     1     -11.912  12.144  69.769  1.00  0.00    -0.372 C  
BRANCH   9  10
HETATM   10  C   UNL     1     -11.965  10.596  69.773  1.00  0.00    -0.291 C  
HETATM   11  C   UNL     1     -10.616  10.013  70.209  1.00  0.00    -0.354 C  
BRANCH  10  12
HETATM   12  N   UNL     1     -13.004  10.054  70.675  1.00  0.00    -0.570 NA 
HETATM   13  H   UNL     1     -13.618   9.410  70.177  1.00  0.00     0.000 HD 
BRANCH  12  14
HETATM   14  C   UNL     1     -12.445   9.424  71.878  1.00  0.00    -0.390 C  
BRANCH  14  15
HETATM   15  C   UNL     1     -13.015   8.010  72.163  1.00  0.00    -0.222 C  
HETATM   16  H   UNL     1     -14.617   6.991  71.658  1.00  0.00     0.000 HD 
HETATM   17  O   UNL     1     -14.268   7.857  71.483  1.00  0.00    -0.412 OA 
BRANCH  15  18
HETATM   18  C   UNL     1     -12.042   6.930  71.707  1.00  0.00    -0.385 A  
HETATM   19  C   UNL     1     -11.875   6.628  70.338  1.00  0.00    -0.407 A  
HETATM   20  C   UNL     1     -10.961   5.659  69.909  1.00  0.00    -0.239 A  
HETATM   21  H   UNL     1      -8.798   3.547  71.195  1.00  0.00     0.000 HD 
HETATM   22  C   UNL     1     -10.198   4.991  70.874  1.00  0.00    -0.217 A  
HETATM   23  C   UNL     1     -11.264   6.239  72.645  1.00  0.00    -0.302 A  
HETATM   24  C   UNL     1     -10.340   5.280  72.228  1.00  0.00    -0.265 A  
HETATM   25  O   UNL     1      -9.316   4.001  70.541  1.00  0.00    -0.119 OA 
BRANCH  20  26
HETATM   26  N   UNL     1     -10.761   5.364  68.548  1.00  0.00    -0.091 N  
HETATM   27  H   UNL     1     -10.484   4.408  68.327  1.00  0.00     0.000 HD 
HETATM   28  O   UNL     1     -10.669   5.868  66.338  1.00  0.00    -0.211 OA 
HETATM   29  C   UNL     1     -10.898   6.213  67.492  1.00  0.00    -0.332 C  
ENDBRANCH  20  26
ENDBRANCH  15  18
ENDBRANCH  14  15
ENDBRANCH  12  14
ENDBRANCH  10  12
ENDBRANCH   9  10
ENDBRANCH   6   9
ENDBRANCH   2   3
TORSDOF 8
ENDMDL
MODEL       96
REMARK 921   NORMALIZED FREE ENERGY PREDICTED BY IDOCK:   -5.17 KCAL/MOL
REMARK 922        TOTAL FREE ENERGY PREDICTED BY IDOCK:   -9.08 KCAL/MOL
REMARK 923 INTER-LIGAND FREE ENERGY PREDICTED BY IDOCK:   -8.35 KCAL/MOL
REMARK 924 INTRA-LIGAND FREE ENERGY PREDICTED BY IDOCK:   -0.73 KCAL/MOL
REMARK 927      BINDING AFFINITY PREDICTED BY RF-SCORE:    0.00 PKD
ROOT
HETATM    1  C   UNL     1     -10.671   2.639  73.641  1.00  0.00    -0.181 C  
HETATM    2  O   UNL     1     -10.095   3.940  73.564  1.00  0.00    -0.121 OA 
ENDROOT
BRANCH   2   3
HETATM    3  C   UNL     1     -10.416   4.641  72.435  1.00  0.00    -0.185 A  
HETATM    4  C   UNL     1      -9.753   4.257  71.271  1.00  0.00    -0.256 A  
HETATM    5  C   UNL     1      -9.976   4.939  70.072  1.00  0.00    -0.323 A  
HETATM    6  C   UNL     1     -10.894   5.996  70.020  1.00  0.00    -0.429 A  
HETATM    7  C   UNL     1     -11.356   5.668  72.382  1.00  0.00    -0.327 A  
HETATM    8  C   UNL     1     -11.592   6.343  71.183  1.00  0.00    -0.378 A  
BRANCH   6   9
HETATM    9  C   UNL     1     -11.054   6.841  68.779  1.00  0.00    -0.234 C  
BRANCH   9  10
HETATM   10  C   UNL     1      -9.990   7.944  68.559  1.00  0.00    -0.187 C  
HETATM   11  C   UNL     1     -10.301   8.745  67.290  1.00  0.00    -0.360 C  
BRANCH  10  12
HETATM   12  N   UNL     1      -9.902   8.897  69.686  1.00  0.00    -0.176 NA 
HETATM   13  H   UNL     1      -8.938   9.199  69.833  1.00  0.00     0.000 HD 
BRANCH  12  14
HETATM   14  C   UNL     1     -10.796  10.052  69.530  1.00  0.00    -0.253 C  
BRANCH  14  15
HETATM   15  C   UNL     1     -11.909  10.128  70.608  1.00  0.00    -0.342 C  
HETATM   16  H   UNL     1     -12.116   9.580  72.483  1.00  0.00     0.000 HD 
HETATM   17  O   UNL     1     -11.435   9.533  71.823  1.00  0.00    -0.384 OA 
BRANCH  15  18
HETATM   18  C   UNL     1     -12.322  11.572  70.862  1.00  0.00    -0.460 A  
HETATM   19  C   UNL     1     -12.005  12.595  69.942  1.00  0.00    -0.365 A  
HETATM   20  C   UNL     1     -12.407  13.918  70.154  1.00  0.00    -0.334 A  
HETATM   21  H   UNL     1     -14.041  15.688  72.387  1.00  0.00     0.000 HD 
HETATM   22  C   UNL     1     -13.147  14.213  71.305  1.00  0.00    -0.350 A  
HETATM   23  C   UNL     1     -13.060  11.904  72.005  1.00  0.00    -0.441 A  
HETATM   24  C   UNL     1     -13.478  13.218  72.220  1.00  0.00    -0.679 A  
HETATM   25  O   UNL     1     -13.539  15.488  71.606  1.00  0.00    -0.474 OA 
BRANCH  20  26
HETATM   26  N   UNL     1     -12.124  14.946  69.235  1.00  0.00    -0.497 N  
HETATM   27  H   UNL     1     -12.812  15.098  68.498  1.00  0.00     0.000 HD 
HETATM   28  O   UNL     1     -10.859  16.611  68.355  1.00  0.00    -0.336 OA 
HETATM   29  C   UNL     1     -11.032  15.761  69.221  1.00  0.00    -0.281 C  
ENDBRANCH  20  26
ENDBRANCH  15  18
ENDBRANCH  14  15
ENDBRANCH  12  14
ENDBRANCH  10  12
ENDBRANCH   9  10
ENDBRANCH   6   9
ENDBRANCH   2   3
TORSDOF 8
ENDMDL
MODEL       97
REMARK 921   NORMALIZED FREE ENERGY PREDICTED BY IDOCK:   -5.16 KCAL/MOL
REMARK 922        TOTAL FREE ENERGY PREDICTED BY IDOCK:   -9.07 KCAL/MOL
REMARK 923 INTER-LIGAND FREE ENERGY PREDICTED BY IDOCK:   -7.84 KCAL/MOL
REMARK 924 INTRA-LIGAND FREE ENERGY PREDICTED BY IDOCK:   -1.23 KCAL/MOL
REMARK 927      BINDING AFFINITY PREDICTED BY RF-SCORE:    0.00 PKD
ROOT
HETATM    1  C   UNL     1     -10.263  17.516  69.080  1.00  0.00    -0.314 C  
HETATM    2  O   UNL     1     -11.533  17.031  68.655  1.00  0.00    -0.024 OA 
ENDROOT
BRANCH   2   3
HETATM    3  C   UNL     1     -11.741  15.699  68.880  1.00  0.00    -0.384 A  
HETATM    4  C   UNL     1     -11.624  15.280  70.204  1.00  0.00    -0.328 A  
HETATM    5  C   UNL     1     -11.774  13.930  70.534  1.00  0.00    -0.231 A  
HETATM    6  C   UNL     1     -12.076  12.989  69.543  1.00  0.00    -0.289 A  
HETATM    7  C   UNL     1     -12.078  14.773  67.895  1.00  0.00    -0.161 A  
HETATM    8  C   UNL     1     -12.242  13.426  68.223  1.00  0.00    -0.120 A  
BRANCH   6   9
HETATM    9  C   UNL     1     -12.107  11.509  69.843  1.00  0.00    -0.389 C  
BRANCH   9  10
HETATM   10  C   UNL     1     -10.752  10.764  69.752  1.00  0.00    -0.186 C  
HETATM   11  C   UNL     1     -10.825   9.424  70.493  1.00  0.00    -0.336 C  
BRANCH  10  12
HETATM   12  N   UNL     1     -10.333  10.490  68.361  1.00  0.00    -0.168 NA 
HETATM   13  H   UNL     1     -11.109  10.625  67.713  1.00  0.00     0.000 HD 
BRANCH  12  14
HETATM   14  C   UNL     1      -9.163  11.278  67.951  1.00  0.00    -0.157 C  
BRANCH  14  15
HETATM   15  C   UNL     1      -8.785  11.099  66.457  1.00  0.00    -0.174 C  
HETATM   16  H   UNL     1      -8.480   9.592  65.235  1.00  0.00     0.000 HD 
HETATM   17  O   UNL     1      -8.712   9.701  66.149  1.00  0.00    -0.132 OA 
BRANCH  15  18
HETATM   18  C   UNL     1      -9.805  11.778  65.552  1.00  0.00    -0.262 A  
HETATM   19  C   UNL     1      -9.905  13.185  65.491  1.00  0.00    -0.153 A  
HETATM   20  C   UNL     1     -10.819  13.816  64.640  1.00  0.00    -0.406 A  
HETATM   21  H   UNL     1     -13.140  13.015  62.458  1.00  0.00     0.000 HD 
HETATM   22  C   UNL     1     -11.637  13.018  63.832  1.00  0.00    -0.449 A  
HETATM   23  C   UNL     1     -10.642  11.011  64.732  1.00  0.00    -0.350 A  
HETATM   24  C   UNL     1     -11.548  11.630  63.870  1.00  0.00    -0.403 A  
HETATM   25  O   UNL     1     -12.585  13.556  63.006  1.00  0.00    -0.716 OA 
BRANCH  20  26
HETATM   26  N   UNL     1     -10.915  15.217  64.545  1.00  0.00    -0.667 N  
HETATM   27  H   UNL     1     -11.380  15.585  63.716  1.00  0.00     0.000 HD 
HETATM   28  O   UNL     1     -10.557  17.344  65.251  1.00  0.00    -0.667 OA 
HETATM   29  C   UNL     1     -10.454  16.137  65.439  1.00  0.00    -0.373 C  
ENDBRANCH  20  26
ENDBRANCH  15  18
ENDBRANCH  14  15
ENDBRANCH  12  14
ENDBRANCH  10  12
ENDBRANCH   9  10
ENDBRANCH   6   9
ENDBRANCH   2   3
TORSDOF 8
ENDMDL
MODEL       98
REMARK 921   NORMALIZED FREE ENERGY PREDICTED BY IDOCK:   -5.15 KCAL/MOL
REMARK 922        TOTAL FREE ENERGY PREDICTED BY IDOCK:   -9.05 KCAL/MOL
REMARK 923 INTER-LIGAND FREE ENERGY PREDICTED BY IDOCK:   -8.22 KCAL/MOL
REMARK 924 INTRA-LIGAND FREE ENERGY PREDICTED BY IDOCK:   -0.83 KCAL/MOL
REMARK 927      BINDING AFFINITY PREDICTED BY RF-SCORE:    0.00 PKD
ROOT
HETATM    1  C   UNL     1     -10.190  19.604  68.454  1.00  0.00    -0.441 C  
HETATM    2  O   UNL     1      -9.088  19.104  67.702  1.00  0.00    -0.290 OA 
ENDROOT
BRANCH   2   3
HETATM    3  C   UNL     1      -9.324  17.918  67.063  1.00  0.00    -0.267 A  
HETATM    4  C   UNL     1     -10.291  17.950  66.059  1.00  0.00    -0.318 A  
HETATM    5  C   UNL     1     -10.638  16.782  65.375  1.00  0.00    -0.218 A  
HETATM    6  C   UNL     1      -9.995  15.573  65.669  1.00  0.00    -0.394 A  
HETATM    7  C   UNL     1      -8.656  16.727  67.334  1.00  0.00    -0.206 A  
HETATM    8  C   UNL     1      -8.991  15.560  66.644  1.00  0.00    -0.320 A  
BRANCH   6   9
HETATM    9  C   UNL     1     -10.443  14.271  65.049  1.00  0.00    -0.458 C  
BRANCH   9  10
HETATM   10  C   UNL     1     -11.970  14.017  65.017  1.00  0.00    -0.401 C  
HETATM   11  C   UNL     1     -12.283  12.715  64.271  1.00  0.00    -0.524 C  
BRANCH  10  12
HETATM   12  N   UNL     1     -12.570  13.923  66.365  1.00  0.00    -0.458 NA 
HETATM   13  H   UNL     1     -13.588  13.975  66.315  1.00  0.00     0.000 HD 
BRANCH  12  14
HETATM   14  C   UNL     1     -12.141  12.726  67.099  1.00  0.00    -0.168 C  
BRANCH  14  15
HETATM   15  C   UNL     1     -11.500  13.036  68.477  1.00  0.00    -0.304 C  
HETATM   16  H   UNL     1     -12.044  13.955  70.127  1.00  0.00     0.000 HD 
HETATM   17  O   UNL     1     -12.436  13.764  69.283  1.00  0.00    -0.241 OA 
BRANCH  15  18
HETATM   18  C   UNL     1     -11.090  11.753  69.188  1.00  0.00    -0.294 A  
HETATM   19  C   UNL     1     -11.945  11.131  70.123  1.00  0.00    -0.449 A  
HETATM   20  C   UNL     1     -11.589   9.935  70.757  1.00  0.00    -0.349 A  
HETATM   21  H   UNL     1      -9.079   7.818  70.829  1.00  0.00     0.000 HD 
HETATM   22  C   UNL     1     -10.356   9.354  70.438  1.00  0.00    -0.262 A  
HETATM   23  C   UNL     1      -9.862  11.146  68.895  1.00  0.00    -0.176 A  
HETATM   24  C   UNL     1      -9.502   9.947  69.512  1.00  0.00    -0.239 A  
HETATM   25  O   UNL     1      -9.916   8.212  71.046  1.00  0.00    -0.183 OA 
BRANCH  20  26
HETATM   26  N   UNL     1     -12.440   9.286  71.671  1.00  0.00    -0.345 N  
HETATM   27  H   UNL     1     -12.047   8.486  72.167  1.00  0.00     0.000 HD 
HETATM   28  O   UNL     1     -14.404   8.958  72.759  1.00  0.00    -0.600 OA 
HETATM   29  C   UNL     1     -13.730   9.608  71.968  1.00  0.00    -0.316 C  
ENDBRANCH  20  26
ENDBRANCH  15  18
ENDBRANCH  14  15
ENDBRANCH  12  14
ENDBRANCH  10  12
ENDBRANCH   9  10
ENDBRANCH   6   9
ENDBRANCH   2   3
TORSDOF 8
ENDMDL
MODEL       99
REMARK 921   NORMALIZED FREE ENERGY PREDICTED BY IDOCK:   -5.15 KCAL/MOL
REMARK 922        TOTAL FREE ENERGY PREDICTED BY IDOCK:   -9.05 KCAL/MOL
REMARK 923 INTER-LIGAND FREE ENERGY PREDICTED BY IDOCK:   -7.90 KCAL/MOL
REMARK 924 INTRA-LIGAND FREE ENERGY PREDICTED BY IDOCK:   -1.16 KCAL/MOL
REMARK 927      BINDING AFFINITY PREDICTED BY RF-SCORE:    0.00 PKD
ROOT
HETATM    1  C   UNL     1     -10.394  17.761  65.582  1.00  0.00    -0.091 C  
HETATM    2  O   UNL     1     -11.088  17.100  64.528  1.00  0.00    -1.105 OA 
ENDROOT
BRANCH   2   3
HETATM    3  C   UNL     1     -11.187  15.744  64.671  1.00  0.00    -0.363 A  
HETATM    4  C   UNL     1     -10.191  15.139  65.436  1.00  0.00    -0.402 A  
HETATM    5  C   UNL     1     -10.176  13.752  65.607  1.00  0.00    -0.326 A  
HETATM    6  C   UNL     1     -11.179  12.958  65.037  1.00  0.00    -0.324 A  
HETATM    7  C   UNL     1     -12.207  14.964  64.132  1.00  0.00    -0.280 A  
HETATM    8  C   UNL     1     -12.202  13.579  64.311  1.00  0.00    -0.450 A  
BRANCH   6   9
HETATM    9  C   UNL     1     -11.113  11.450  65.084  1.00  0.00    -0.203 C  
BRANCH   9  10
HETATM   10  C   UNL     1      -9.934  10.792  64.327  1.00  0.00    -0.341 C  
HETATM   11  C   UNL     1      -9.625  11.562  63.039  1.00  0.00    -0.371 C  
BRANCH  10  12
HETATM   12  N   UNL     1      -8.692  10.732  65.128  1.00  0.00    -0.253 NA 
HETATM   13  H   UNL     1      -8.323  11.668  65.298  1.00  0.00     0.000 HD 
BRANCH  12  14
HETATM   14  C   UNL     1      -8.860   9.998  66.389  1.00  0.00    -0.143 C  
BRANCH  14  15
HETATM   15  C   UNL     1      -8.476  10.822  67.646  1.00  0.00    -0.119 C  
HETATM   16  H   UNL     1      -7.812  12.634  68.014  1.00  0.00     0.000 HD 
HETATM   17  O   UNL     1      -8.047  12.129  67.244  1.00  0.00    -0.161 OA 
BRANCH  15  18
HETATM   18  C   UNL     1      -9.656  10.934  68.604  1.00  0.00    -0.192 A  
HETATM   19  C   UNL     1     -10.399  12.129  68.710  1.00  0.00    -0.168 A  
HETATM   20  C   UNL     1     -11.502  12.230  69.565  1.00  0.00    -0.249 A  
HETATM   21  H   UNL     1     -13.154  10.376  71.715  1.00  0.00     0.000 HD 
HETATM   22  C   UNL     1     -11.868  11.107  70.316  1.00  0.00    -0.366 A  
HETATM   23  C   UNL     1     -10.048   9.830  69.372  1.00  0.00    -0.221 A  
HETATM   24  C   UNL     1     -11.155   9.916  70.218  1.00  0.00    -0.368 A  
HETATM   25  O   UNL     1     -12.905  11.138  71.205  1.00  0.00    -0.394 OA 
BRANCH  20  26
HETATM   26  N   UNL     1     -12.271  13.405  69.665  1.00  0.00    -0.265 N  
HETATM   27  H   UNL     1     -13.126  13.436  69.111  1.00  0.00     0.000 HD 
HETATM   28  O   UNL     1     -12.717  15.500  70.415  1.00  0.00    -0.425 OA 
HETATM   29  C   UNL     1     -11.998  14.506  70.420  1.00  0.00    -0.318 C  
ENDBRANCH  20  26
ENDBRANCH  15  18
ENDBRANCH  14  15
ENDBRANCH  12  14
ENDBRANCH  10  12
ENDBRANCH   9  10
ENDBRANCH   6   9
ENDBRANCH   2   3
TORSDOF 8
ENDMDL
MODEL      100
REMARK 921   NORMALIZED FREE ENERGY PREDICTED BY IDOCK:   -5.15 KCAL/MOL
REMARK 922        TOTAL FREE ENERGY PREDICTED BY IDOCK:   -9.05 KCAL/MOL
REMARK 923 INTER-LIGAND FREE ENERGY PREDICTED BY IDOCK:   -8.82 KCAL/MOL
REMARK 924 INTRA-LIGAND FREE ENERGY PREDICTED BY IDOCK:   -0.22 KCAL/MOL
REMARK 927      BINDING AFFINITY PREDICTED BY RF-SCORE:    0.00 PKD
ROOT
HETATM    1  C   UNL     1     -10.040   5.630  74.279  1.00  0.00    -0.264 C  
HETATM    2  O   UNL     1     -10.775   6.786  73.887  1.00  0.00    -0.310 OA 
ENDROOT
BRANCH   2   3
HETATM    3  C   UNL     1     -10.794   7.022  72.541  1.00  0.00    -0.252 A  
HETATM    4  C   UNL     1     -10.926   5.898  71.727  1.00  0.00    -0.327 A  
HETATM    5  C   UNL     1     -10.912   6.027  70.336  1.00  0.00    -0.399 A  
HETATM    6  C   UNL     1     -10.798   7.291  69.744  1.00  0.00    -0.251 A  
HETATM    7  C   UNL     1     -10.716   8.285  71.958  1.00  0.00    -0.366 A  
HETATM    8  C   UNL     1     -10.715   8.419  70.568  1.00  0.00    -0.247 A  
BRANCH   6   9
HETATM    9  C   UNL     1     -10.640   7.451  68.251  1.00  0.00    -0.204 C  
BRANCH   9  10
HETATM   10  C   UNL     1     -10.151   8.835  67.758  1.00  0.00    -0.207 C  
HETATM   11  C   UNL     1      -9.774   8.775  66.274  1.00  0.00    -0.342 C  
BRANCH  10  12
HETATM   12  N   UNL     1     -11.164   9.900  67.924  1.00  0.00    -0.509 NA 
HETATM   13  H   UNL     1     -11.447   9.984  68.901  1.00  0.00     0.000 HD 
BRANCH  12  14
HETATM   14  C   UNL     1     -10.723  11.196  67.392  1.00  0.00    -0.250 C  
BRANCH  14  15
HETATM   15  C   UNL     1     -11.622  12.384  67.823  1.00  0.00    -0.352 C  
HETATM   16  H   UNL     1     -11.699  13.638  69.334  1.00  0.00     0.000 HD 
HETATM   17  O   UNL     1     -11.149  12.910  69.070  1.00  0.00    -0.251 OA 
BRANCH  15  18
HETATM   18  C   UNL     1     -11.620  13.479  66.763  1.00  0.00    -0.397 A  
HETATM   19  C   UNL     1     -10.826  14.637  66.911  1.00  0.00    -0.305 A  
HETATM   20  C   UNL     1     -10.795  15.632  65.928  1.00  0.00    -0.293 A  
HETATM   21  H   UNL     1     -12.154  16.280  63.009  1.00  0.00     0.000 HD 
HETATM   22  C   UNL     1     -11.570  15.455  64.776  1.00  0.00    -0.286 A  
HETATM   23  C   UNL     1     -12.385  13.336  65.599  1.00  0.00    -0.521 A  
HETATM   24  C   UNL     1     -12.352  14.316  64.606  1.00  0.00    -0.433 A  
HETATM   25  O   UNL     1     -11.629  16.400  63.791  1.00  0.00    -1.055 OA 
BRANCH  20  26
HETATM   26  N   UNL     1      -9.989  16.780  66.045  1.00  0.00    -0.324 N  
HETATM   27  H   UNL     1      -9.044  16.711  65.670  1.00  0.00     0.000 HD 
HETATM   28  O   UNL     1      -9.545  18.910  66.690  1.00  0.00    -0.310 OA 
HETATM   29  C   UNL     1     -10.333  17.975  66.605  1.00  0.00    -0.371 C  
ENDBRANCH  20  26
ENDBRANCH  15  18
ENDBRANCH  14  15
ENDBRANCH  12  14
ENDBRANCH  10  12
ENDBRANCH   9  10
ENDBRANCH   6   9
ENDBRANCH   2   3
TORSDOF 8
ENDMDL
MODEL      101
REMARK 921   NORMALIZED FREE ENERGY PREDICTED BY IDOCK:   -5.14 KCAL/MOL
REMARK 922        TOTAL FREE ENERGY PREDICTED BY IDOCK:   -9.03 KCAL/MOL
REMARK 923 INTER-LIGAND FREE ENERGY PREDICTED BY IDOCK:   -8.40 KCAL/MOL
REMARK 924 INTRA-LIGAND FREE ENERGY PREDICTED BY IDOCK:   -0.64 KCAL/MOL
REMARK 927      BINDING AFFINITY PREDICTED BY RF-SCORE:    0.00 PKD
ROOT
HETATM    1  C   UNL     1      -8.135   4.701  66.778  1.00  0.00    -0.103 C  
HETATM    2  O   UNL     1      -9.548   4.712  66.960  1.00  0.00    -0.154 OA 
ENDROOT
BRANCH   2   3
HETATM    3  C   UNL     1      -9.959   5.046  68.221  1.00  0.00    -0.129 A  
HETATM    4  C   UNL     1      -9.287   4.414  69.267  1.00  0.00    -0.223 A  
HETATM    5  C   UNL     1      -9.660   4.652  70.592  1.00  0.00    -0.261 A  
HETATM    6  C   UNL     1     -10.692   5.552  70.886  1.00  0.00    -0.283 A  
HETATM    7  C   UNL     1     -10.961   5.969  68.508  1.00  0.00    -0.350 A  
HETATM    8  C   UNL     1     -11.328   6.219  69.832  1.00  0.00    -0.504 A  
BRANCH   6   9
HETATM    9  C   UNL     1     -11.211   5.725  72.293  1.00  0.00    -0.333 C  
BRANCH   9  10
HETATM   10  C   UNL     1     -10.844   7.052  73.001  1.00  0.00    -0.309 C  
HETATM   11  C   UNL     1      -9.542   7.624  72.428  1.00  0.00    -0.220 C  
BRANCH  10  12
HETATM   12  N   UNL     1     -11.891   8.088  72.868  1.00  0.00    -0.587 NA 
HETATM   13  H   UNL     1     -12.086   8.526  73.769  1.00  0.00     0.000 HD 
BRANCH  12  14
HETATM   14  C   UNL     1     -11.570   9.098  71.852  1.00  0.00    -0.360 C  
BRANCH  14  15
HETATM   15  C   UNL     1     -12.820   9.766  71.221  1.00  0.00    -0.377 C  
HETATM   16  H   UNL     1     -14.644  10.211  71.802  1.00  0.00     0.000 HD 
HETATM   17  O   UNL     1     -13.878   9.802  72.188  1.00  0.00    -0.335 OA 
BRANCH  15  18
HETATM   18  C   UNL     1     -12.501  11.179  70.748  1.00  0.00    -0.479 A  
HETATM   19  C   UNL     1     -12.710  12.295  71.587  1.00  0.00    -0.309 A  
HETATM   20  C   UNL     1     -12.391  13.592  71.172  1.00  0.00    -0.318 A  
HETATM   21  H   UNL     1     -11.178  15.123  68.531  1.00  0.00     0.000 HD 
HETATM   22  C   UNL     1     -11.845  13.767  69.894  1.00  0.00    -0.327 A  
HETATM   23  C   UNL     1     -11.957  11.391  69.475  1.00  0.00    -0.409 A  
HETATM   24  C   UNL     1     -11.622  12.679  69.055  1.00  0.00    -0.367 A  
HETATM   25  O   UNL     1     -11.548  15.005  69.397  1.00  0.00    -0.279 OA 
BRANCH  20  26
HETATM   26  N   UNL     1     -12.568  14.714  72.004  1.00  0.00    -0.326 N  
HETATM   27  H   UNL     1     -11.722  15.217  72.271  1.00  0.00     0.000 HD 
HETATM   28  O   UNL     1     -13.791  16.170  73.241  1.00  0.00    -0.559 OA 
HETATM   29  C   UNL     1     -13.743  15.201  72.492  1.00  0.00    -0.493 C  
ENDBRANCH  20  26
ENDBRANCH  15  18
ENDBRANCH  14  15
ENDBRANCH  12  14
ENDBRANCH  10  12
ENDBRANCH   9  10
ENDBRANCH   6   9
ENDBRANCH   2   3
TORSDOF 8
ENDMDL
MODEL      102
REMARK 921   NORMALIZED FREE ENERGY PREDICTED BY IDOCK:   -5.13 KCAL/MOL
REMARK 922        TOTAL FREE ENERGY PREDICTED BY IDOCK:   -9.02 KCAL/MOL
REMARK 923 INTER-LIGAND FREE ENERGY PREDICTED BY IDOCK:   -7.43 KCAL/MOL
REMARK 924 INTRA-LIGAND FREE ENERGY PREDICTED BY IDOCK:   -1.59 KCAL/MOL
REMARK 927      BINDING AFFINITY PREDICTED BY RF-SCORE:    0.00 PKD
ROOT
HETATM    1  C   UNL     1     -10.335   8.401  70.191  1.00  0.00    -0.211 C  
HETATM    2  O   UNL     1      -9.795   8.424  68.873  1.00  0.00    -0.171 OA 
ENDROOT
BRANCH   2   3
HETATM    3  C   UNL     1     -10.282   9.420  68.073  1.00  0.00    -0.204 A  
HETATM    4  C   UNL     1     -11.154  10.320  68.684  1.00  0.00    -0.290 A  
HETATM    5  C   UNL     1     -11.742  11.348  67.943  1.00  0.00    -0.300 A  
HETATM    6  C   UNL     1     -11.437  11.505  66.585  1.00  0.00    -0.205 A  
HETATM    7  C   UNL     1      -9.947   9.593  66.732  1.00  0.00    -0.289 A  
HETATM    8  C   UNL     1     -10.523  10.627  65.992  1.00  0.00    -0.250 A  
BRANCH   6   9
HETATM    9  C   UNL     1     -12.160  12.515  65.727  1.00  0.00    -0.443 C  
BRANCH   9  10
HETATM   10  C   UNL     1     -11.872  12.453  64.207  1.00  0.00    -0.398 C  
HETATM   11  C   UNL     1     -13.069  11.861  63.456  1.00  0.00    -0.140 C  
BRANCH  10  12
HETATM   12  N   UNL     1     -11.579  13.778  63.618  1.00  0.00    -0.607 NA 
HETATM   13  H   UNL     1     -12.042  13.886  62.716  1.00  0.00     0.000 HD 
BRANCH  12  14
HETATM   14  C   UNL     1     -11.912  14.890  64.517  1.00  0.00    -0.410 C  
BRANCH  14  15
HETATM   15  C   UNL     1     -10.809  15.977  64.601  1.00  0.00    -0.179 C  
HETATM   16  H   UNL     1     -10.711  17.928  64.393  1.00  0.00     0.000 HD 
HETATM   17  O   UNL     1     -11.387  17.262  64.341  1.00  0.00    -1.052 OA 
BRANCH  15  18
HETATM   18  C   UNL     1     -10.145  15.973  65.973  1.00  0.00    -0.362 A  
HETATM   19  C   UNL     1      -9.825  14.763  66.625  1.00  0.00    -0.270 A  
HETATM   20  C   UNL     1      -9.187  14.751  67.871  1.00  0.00    -0.191 A  
HETATM   21  H   UNL     1      -8.054  16.883  70.099  1.00  0.00     0.000 HD 
HETATM   22  C   UNL     1      -8.860  15.976  68.463  1.00  0.00    -0.199 A  
HETATM   23  C   UNL     1      -9.805  17.181  66.595  1.00  0.00    -0.295 A  
HETATM   24  C   UNL     1      -9.158  17.180  67.831  1.00  0.00    -0.230 A  
HETATM   25  O   UNL     1      -8.276  16.051  69.697  1.00  0.00    -0.115 OA 
BRANCH  20  26
HETATM   26  N   UNL     1      -8.837  13.555  68.525  1.00  0.00    -0.325 N  
HETATM   27  H   UNL     1      -9.264  13.395  69.437  1.00  0.00     0.000 HD 
HETATM   28  O   UNL     1      -7.720  11.591  68.736  1.00  0.00    -0.134 OA 
HETATM   29  C   UNL     1      -7.989  12.588  68.074  1.00  0.00    -0.153 C  
ENDBRANCH  20  26
ENDBRANCH  15  18
ENDBRANCH  14  15
ENDBRANCH  12  14
ENDBRANCH  10  12
ENDBRANCH   9  10
ENDBRANCH   6   9
ENDBRANCH   2   3
TORSDOF 8
ENDMDL
MODEL      103
REMARK 921   NORMALIZED FREE ENERGY PREDICTED BY IDOCK:   -5.12 KCAL/MOL
REMARK 922        TOTAL FREE ENERGY PREDICTED BY IDOCK:   -9.01 KCAL/MOL
REMARK 923 INTER-LIGAND FREE ENERGY PREDICTED BY IDOCK:   -8.00 KCAL/MOL
REMARK 924 INTRA-LIGAND FREE ENERGY PREDICTED BY IDOCK:   -1.01 KCAL/MOL
REMARK 927      BINDING AFFINITY PREDICTED BY RF-SCORE:    0.00 PKD
ROOT
HETATM    1  C   UNL     1     -12.368  15.483  74.124  1.00  0.00    -0.669 C  
HETATM    2  O   UNL     1     -13.221  14.609  73.392  1.00  0.00    -0.585 OA 
ENDROOT
BRANCH   2   3
HETATM    3  C   UNL     1     -12.850  14.404  72.092  1.00  0.00    -0.342 A  
HETATM    4  C   UNL     1     -12.718  15.549  71.309  1.00  0.00    -0.526 A  
HETATM    5  C   UNL     1     -12.385  15.446  69.956  1.00  0.00    -0.368 A  
HETATM    6  C   UNL     1     -12.150  14.191  69.379  1.00  0.00    -0.372 A  
HETATM    7  C   UNL     1     -12.581  13.156  71.534  1.00  0.00    -0.292 A  
HETATM    8  C   UNL     1     -12.236  13.050  70.185  1.00  0.00    -0.342 A  
BRANCH   6   9
HETATM    9  C   UNL     1     -11.927  14.035  67.894  1.00  0.00    -0.387 C  
BRANCH   9  10
HETATM   10  C   UNL     1     -10.524  13.545  67.460  1.00  0.00    -0.237 C  
HETATM   11  C   UNL     1      -9.431  14.277  68.245  1.00  0.00    -0.209 C  
BRANCH  10  12
HETATM   12  N   UNL     1     -10.329  12.092  67.661  1.00  0.00    -0.201 NA 
HETATM   13  H   UNL     1     -10.089  11.632  66.783  1.00  0.00     0.000 HD 
BRANCH  12  14
HETATM   14  C   UNL     1      -9.340  11.787  68.702  1.00  0.00    -0.090 C  
BRANCH  14  15
HETATM   15  C   UNL     1      -8.874  10.307  68.704  1.00  0.00    -0.137 C  
HETATM   16  H   UNL     1      -7.188   9.344  68.399  1.00  0.00     0.000 HD 
HETATM   17  O   UNL     1      -7.474  10.250  68.399  1.00  0.00    -0.086 OA 
BRANCH  15  18
HETATM   18  C   UNL     1      -9.138   9.655  70.055  1.00  0.00    -0.269 A  
HETATM   19  C   UNL     1     -10.454   9.458  70.526  1.00  0.00    -0.335 A  
HETATM   20  C   UNL     1     -10.706   8.832  71.752  1.00  0.00    -0.343 A  
HETATM   21  H   UNL     1      -9.035   7.511  74.252  1.00  0.00     0.000 HD 
HETATM   22  C   UNL     1      -9.615   8.391  72.510  1.00  0.00    -0.288 A  
HETATM   23  C   UNL     1      -8.070   9.204  70.841  1.00  0.00    -0.201 A  
HETATM   24  C   UNL     1      -8.310   8.567  72.060  1.00  0.00    -0.209 A  
HETATM   25  O   UNL     1      -9.775   7.810  73.737  1.00  0.00    -0.275 OA 
BRANCH  20  26
HETATM   26  N   UNL     1     -12.011   8.603  72.225  1.00  0.00    -0.375 N  
HETATM   27  H   UNL     1     -12.114   7.884  72.940  1.00  0.00     0.000 HD 
HETATM   28  O   UNL     1     -14.254   8.942  72.284  1.00  0.00    -0.447 OA 
HETATM   29  C   UNL     1     -13.152   9.237  71.834  1.00  0.00    -0.415 C  
ENDBRANCH  20  26
ENDBRANCH  15  18
ENDBRANCH  14  15
ENDBRANCH  12  14
ENDBRANCH  10  12
ENDBRANCH   9  10
ENDBRANCH   6   9
ENDBRANCH   2   3
TORSDOF 8
ENDMDL
MODEL      104
REMARK 921   NORMALIZED FREE ENERGY PREDICTED BY IDOCK:   -5.11 KCAL/MOL
REMARK 922        TOTAL FREE ENERGY PREDICTED BY IDOCK:   -8.99 KCAL/MOL
REMARK 923 INTER-LIGAND FREE ENERGY PREDICTED BY IDOCK:   -7.89 KCAL/MOL
REMARK 924 INTRA-LIGAND FREE ENERGY PREDICTED BY IDOCK:   -1.11 KCAL/MOL
REMARK 927      BINDING AFFINITY PREDICTED BY RF-SCORE:    0.00 PKD
ROOT
HETATM    1  C   UNL     1     -10.376  19.290  66.312  1.00  0.00    -0.480 C  
HETATM    2  O   UNL     1     -10.892  18.452  65.282  1.00  0.00    -0.624 OA 
ENDROOT
BRANCH   2   3
HETATM    3  C   UNL     1     -10.534  17.136  65.381  1.00  0.00    -0.080 A  
HETATM    4  C   UNL     1     -11.322  16.236  64.666  1.00  0.00    -0.237 A  
HETATM    5  C   UNL     1     -11.067  14.864  64.736  1.00  0.00    -0.395 A  
HETATM    6  C   UNL     1      -9.997  14.381  65.499  1.00  0.00    -0.359 A  
HETATM    7  C   UNL     1      -9.447  16.665  66.113  1.00  0.00    -0.319 A  
HETATM    8  C   UNL     1      -9.181  15.296  66.174  1.00  0.00    -0.345 A  
BRANCH   6   9
HETATM    9  C   UNL     1      -9.781  12.901  65.707  1.00  0.00    -0.155 C  
BRANCH   9  10
HETATM   10  C   UNL     1     -10.946  11.973  65.286  1.00  0.00    -0.308 C  
HETATM   11  C   UNL     1     -10.408  10.705  64.613  1.00  0.00    -0.353 C  
BRANCH  10  12
HETATM   12  N   UNL     1     -11.796  11.556  66.423  1.00  0.00    -0.306 NA 
HETATM   13  H   UNL     1     -12.390  10.768  66.164  1.00  0.00     0.000 HD 
BRANCH  12  14
HETATM   14  C   UNL     1     -11.022  11.256  67.634  1.00  0.00    -0.259 C  
BRANCH  14  15
HETATM   15  C   UNL     1     -11.811  11.483  68.950  1.00  0.00    -0.341 C  
HETATM   16  H   UNL     1     -11.835  10.698  70.751  1.00  0.00     0.000 HD 
HETATM   17  O   UNL     1     -11.351  10.559  69.945  1.00  0.00    -0.263 OA 
BRANCH  15  18
HETATM   18  C   UNL     1     -11.638  12.912  69.449  1.00  0.00    -0.363 A  
HETATM   19  C   UNL     1     -12.563  13.490  70.345  1.00  0.00    -0.267 A  
HETATM   20  C   UNL     1     -12.395  14.791  70.831  1.00  0.00    -0.319 A  
HETATM   21  H   UNL     1     -10.299  17.302  70.526  1.00  0.00     0.000 HD 
HETATM   22  C   UNL     1     -11.273  15.517  70.415  1.00  0.00    -0.337 A  
HETATM   23  C   UNL     1     -10.529  13.669  69.050  1.00  0.00    -0.099 A  
HETATM   24  C   UNL     1     -10.344  14.963  69.539  1.00  0.00    -0.168 A  
HETATM   25  O   UNL     1     -11.060  16.809  70.809  1.00  0.00    -0.100 OA 
BRANCH  20  26
HETATM   26  N   UNL     1     -13.292  15.374  71.746  1.00  0.00    -0.441 N  
HETATM   27  H   UNL     1     -14.269  15.420  71.456  1.00  0.00     0.000 HD 
HETATM   28  O   UNL     1     -13.850  16.403  73.689  1.00  0.00    -0.438 OA 
HETATM   29  C   UNL     1     -13.000  15.883  72.976  1.00  0.00    -0.530 C  
ENDBRANCH  20  26
ENDBRANCH  15  18
ENDBRANCH  14  15
ENDBRANCH  12  14
ENDBRANCH  10  12
ENDBRANCH   9  10
ENDBRANCH   6   9
ENDBRANCH   2   3
TORSDOF 8
ENDMDL
MODEL      105
REMARK 921   NORMALIZED FREE ENERGY PREDICTED BY IDOCK:   -5.10 KCAL/MOL
REMARK 922        TOTAL FREE ENERGY PREDICTED BY IDOCK:   -8.99 KCAL/MOL
REMARK 923 INTER-LIGAND FREE ENERGY PREDICTED BY IDOCK:   -7.58 KCAL/MOL
REMARK 924 INTRA-LIGAND FREE ENERGY PREDICTED BY IDOCK:   -1.41 KCAL/MOL
REMARK 927      BINDING AFFINITY PREDICTED BY RF-SCORE:    0.00 PKD
ROOT
HETATM    1  C   UNL     1      -7.725   8.912  63.950  1.00  0.00    -0.129 C  
HETATM    2  O   UNL     1      -8.184   9.955  64.804  1.00  0.00    -0.135 OA 
ENDROOT
BRANCH   2   3
HETATM    3  C   UNL     1      -8.709   9.532  65.993  1.00  0.00    -0.147 A  
HETATM    4  C   UNL     1      -7.788   9.284  67.010  1.00  0.00    -0.098 A  
HETATM    5  C   UNL     1      -8.218   8.806  68.250  1.00  0.00    -0.118 A  
HETATM    6  C   UNL     1      -9.581   8.600  68.496  1.00  0.00    -0.162 A  
HETATM    7  C   UNL     1     -10.069   9.365  66.243  1.00  0.00    -0.328 A  
HETATM    8  C   UNL     1     -10.503   8.899  67.486  1.00  0.00    -0.337 A  
BRANCH   6   9
HETATM    9  C   UNL     1     -10.064   7.954  69.773  1.00  0.00    -0.199 C  
BRANCH   9  10
HETATM   10  C   UNL     1     -11.124   6.836  69.616  1.00  0.00    -0.292 C  
HETATM   11  C   UNL     1     -10.485   5.457  69.818  1.00  0.00    -0.378 C  
BRANCH  10  12
HETATM   12  N   UNL     1     -12.244   6.960  70.574  1.00  0.00    -0.601 NA 
HETATM   13  H   UNL     1     -12.345   6.110  71.128  1.00  0.00     0.000 HD 
BRANCH  12  14
HETATM   14  C   UNL     1     -12.128   8.141  71.439  1.00  0.00    -0.297 C  
BRANCH  14  15
HETATM   15  C   UNL     1     -13.373   9.065  71.403  1.00  0.00    -0.277 C  
HETATM   16  H   UNL     1     -14.823   9.551  72.637  1.00  0.00     0.000 HD 
HETATM   17  O   UNL     1     -14.060   8.986  72.659  1.00  0.00    -0.516 OA 
BRANCH  15  18
HETATM   18  C   UNL     1     -12.972  10.507  71.120  1.00  0.00    -0.506 A  
HETATM   19  C   UNL     1     -12.240  10.848  69.963  1.00  0.00    -0.422 A  
HETATM   20  C   UNL     1     -11.895  12.174  69.680  1.00  0.00    -0.322 A  
HETATM   21  H   UNL     1     -12.243  15.163  70.997  1.00  0.00     0.000 HD 
HETATM   22  C   UNL     1     -12.301  13.173  70.573  1.00  0.00    -0.304 A  
HETATM   23  C   UNL     1     -13.360  11.531  71.993  1.00  0.00    -0.397 A  
HETATM   24  C   UNL     1     -13.033  12.859  71.715  1.00  0.00    -0.416 A  
HETATM   25  O   UNL     1     -11.967  14.485  70.391  1.00  0.00    -0.280 OA 
BRANCH  20  26
HETATM   26  N   UNL     1     -11.188  12.536  68.518  1.00  0.00    -0.261 N  
HETATM   27  H   UNL     1     -10.171  12.531  68.586  1.00  0.00     0.000 HD 
HETATM   28  O   UNL     1     -11.011  13.225  66.363  1.00  0.00    -0.285 OA 
HETATM   29  C   UNL     1     -11.713  12.893  67.312  1.00  0.00    -0.373 C  
ENDBRANCH  20  26
ENDBRANCH  15  18
ENDBRANCH  14  15
ENDBRANCH  12  14
ENDBRANCH  10  12
ENDBRANCH   9  10
ENDBRANCH   6   9
ENDBRANCH   2   3
TORSDOF 8
ENDMDL
MODEL      106
REMARK 921   NORMALIZED FREE ENERGY PREDICTED BY IDOCK:   -5.10 KCAL/MOL
REMARK 922        TOTAL FREE ENERGY PREDICTED BY IDOCK:   -8.98 KCAL/MOL
REMARK 923 INTER-LIGAND FREE ENERGY PREDICTED BY IDOCK:   -6.91 KCAL/MOL
REMARK 924 INTRA-LIGAND FREE ENERGY PREDICTED BY IDOCK:   -2.07 KCAL/MOL
REMARK 927      BINDING AFFINITY PREDICTED BY RF-SCORE:    0.00 PKD
ROOT
HETATM    1  C   UNL     1      -6.046  12.373  69.749  1.00  0.00    -0.137 C  
HETATM    2  O   UNL     1      -6.977  11.333  70.036  1.00  0.00    -0.064 OA 
ENDROOT
BRANCH   2   3
HETATM    3  C   UNL     1      -7.712  10.912  68.963  1.00  0.00    -0.135 A  
HETATM    4  C   UNL     1      -7.586  11.674  67.802  1.00  0.00    -0.121 A  
HETATM    5  C   UNL     1      -8.330  11.355  66.663  1.00  0.00    -0.172 A  
HETATM    6  C   UNL     1      -9.186  10.246  66.665  1.00  0.00    -0.179 A  
HETATM    7  C   UNL     1      -8.534   9.788  68.959  1.00  0.00    -0.137 A  
HETATM    8  C   UNL     1      -9.269   9.458  67.818  1.00  0.00    -0.141 A  
BRANCH   6   9
HETATM    9  C   UNL     1     -10.104   9.958  65.502  1.00  0.00    -0.297 C  
BRANCH   9  10
HETATM   10  C   UNL     1      -9.797  10.709  64.183  1.00  0.00    -0.335 C  
HETATM   11  C   UNL     1      -8.928   9.845  63.263  1.00  0.00    -0.276 C  
BRANCH  10  12
HETATM   12  N   UNL     1     -11.015  11.086  63.433  1.00  0.00    -0.691 NA 
HETATM   13  H   UNL     1     -11.845  10.670  63.855  1.00  0.00     0.000 HD 
BRANCH  12  14
HETATM   14  C   UNL     1     -11.170  12.539  63.289  1.00  0.00    -0.265 C  
BRANCH  14  15
HETATM   15  C   UNL     1     -12.197  13.157  64.273  1.00  0.00    -0.396 C  
HETATM   16  H   UNL     1     -13.885  12.597  65.109  1.00  0.00     0.000 HD 
HETATM   17  O   UNL     1     -13.256  12.218  64.506  1.00  0.00    -0.799 OA 
BRANCH  15  18
HETATM   18  C   UNL     1     -11.531  13.527  65.593  1.00  0.00    -0.330 A  
HETATM   19  C   UNL     1     -10.634  14.614  65.679  1.00  0.00    -0.344 A  
HETATM   20  C   UNL     1     -10.043  14.979  66.893  1.00  0.00    -0.249 A  
HETATM   21  H   UNL     1     -10.017  14.009  70.031  1.00  0.00     0.000 HD 
HETATM   22  C   UNL     1     -10.366  14.243  68.039  1.00  0.00    -0.229 A  
HETATM   23  C   UNL     1     -11.829  12.810  66.758  1.00  0.00    -0.452 A  
HETATM   24  C   UNL     1     -11.255  13.174  67.977  1.00  0.00    -0.308 A  
HETATM   25  O   UNL     1      -9.797  14.508  69.253  1.00  0.00    -0.140 OA 
BRANCH  20  26
HETATM   26  N   UNL     1      -9.167  16.075  67.003  1.00  0.00    -0.206 N  
HETATM   27  H   UNL     1      -8.174  15.857  67.071  1.00  0.00     0.000 HD 
HETATM   28  O   UNL     1      -8.664  18.282  67.162  1.00  0.00    -0.248 OA 
HETATM   29  C   UNL     1      -9.501  17.396  67.029  1.00  0.00    -0.266 C  
ENDBRANCH  20  26
ENDBRANCH  15  18
ENDBRANCH  14  15
ENDBRANCH  12  14
ENDBRANCH  10  12
ENDBRANCH   9  10
ENDBRANCH   6   9
ENDBRANCH   2   3
TORSDOF 8
ENDMDL
MODEL      107
REMARK 921   NORMALIZED FREE ENERGY PREDICTED BY IDOCK:   -5.05 KCAL/MOL
REMARK 922        TOTAL FREE ENERGY PREDICTED BY IDOCK:   -8.91 KCAL/MOL
REMARK 923 INTER-LIGAND FREE ENERGY PREDICTED BY IDOCK:   -8.21 KCAL/MOL
REMARK 924 INTRA-LIGAND FREE ENERGY PREDICTED BY IDOCK:   -0.70 KCAL/MOL
REMARK 927      BINDING AFFINITY PREDICTED BY RF-SCORE:    0.00 PKD
ROOT
HETATM    1  C   UNL     1     -10.342  19.038  66.098  1.00  0.00    -0.468 C  
HETATM    2  O   UNL     1      -9.633  17.832  65.830  1.00  0.00    -0.517 OA 
ENDROOT
BRANCH   2   3
HETATM    3  C   UNL     1     -10.259  16.694  66.259  1.00  0.00    -0.334 A  
HETATM    4  C   UNL     1     -10.579  16.651  67.616  1.00  0.00    -0.321 A  
HETATM    5  C   UNL     1     -11.180  15.515  68.164  1.00  0.00    -0.343 A  
HETATM    6  C   UNL     1     -11.497  14.420  67.350  1.00  0.00    -0.377 A  
HETATM    7  C   UNL     1     -10.604  15.623  65.439  1.00  0.00    -0.436 A  
HETATM    8  C   UNL     1     -11.216  14.491  65.981  1.00  0.00    -0.337 A  
BRANCH   6   9
HETATM    9  C   UNL     1     -12.016  13.128  67.934  1.00  0.00    -0.347 C  
BRANCH   9  10
HETATM   10  C   UNL     1     -11.271  11.837  67.513  1.00  0.00    -0.291 C  
HETATM   11  C   UNL     1      -9.799  11.905  67.931  1.00  0.00    -0.190 C  
BRANCH  10  12
HETATM   12  N   UNL     1     -11.854  10.613  68.103  1.00  0.00    -0.788 NA 
HETATM   13  H   UNL     1     -12.087   9.934  67.379  1.00  0.00     0.000 HD 
BRANCH  12  14
HETATM   14  C   UNL     1     -10.995  10.010  69.131  1.00  0.00    -0.220 C  
BRANCH  14  15
HETATM   15  C   UNL     1     -11.586  10.091  70.563  1.00  0.00    -0.323 C  
HETATM   16  H   UNL     1     -13.339  10.477  71.361  1.00  0.00     0.000 HD 
HETATM   17  O   UNL     1     -12.977  10.427  70.484  1.00  0.00    -0.344 OA 
BRANCH  15  18
HETATM   18  C   UNL     1     -11.412   8.768  71.299  1.00  0.00    -0.355 A  
HETATM   19  C   UNL     1     -10.319   8.553  72.166  1.00  0.00    -0.409 A  
HETATM   20  C   UNL     1     -10.169   7.353  72.869  1.00  0.00    -0.261 A  
HETATM   21  H   UNL     1     -11.699   4.466  73.205  1.00  0.00     0.000 HD 
HETATM   22  C   UNL     1     -11.139   6.358  72.702  1.00  0.00    -0.261 A  
HETATM   23  C   UNL     1     -12.361   7.749  71.152  1.00  0.00    -0.268 A  
HETATM   24  C   UNL     1     -12.229   6.553  71.859  1.00  0.00    -0.373 A  
HETATM   25  O   UNL     1     -11.041   5.141  73.318  1.00  0.00    -0.287 OA 
BRANCH  20  26
HETATM   26  N   UNL     1      -9.101   7.131  73.759  1.00  0.00    -0.181 N  
HETATM   27  H   UNL     1      -9.351   6.921  74.725  1.00  0.00     0.000 HD 
HETATM   28  O   UNL     1      -6.909   6.989  74.328  1.00  0.00    -0.085 OA 
HETATM   29  C   UNL     1      -7.769   7.165  73.472  1.00  0.00    -0.092 C  
ENDBRANCH  20  26
ENDBRANCH  15  18
ENDBRANCH  14  15
ENDBRANCH  12  14
ENDBRANCH  10  12
ENDBRANCH   9  10
ENDBRANCH   6   9
ENDBRANCH   2   3
TORSDOF 8
ENDMDL
MODEL      108
REMARK 921   NORMALIZED FREE ENERGY PREDICTED BY IDOCK:   -5.04 KCAL/MOL
REMARK 922        TOTAL FREE ENERGY PREDICTED BY IDOCK:   -8.90 KCAL/MOL
REMARK 923 INTER-LIGAND FREE ENERGY PREDICTED BY IDOCK:   -7.75 KCAL/MOL
REMARK 924 INTRA-LIGAND FREE ENERGY PREDICTED BY IDOCK:   -1.15 KCAL/MOL
REMARK 927      BINDING AFFINITY PREDICTED BY RF-SCORE:    0.00 PKD
ROOT
HETATM    1  C   UNL     1      -8.040   8.498  63.305  1.00  0.00    -0.162 C  
HETATM    2  O   UNL     1      -8.840   9.447  64.004  1.00  0.00    -0.215 OA 
ENDROOT
BRANCH   2   3
HETATM    3  C   UNL     1      -8.995   9.193  65.338  1.00  0.00    -0.207 A  
HETATM    4  C   UNL     1      -7.894   8.629  65.982  1.00  0.00    -0.102 A  
HETATM    5  C   UNL     1      -7.964   8.289  67.335  1.00  0.00    -0.106 A  
HETATM    6  C   UNL     1      -9.130   8.542  68.069  1.00  0.00    -0.144 A  
HETATM    7  C   UNL     1     -10.144   9.480  66.071  1.00  0.00    -0.319 A  
HETATM    8  C   UNL     1     -10.213   9.154  67.426  1.00  0.00    -0.310 A  
BRANCH   6   9
HETATM    9  C   UNL     1      -9.287   8.062  69.491  1.00  0.00    -0.156 C  
BRANCH   9  10
HETATM   10  C   UNL     1     -10.729   7.731  69.948  1.00  0.00    -0.245 C  
HETATM   11  C   UNL     1     -11.074   6.272  69.629  1.00  0.00    -0.479 C  
BRANCH  10  12
HETATM   12  N   UNL     1     -10.941   7.940  71.397  1.00  0.00    -0.229 NA 
HETATM   13  H   UNL     1     -10.147   7.593  71.935  1.00  0.00     0.000 HD 
BRANCH  12  14
HETATM   14  C   UNL     1     -11.234   9.338  71.736  1.00  0.00    -0.343 C  
BRANCH  14  15
HETATM   15  C   UNL     1     -12.573   9.855  71.149  1.00  0.00    -0.367 C  
HETATM   16  H   UNL     1     -14.413  10.096  71.796  1.00  0.00     0.000 HD 
HETATM   17  O   UNL     1     -13.593   9.781  72.155  1.00  0.00    -0.419 OA 
BRANCH  15  18
HETATM   18  C   UNL     1     -12.434  11.290  70.656  1.00  0.00    -0.439 A  
HETATM   19  C   UNL     1     -12.780  12.382  71.480  1.00  0.00    -0.333 A  
HETATM   20  C   UNL     1     -12.626  13.703  71.045  1.00  0.00    -0.363 A  
HETATM   21  H   UNL     1     -11.616  15.336  68.380  1.00  0.00     0.000 HD 
HETATM   22  C   UNL     1     -12.108  13.926  69.764  1.00  0.00    -0.345 A  
HETATM   23  C   UNL     1     -11.922  11.549  69.379  1.00  0.00    -0.392 A  
HETATM   24  C   UNL     1     -11.751  12.863  68.939  1.00  0.00    -0.370 A  
HETATM   25  O   UNL     1     -11.968  15.185  69.249  1.00  0.00    -0.312 OA 
BRANCH  20  26
HETATM   26  N   UNL     1     -12.940  14.805  71.862  1.00  0.00    -0.311 N  
HETATM   27  H   UNL     1     -13.281  15.640  71.386  1.00  0.00     0.000 HD 
HETATM   28  O   UNL     1     -13.106  15.902  73.842  1.00  0.00    -0.552 OA 
HETATM   29  C   UNL     1     -12.838  14.880  73.219  1.00  0.00    -0.530 C  
ENDBRANCH  20  26
ENDBRANCH  15  18
ENDBRANCH  14  15
ENDBRANCH  12  14
ENDBRANCH  10  12
ENDBRANCH   9  10
ENDBRANCH   6   9
ENDBRANCH   2   3
TORSDOF 8
ENDMDL
MODEL      109
REMARK 921   NORMALIZED FREE ENERGY PREDICTED BY IDOCK:   -5.04 KCAL/MOL
REMARK 922        TOTAL FREE ENERGY PREDICTED BY IDOCK:   -8.89 KCAL/MOL
REMARK 923 INTER-LIGAND FREE ENERGY PREDICTED BY IDOCK:   -7.83 KCAL/MOL
REMARK 924 INTRA-LIGAND FREE ENERGY PREDICTED BY IDOCK:   -1.07 KCAL/MOL
REMARK 927      BINDING AFFINITY PREDICTED BY RF-SCORE:    0.00 PKD
ROOT
HETATM    1  C   UNL     1      -7.736  19.365  68.967  1.00  0.00    -0.315 C  
HETATM    2  O   UNL     1      -9.123  19.118  68.750  1.00  0.00    -0.363 OA 
ENDROOT
BRANCH   2   3
HETATM    3  C   UNL     1      -9.398  17.975  68.054  1.00  0.00    -0.272 A  
HETATM    4  C   UNL     1      -8.554  17.699  66.979  1.00  0.00    -0.252 A  
HETATM    5  C   UNL     1      -8.777  16.577  66.175  1.00  0.00    -0.335 A  
HETATM    6  C   UNL     1      -9.831  15.700  66.461  1.00  0.00    -0.278 A  
HETATM    7  C   UNL     1     -10.425  17.087  68.364  1.00  0.00    -0.370 A  
HETATM    8  C   UNL     1     -10.643  15.959  67.571  1.00  0.00    -0.315 A  
BRANCH   6   9
HETATM    9  C   UNL     1     -10.182  14.562  65.534  1.00  0.00    -0.394 C  
BRANCH   9  10
HETATM   10  C   UNL     1     -11.542  14.670  64.801  1.00  0.00    -0.418 C  
HETATM   11  C   UNL     1     -11.754  16.091  64.268  1.00  0.00    -0.081 C  
BRANCH  10  12
HETATM   12  N   UNL     1     -11.661  13.736  63.660  1.00  0.00    -0.661 NA 
HETATM   13  H   UNL     1     -10.796  13.706  63.121  1.00  0.00     0.000 HD 
BRANCH  12  14
HETATM   14  C   UNL     1     -12.073  12.386  64.067  1.00  0.00    -0.475 C  
BRANCH  14  15
HETATM   15  C   UNL     1     -10.935  11.335  63.982  1.00  0.00    -0.303 C  
HETATM   16  H   UNL     1      -9.069  11.303  63.369  1.00  0.00     0.000 HD 
HETATM   17  O   UNL     1      -9.765  11.946  63.421  1.00  0.00    -0.360 OA 
BRANCH  15  18
HETATM   18  C   UNL     1     -10.615  10.766  65.359  1.00  0.00    -0.224 A  
HETATM   19  C   UNL     1     -11.212  11.296  66.523  1.00  0.00    -0.222 A  
HETATM   20  C   UNL     1     -10.947  10.759  67.788  1.00  0.00    -0.297 A  
HETATM   21  H   UNL     1      -9.140   8.373  69.143  1.00  0.00     0.000 HD 
HETATM   22  C   UNL     1     -10.075   9.667  67.879  1.00  0.00    -0.181 A  
HETATM   23  C   UNL     1      -9.746   9.676  65.487  1.00  0.00    -0.372 A  
HETATM   24  C   UNL     1      -9.485   9.125  66.742  1.00  0.00    -0.230 A  
HETATM   25  O   UNL     1      -9.731   9.114  69.081  1.00  0.00    -0.158 OA 
BRANCH  20  26
HETATM   26  N   UNL     1     -11.552  11.256  68.958  1.00  0.00    -0.289 N  
HETATM   27  H   UNL     1     -12.035  10.575  69.543  1.00  0.00     0.000 HD 
HETATM   28  O   UNL     1     -12.150  12.888  70.416  1.00  0.00    -0.361 OA 
HETATM   29  C   UNL     1     -11.565  12.547  69.394  1.00  0.00    -0.305 C  
ENDBRANCH  20  26
ENDBRANCH  15  18
ENDBRANCH  14  15
ENDBRANCH  12  14
ENDBRANCH  10  12
ENDBRANCH   9  10
ENDBRANCH   6   9
ENDBRANCH   2   3
TORSDOF 8
ENDMDL
MODEL      110
REMARK 921   NORMALIZED FREE ENERGY PREDICTED BY IDOCK:   -5.04 KCAL/MOL
REMARK 922        TOTAL FREE ENERGY PREDICTED BY IDOCK:   -8.89 KCAL/MOL
REMARK 923 INTER-LIGAND FREE ENERGY PREDICTED BY IDOCK:   -7.94 KCAL/MOL
REMARK 924 INTRA-LIGAND FREE ENERGY PREDICTED BY IDOCK:   -0.95 KCAL/MOL
REMARK 927      BINDING AFFINITY PREDICTED BY RF-SCORE:    0.00 PKD
ROOT
HETATM    1  C   UNL     1     -10.062   7.857  73.348  1.00  0.00    -0.180 C  
HETATM    2  O   UNL     1     -11.314   7.983  72.680  1.00  0.00    -0.372 OA 
ENDROOT
BRANCH   2   3
HETATM    3  C   UNL     1     -11.379   9.005  71.775  1.00  0.00    -0.377 A  
HETATM    4  C   UNL     1     -12.568   9.733  71.763  1.00  0.00    -0.506 A  
HETATM    5  C   UNL     1     -12.752  10.770  70.845  1.00  0.00    -0.478 A  
HETATM    6  C   UNL     1     -11.732  11.111  69.948  1.00  0.00    -0.433 A  
HETATM    7  C   UNL     1     -10.347   9.363  70.910  1.00  0.00    -0.380 A  
HETATM    8  C   UNL     1     -10.523  10.407  70.000  1.00  0.00    -0.235 A  
BRANCH   6   9
HETATM    9  C   UNL     1     -11.951  12.129  68.854  1.00  0.00    -0.296 C  
BRANCH   9  10
HETATM   10  C   UNL     1     -11.847  13.616  69.272  1.00  0.00    -0.346 C  
HETATM   11  C   UNL     1     -12.513  13.840  70.634  1.00  0.00    -0.429 C  
BRANCH  10  12
HETATM   12  N   UNL     1     -10.451  14.096  69.367  1.00  0.00    -0.435 NA 
HETATM   13  H   UNL     1      -9.797  13.313  69.380  1.00  0.00     0.000 HD 
BRANCH  12  14
HETATM   14  C   UNL     1     -10.103  15.053  68.309  1.00  0.00    -0.222 C  
BRANCH  14  15
HETATM   15  C   UNL     1      -9.060  14.512  67.297  1.00  0.00    -0.209 C  
HETATM   16  H   UNL     1      -7.430  13.418  67.378  1.00  0.00     0.000 HD 
HETATM   17  O   UNL     1      -8.069  13.749  67.998  1.00  0.00    -0.137 OA 
BRANCH  15  18
HETATM   18  C   UNL     1      -9.729  13.645  66.237  1.00  0.00    -0.295 A  
HETATM   19  C   UNL     1      -9.564  12.243  66.230  1.00  0.00    -0.248 A  
HETATM   20  C   UNL     1     -10.200  11.437  65.279  1.00  0.00    -0.270 A  
HETATM   21  H   UNL     1     -12.200  11.758  62.694  1.00  0.00     0.000 HD 
HETATM   22  C   UNL     1     -11.022  12.052  64.328  1.00  0.00    -0.346 A  
HETATM   23  C   UNL     1     -10.556  14.227  65.269  1.00  0.00    -0.396 A  
HETATM   24  C   UNL     1     -11.206  13.432  64.324  1.00  0.00    -0.406 A  
HETATM   25  O   UNL     1     -11.643  11.341  63.340  1.00  0.00    -0.184 OA 
BRANCH  20  26
HETATM   26  N   UNL     1     -10.068  10.036  65.272  1.00  0.00    -0.297 N  
HETATM   27  H   UNL     1      -9.932   9.598  64.361  1.00  0.00     0.000 HD 
HETATM   28  O   UNL     1     -10.010   7.982  66.235  1.00  0.00    -0.188 OA 
HETATM   29  C   UNL     1     -10.102   9.200  66.347  1.00  0.00    -0.274 C  
ENDBRANCH  20  26
ENDBRANCH  15  18
ENDBRANCH  14  15
ENDBRANCH  12  14
ENDBRANCH  10  12
ENDBRANCH   9  10
ENDBRANCH   6   9
ENDBRANCH   2   3
TORSDOF 8
ENDMDL
MODEL      111
REMARK 921   NORMALIZED FREE ENERGY PREDICTED BY IDOCK:   -5.04 KCAL/MOL
REMARK 922        TOTAL FREE ENERGY PREDICTED BY IDOCK:   -8.89 KCAL/MOL
REMARK 923 INTER-LIGAND FREE ENERGY PREDICTED BY IDOCK:   -8.11 KCAL/MOL
REMARK 924 INTRA-LIGAND FREE ENERGY PREDICTED BY IDOCK:   -0.78 KCAL/MOL
REMARK 927      BINDING AFFINITY PREDICTED BY RF-SCORE:    0.00 PKD
ROOT
HETATM    1  C   UNL     1      -6.141  21.060  67.134  1.00  0.00    -0.303 C  
HETATM    2  O   UNL     1      -7.527  21.260  67.400  1.00  0.00    -0.450 OA 
ENDROOT
BRANCH   2   3
HETATM    3  C   UNL     1      -8.329  20.200  67.084  1.00  0.00    -0.337 A  
HETATM    4  C   UNL     1      -7.682  18.976  66.916  1.00  0.00    -0.253 A  
HETATM    5  C   UNL     1      -8.406  17.839  66.549  1.00  0.00    -0.294 A  
HETATM    6  C   UNL     1      -9.794  17.909  66.376  1.00  0.00    -0.339 A  
HETATM    7  C   UNL     1      -9.714  20.268  66.949  1.00  0.00    -0.584 A  
HETATM    8  C   UNL     1     -10.441  19.130  66.594  1.00  0.00    -0.529 A  
BRANCH   6   9
HETATM    9  C   UNL     1     -10.582  16.736  65.844  1.00  0.00    -0.255 C  
BRANCH   9  10
HETATM   10  C   UNL     1     -10.514  15.431  66.676  1.00  0.00    -0.293 C  
HETATM   11  C   UNL     1     -11.194  15.623  68.035  1.00  0.00    -0.339 C  
BRANCH  10  12
HETATM   12  N   UNL     1     -11.159  14.282  66.005  1.00  0.00    -0.314 NA 
HETATM   13  H   UNL     1     -10.488  13.772  65.430  1.00  0.00     0.000 HD 
BRANCH  12  14
HETATM   14  C   UNL     1     -11.839  13.381  66.943  1.00  0.00    -0.403 C  
BRANCH  14  15
HETATM   15  C   UNL     1     -11.449  11.890  66.770  1.00  0.00    -0.316 C  
HETATM   16  H   UNL     1      -9.927  10.892  66.028  1.00  0.00     0.000 HD 
HETATM   17  O   UNL     1     -10.166  11.805  66.134  1.00  0.00    -0.209 OA 
BRANCH  15  18
HETATM   18  C   UNL     1     -11.409  11.177  68.116  1.00  0.00    -0.377 A  
HETATM   19  C   UNL     1     -10.762   9.932  68.264  1.00  0.00    -0.276 A  
HETATM   20  C   UNL     1     -10.694   9.286  69.504  1.00  0.00    -0.222 A  
HETATM   21  H   UNL     1     -11.693   9.747  72.599  1.00  0.00     0.000 HD 
HETATM   22  C   UNL     1     -11.280   9.909  70.612  1.00  0.00    -0.344 A  
HETATM   23  C   UNL     1     -11.987  11.771  69.245  1.00  0.00    -0.354 A  
HETATM   24  C   UNL     1     -11.914  11.142  70.489  1.00  0.00    -0.475 A  
HETATM   25  O   UNL     1     -11.295   9.324  71.847  1.00  0.00    -0.374 OA 
BRANCH  20  26
HETATM   26  N   UNL     1     -10.030   8.057  69.677  1.00  0.00    -0.185 N  
HETATM   27  H   UNL     1      -9.678   7.859  70.613  1.00  0.00     0.000 HD 
HETATM   28  O   UNL     1      -9.186   6.072  68.972  1.00  0.00    -0.122 OA 
HETATM   29  C   UNL     1      -9.806   7.102  68.731  1.00  0.00    -0.158 C  
ENDBRANCH  20  26
ENDBRANCH  15  18
ENDBRANCH  14  15
ENDBRANCH  12  14
ENDBRANCH  10  12
ENDBRANCH   9  10
ENDBRANCH   6   9
ENDBRANCH   2   3
TORSDOF 8
ENDMDL
MODEL      112
REMARK 921   NORMALIZED FREE ENERGY PREDICTED BY IDOCK:   -5.02 KCAL/MOL
REMARK 922        TOTAL FREE ENERGY PREDICTED BY IDOCK:   -8.87 KCAL/MOL
REMARK 923 INTER-LIGAND FREE ENERGY PREDICTED BY IDOCK:   -7.40 KCAL/MOL
REMARK 924 INTRA-LIGAND FREE ENERGY PREDICTED BY IDOCK:   -1.46 KCAL/MOL
REMARK 927      BINDING AFFINITY PREDICTED BY RF-SCORE:    0.00 PKD
ROOT
HETATM    1  C   UNL     1     -12.193   7.446  71.511  1.00  0.00    -0.337 C  
HETATM    2  O   UNL     1     -13.291   8.353  71.493  1.00  0.00    -0.327 OA 
ENDROOT
BRANCH   2   3
HETATM    3  C   UNL     1     -12.954   9.654  71.244  1.00  0.00    -0.360 A  
HETATM    4  C   UNL     1     -12.161   9.873  70.119  1.00  0.00    -0.095 A  
HETATM    5  C   UNL     1     -11.724  11.161  69.801  1.00  0.00    -0.419 A  
HETATM    6  C   UNL     1     -12.106  12.252  70.592  1.00  0.00    -0.330 A  
HETATM    7  C   UNL     1     -13.367  10.740  72.013  1.00  0.00    -0.403 A  
HETATM    8  C   UNL     1     -12.943  12.030  71.692  1.00  0.00    -0.439 A  
BRANCH   6   9
HETATM    9  C   UNL     1     -11.540  13.633  70.358  1.00  0.00    -0.112 C  
BRANCH   9  10
HETATM   10  C   UNL     1     -12.553  14.803  70.386  1.00  0.00    -0.346 C  
HETATM   11  C   UNL     1     -12.268  15.733  71.570  1.00  0.00    -0.513 C  
BRANCH  10  12
HETATM   12  N   UNL     1     -12.530  15.619  69.153  1.00  0.00    -0.560 NA 
HETATM   13  H   UNL     1     -13.275  16.316  69.164  1.00  0.00     0.000 HD 
BRANCH  12  14
HETATM   14  C   UNL     1     -11.226  16.248  68.908  1.00  0.00    -0.337 C  
BRANCH  14  15
HETATM   15  C   UNL     1     -10.755  16.150  67.433  1.00  0.00    -0.291 C  
HETATM   16  H   UNL     1      -9.209  16.763  66.388  1.00  0.00     0.000 HD 
HETATM   17  O   UNL     1      -9.497  16.823  67.291  1.00  0.00    -0.226 OA 
BRANCH  15  18
HETATM   18  C   UNL     1     -10.617  14.695  67.001  1.00  0.00    -0.280 A  
HETATM   19  C   UNL     1      -9.529  13.906  67.432  1.00  0.00    -0.226 A  
HETATM   20  C   UNL     1      -9.412  12.560  67.065  1.00  0.00    -0.217 A  
HETATM   21  H   UNL     1     -11.024  10.327  65.275  1.00  0.00     0.000 HD 
HETATM   22  C   UNL     1     -10.410  12.001  66.259  1.00  0.00    -0.221 A  
HETATM   23  C   UNL     1     -11.596  14.104  66.193  1.00  0.00    -0.377 A  
HETATM   24  C   UNL     1     -11.496  12.759  65.832  1.00  0.00    -0.399 A  
HETATM   25  O   UNL     1     -10.347  10.707  65.822  1.00  0.00    -0.254 OA 
BRANCH  20  26
HETATM   26  N   UNL     1      -8.349  11.750  67.507  1.00  0.00    -0.147 N  
HETATM   27  H   UNL     1      -8.079  10.982  66.893  1.00  0.00     0.000 HD 
HETATM   28  O   UNL     1      -6.748  11.099  68.977  1.00  0.00    -0.069 OA 
HETATM   29  C   UNL     1      -7.640  11.879  68.663  1.00  0.00    -0.119 C  
ENDBRANCH  20  26
ENDBRANCH  15  18
ENDBRANCH  14  15
ENDBRANCH  12  14
ENDBRANCH  10  12
ENDBRANCH   9  10
ENDBRANCH   6   9
ENDBRANCH   2   3
TORSDOF 8
ENDMDL
MODEL      113
REMARK 921   NORMALIZED FREE ENERGY PREDICTED BY IDOCK:   -5.01 KCAL/MOL
REMARK 922        TOTAL FREE ENERGY PREDICTED BY IDOCK:   -8.85 KCAL/MOL
REMARK 923 INTER-LIGAND FREE ENERGY PREDICTED BY IDOCK:   -7.56 KCAL/MOL
REMARK 924 INTRA-LIGAND FREE ENERGY PREDICTED BY IDOCK:   -1.29 KCAL/MOL
REMARK 927      BINDING AFFINITY PREDICTED BY RF-SCORE:    0.00 PKD
ROOT
HETATM    1  C   UNL     1     -13.891   8.808  71.815  1.00  0.00    -0.423 C  
HETATM    2  O   UNL     1     -12.575   8.965  72.338  1.00  0.00    -0.382 OA 
ENDROOT
BRANCH   2   3
HETATM    3  C   UNL     1     -11.572   8.740  71.438  1.00  0.00    -0.299 A  
HETATM    4  C   UNL     1     -11.593   7.501  70.800  1.00  0.00    -0.300 A  
HETATM    5  C   UNL     1     -10.587   7.154  69.895  1.00  0.00    -0.246 A  
HETATM    6  C   UNL     1      -9.563   8.061  69.594  1.00  0.00    -0.168 A  
HETATM    7  C   UNL     1     -10.576   9.660  71.116  1.00  0.00    -0.327 A  
HETATM    8  C   UNL     1      -9.577   9.322  70.202  1.00  0.00    -0.254 A  
BRANCH   6   9
HETATM    9  C   UNL     1      -8.389   7.667  68.730  1.00  0.00    -0.129 C  
BRANCH   9  10
HETATM   10  C   UNL     1      -8.284   8.369  67.354  1.00  0.00    -0.120 C  
HETATM   11  C   UNL     1      -6.989   7.964  66.641  1.00  0.00    -0.072 C  
BRANCH  10  12
HETATM   12  N   UNL     1      -9.414   8.054  66.455  1.00  0.00    -0.260 NA 
HETATM   13  H   UNL     1      -9.874   7.188  66.737  1.00  0.00     0.000 HD 
BRANCH  12  14
HETATM   14  C   UNL     1     -10.383   9.152  66.347  1.00  0.00    -0.165 C  
BRANCH  14  15
HETATM   15  C   UNL     1      -9.759  10.489  65.869  1.00  0.00    -0.217 C  
HETATM   16  H   UNL     1      -9.559  11.438  64.160  1.00  0.00     0.000 HD 
HETATM   17  O   UNL     1      -9.941  10.619  64.453  1.00  0.00    -0.304 OA 
BRANCH  15  18
HETATM   18  C   UNL     1     -10.396  11.674  66.585  1.00  0.00    -0.257 A  
HETATM   19  C   UNL     1     -10.450  12.948  65.982  1.00  0.00    -0.290 A  
HETATM   20  C   UNL     1     -11.060  14.034  66.620  1.00  0.00    -0.309 A  
HETATM   21  H   UNL     1     -12.594  14.709  69.445  1.00  0.00     0.000 HD 
HETATM   22  C   UNL     1     -11.631  13.829  67.882  1.00  0.00    -0.341 A  
HETATM   23  C   UNL     1     -10.974  11.505  67.850  1.00  0.00    -0.287 A  
HETATM   24  C   UNL     1     -11.597  12.578  68.490  1.00  0.00    -0.364 A  
HETATM   25  O   UNL     1     -12.207  14.847  68.589  1.00  0.00    -0.198 OA 
BRANCH  20  26
HETATM   26  N   UNL     1     -11.147  15.305  66.023  1.00  0.00    -0.314 N  
HETATM   27  H   UNL     1     -11.249  16.098  66.657  1.00  0.00     0.000 HD 
HETATM   28  O   UNL     1     -11.229  16.738  64.266  1.00  0.00    -1.163 OA 
HETATM   29  C   UNL     1     -11.111  15.595  64.692  1.00  0.00    -0.373 C  
ENDBRANCH  20  26
ENDBRANCH  15  18
ENDBRANCH  14  15
ENDBRANCH  12  14
ENDBRANCH  10  12
ENDBRANCH   9  10
ENDBRANCH   6   9
ENDBRANCH   2   3
TORSDOF 8
ENDMDL
MODEL      114
REMARK 921   NORMALIZED FREE ENERGY PREDICTED BY IDOCK:   -5.01 KCAL/MOL
REMARK 922        TOTAL FREE ENERGY PREDICTED BY IDOCK:   -8.85 KCAL/MOL
REMARK 923 INTER-LIGAND FREE ENERGY PREDICTED BY IDOCK:   -8.06 KCAL/MOL
REMARK 924 INTRA-LIGAND FREE ENERGY PREDICTED BY IDOCK:   -0.79 KCAL/MOL
REMARK 927      BINDING AFFINITY PREDICTED BY RF-SCORE:    0.00 PKD
ROOT
HETATM    1  C   UNL     1      -6.053  21.108  66.362  1.00  0.00    -0.288 C  
HETATM    2  O   UNL     1      -6.371  20.489  67.606  1.00  0.00    -0.226 OA 
ENDROOT
BRANCH   2   3
HETATM    3  C   UNL     1      -7.448  19.648  67.567  1.00  0.00    -0.256 A  
HETATM    4  C   UNL     1      -8.406  19.841  68.561  1.00  0.00    -0.265 A  
HETATM    5  C   UNL     1      -9.523  19.005  68.637  1.00  0.00    -0.457 A  
HETATM    6  C   UNL     1      -9.709  17.985  67.696  1.00  0.00    -0.291 A  
HETATM    7  C   UNL     1      -7.645  18.658  66.607  1.00  0.00    -0.259 A  
HETATM    8  C   UNL     1      -8.767  17.830  66.673  1.00  0.00    -0.281 A  
BRANCH   6   9
HETATM    9  C   UNL     1     -10.827  16.980  67.833  1.00  0.00    -0.302 C  
BRANCH   9  10
HETATM   10  C   UNL     1     -10.439  15.596  68.409  1.00  0.00    -0.242 C  
HETATM   11  C   UNL     1     -11.491  15.118  69.415  1.00  0.00    -0.322 C  
BRANCH  10  12
HETATM   12  N   UNL     1     -10.300  14.553  67.369  1.00  0.00    -0.251 NA 
HETATM   13  H   UNL     1     -10.325  13.621  67.782  1.00  0.00     0.000 HD 
BRANCH  12  14
HETATM   14  C   UNL     1     -11.294  14.680  66.296  1.00  0.00    -0.347 C  
BRANCH  14  15
HETATM   15  C   UNL     1     -12.270  13.478  66.206  1.00  0.00    -0.416 C  
HETATM   16  H   UNL     1     -13.461  12.708  64.845  1.00  0.00     0.000 HD 
HETATM   17  O   UNL     1     -12.863  13.444  64.901  1.00  0.00    -0.688 OA 
BRANCH  15  18
HETATM   18  C   UNL     1     -11.544  12.166  66.480  1.00  0.00    -0.425 A  
HETATM   19  C   UNL     1     -11.636  11.530  67.737  1.00  0.00    -0.338 A  
HETATM   20  C   UNL     1     -10.997  10.310  67.987  1.00  0.00    -0.289 A  
HETATM   21  H   UNL     1      -9.077   8.149  66.427  1.00  0.00     0.000 HD 
HETATM   22  C   UNL     1     -10.263   9.719  66.952  1.00  0.00    -0.245 A  
HETATM   23  C   UNL     1     -10.798  11.548  65.468  1.00  0.00    -0.313 A  
HETATM   24  C   UNL     1     -10.169  10.325  65.703  1.00  0.00    -0.301 A  
HETATM   25  O   UNL     1      -9.575   8.551  67.129  1.00  0.00    -0.157 OA 
BRANCH  20  26
HETATM   26  N   UNL     1     -11.099   9.648  69.224  1.00  0.00    -0.401 N  
HETATM   27  H   UNL     1     -11.070   8.629  69.197  1.00  0.00     0.000 HD 
HETATM   28  O   UNL     1     -11.346   9.552  71.478  1.00  0.00    -0.372 OA 
HETATM   29  C   UNL     1     -11.231  10.218  70.455  1.00  0.00    -0.330 C  
ENDBRANCH  20  26
ENDBRANCH  15  18
ENDBRANCH  14  15
ENDBRANCH  12  14
ENDBRANCH  10  12
ENDBRANCH   9  10
ENDBRANCH   6   9
ENDBRANCH   2   3
TORSDOF 8
ENDMDL
MODEL      115
REMARK 921   NORMALIZED FREE ENERGY PREDICTED BY IDOCK:   -4.99 KCAL/MOL
REMARK 922        TOTAL FREE ENERGY PREDICTED BY IDOCK:   -8.82 KCAL/MOL
REMARK 923 INTER-LIGAND FREE ENERGY PREDICTED BY IDOCK:   -7.44 KCAL/MOL
REMARK 924 INTRA-LIGAND FREE ENERGY PREDICTED BY IDOCK:   -1.37 KCAL/MOL
REMARK 927      BINDING AFFINITY PREDICTED BY RF-SCORE:    0.00 PKD
ROOT
HETATM    1  C   UNL     1     -13.256  13.113  71.974  1.00  0.00    -0.446 C  
HETATM    2  O   UNL     1     -13.713  11.764  71.992  1.00  0.00    -0.205 OA 
ENDROOT
BRANCH   2   3
HETATM    3  C   UNL     1     -12.782  10.839  71.608  1.00  0.00    -0.414 A  
HETATM    4  C   UNL     1     -12.801   9.631  72.304  1.00  0.00    -0.407 A  
HETATM    5  C   UNL     1     -11.863   8.636  72.019  1.00  0.00    -0.443 A  
HETATM    6  C   UNL     1     -10.913   8.829  71.008  1.00  0.00    -0.328 A  
HETATM    7  C   UNL     1     -11.863  11.022  70.578  1.00  0.00    -0.464 A  
HETATM    8  C   UNL     1     -10.932  10.025  70.281  1.00  0.00    -0.377 A  
BRANCH   6   9
HETATM    9  C   UNL     1      -9.801   7.835  70.771  1.00  0.00    -0.183 C  
BRANCH   9  10
HETATM   10  C   UNL     1     -10.202   6.514  70.070  1.00  0.00    -0.184 C  
HETATM   11  C   UNL     1     -11.715   6.467  69.835  1.00  0.00    -0.349 C  
BRANCH  10  12
HETATM   12  N   UNL     1      -9.535   6.326  68.763  1.00  0.00    -0.123 NA 
HETATM   13  H   UNL     1     -10.201   6.019  68.055  1.00  0.00     0.000 HD 
BRANCH  12  14
HETATM   14  C   UNL     1      -8.805   7.520  68.316  1.00  0.00    -0.125 C  
BRANCH  14  15
HETATM   15  C   UNL     1      -9.373   8.147  67.016  1.00  0.00    -0.155 C  
HETATM   16  H   UNL     1     -11.051   8.042  65.999  1.00  0.00     0.000 HD 
HETATM   17  O   UNL     1     -10.703   7.658  66.795  1.00  0.00    -0.318 OA 
BRANCH  15  18
HETATM   18  C   UNL     1      -9.387   9.668  67.107  1.00  0.00    -0.168 A  
HETATM   19  C   UNL     1     -10.521  10.412  66.716  1.00  0.00    -0.287 A  
HETATM   20  C   UNL     1     -10.552  11.807  66.825  1.00  0.00    -0.238 A  
HETATM   21  H   UNL     1      -8.600  14.265  67.792  1.00  0.00     0.000 HD 
HETATM   22  C   UNL     1      -9.428  12.460  67.343  1.00  0.00    -0.186 A  
HETATM   23  C   UNL     1      -8.278  10.354  67.618  1.00  0.00    -0.110 A  
HETATM   24  C   UNL     1      -8.304  11.744  67.743  1.00  0.00    -0.146 A  
HETATM   25  O   UNL     1      -9.363  13.822  67.441  1.00  0.00    -0.210 OA 
BRANCH  20  26
HETATM   26  N   UNL     1     -11.683  12.564  66.466  1.00  0.00    -0.390 N  
HETATM   27  H   UNL     1     -12.240  12.939  67.233  1.00  0.00     0.000 HD 
HETATM   28  O   UNL     1     -13.138  13.494  64.994  1.00  0.00    -0.736 OA 
HETATM   29  C   UNL     1     -12.117  12.851  65.206  1.00  0.00    -0.453 C  
ENDBRANCH  20  26
ENDBRANCH  15  18
ENDBRANCH  14  15
ENDBRANCH  12  14
ENDBRANCH  10  12
ENDBRANCH   9  10
ENDBRANCH   6   9
ENDBRANCH   2   3
TORSDOF 8
ENDMDL
MODEL      116
REMARK 921   NORMALIZED FREE ENERGY PREDICTED BY IDOCK:   -4.98 KCAL/MOL
REMARK 922        TOTAL FREE ENERGY PREDICTED BY IDOCK:   -8.80 KCAL/MOL
REMARK 923 INTER-LIGAND FREE ENERGY PREDICTED BY IDOCK:   -6.65 KCAL/MOL
REMARK 924 INTRA-LIGAND FREE ENERGY PREDICTED BY IDOCK:   -2.15 KCAL/MOL
REMARK 927      BINDING AFFINITY PREDICTED BY RF-SCORE:    0.00 PKD
ROOT
HETATM    1  C   UNL     1     -12.483  11.867  63.348  1.00  0.00    -0.463 C  
HETATM    2  O   UNL     1     -12.952  12.367  64.597  1.00  0.00    -0.793 OA 
ENDROOT
BRANCH   2   3
HETATM    3  C   UNL     1     -12.181  13.353  65.145  1.00  0.00    -0.434 A  
HETATM    4  C   UNL     1     -12.479  13.697  66.463  1.00  0.00    -0.337 A  
HETATM    5  C   UNL     1     -11.779  14.724  67.101  1.00  0.00    -0.351 A  
HETATM    6  C   UNL     1     -10.748  15.398  66.434  1.00  0.00    -0.311 A  
HETATM    7  C   UNL     1     -11.133  13.995  64.489  1.00  0.00    -0.360 A  
HETATM    8  C   UNL     1     -10.423  15.013  65.128  1.00  0.00    -0.438 A  
BRANCH   6   9
HETATM    9  C   UNL     1     -10.068  16.601  67.044  1.00  0.00    -0.281 C  
BRANCH   9  10
HETATM   10  C   UNL     1      -8.606  16.398  67.511  1.00  0.00    -0.173 C  
HETATM   11  C   UNL     1      -7.842  17.726  67.478  1.00  0.00    -0.214 C  
BRANCH  10  12
HETATM   12  N   UNL     1      -8.506  15.852  68.882  1.00  0.00    -0.205 NA 
HETATM   13  H   UNL     1      -9.424  15.806  69.323  1.00  0.00     0.000 HD 
BRANCH  12  14
HETATM   14  C   UNL     1      -7.833  14.547  68.929  1.00  0.00    -0.134 C  
BRANCH  14  15
HETATM   15  C   UNL     1      -7.573  13.929  67.531  1.00  0.00    -0.176 C  
HETATM   16  H   UNL     1      -6.015  13.271  66.532  1.00  0.00     0.000 HD 
HETATM   17  O   UNL     1      -6.174  13.649  67.388  1.00  0.00    -0.323 OA 
BRANCH  15  18
HETATM   18  C   UNL     1      -8.380  12.650  67.343  1.00  0.00    -0.184 A  
HETATM   19  C   UNL     1      -8.124  11.777  66.264  1.00  0.00     0.114 A  
HETATM   20  C   UNL     1      -8.840  10.586  66.101  1.00  0.00    -0.159 A  
HETATM   21  H   UNL     1     -11.262   8.926  67.574  1.00  0.00     0.000 HD 
HETATM   22  C   UNL     1      -9.822  10.266  67.045  1.00  0.00    -0.193 A  
HETATM   23  C   UNL     1      -9.373  12.300  68.267  1.00  0.00    -0.199 A  
HETATM   24  C   UNL     1     -10.084  11.108  68.122  1.00  0.00    -0.193 A  
HETATM   25  O   UNL     1     -10.595   9.144  66.934  1.00  0.00    -0.238 OA 
BRANCH  20  26
HETATM   26  N   UNL     1      -8.580   9.690  65.047  1.00  0.00    -0.151 N  
HETATM   27  H   UNL     1      -8.016   8.873  65.275  1.00  0.00     0.000 HD 
HETATM   28  O   UNL     1      -8.693   8.975  62.897  1.00  0.00    -0.209 OA 
HETATM   29  C   UNL     1      -9.000   9.795  63.755  1.00  0.00    -0.240 C  
ENDBRANCH  20  26
ENDBRANCH  15  18
ENDBRANCH  14  15
ENDBRANCH  12  14
ENDBRANCH  10  12
ENDBRANCH   9  10
ENDBRANCH   6   9
ENDBRANCH   2   3
TORSDOF 8
ENDMDL
MODEL      117
REMARK 921   NORMALIZED FREE ENERGY PREDICTED BY IDOCK:   -4.96 KCAL/MOL
REMARK 922        TOTAL FREE ENERGY PREDICTED BY IDOCK:   -8.78 KCAL/MOL
REMARK 923 INTER-LIGAND FREE ENERGY PREDICTED BY IDOCK:   -8.03 KCAL/MOL
REMARK 924 INTRA-LIGAND FREE ENERGY PREDICTED BY IDOCK:   -0.74 KCAL/MOL
REMARK 927      BINDING AFFINITY PREDICTED BY RF-SCORE:    0.00 PKD
ROOT
HETATM    1  C   UNL     1     -10.111  18.315  66.329  1.00  0.00    -0.380 C  
HETATM    2  O   UNL     1     -10.195  17.248  65.388  1.00  0.00    -0.604 OA 
ENDROOT
BRANCH   2   3
HETATM    3  C   UNL     1      -9.900  16.013  65.896  1.00  0.00    -0.348 A  
HETATM    4  C   UNL     1     -10.693  14.962  65.438  1.00  0.00    -0.391 A  
HETATM    5  C   UNL     1     -10.502  13.667  65.928  1.00  0.00    -0.297 A  
HETATM    6  C   UNL     1      -9.491  13.406  66.861  1.00  0.00    -0.253 A  
HETATM    7  C   UNL     1      -8.869  15.753  66.796  1.00  0.00    -0.299 A  
HETATM    8  C   UNL     1      -8.668  14.459  67.279  1.00  0.00    -0.228 A  
BRANCH   6   9
HETATM    9  C   UNL     1      -9.350  12.052  67.513  1.00  0.00    -0.179 C  
BRANCH   9  10
HETATM   10  C   UNL     1      -9.934  10.850  66.730  1.00  0.00    -0.205 C  
HETATM   11  C   UNL     1      -9.046  10.509  65.529  1.00  0.00    -0.214 C  
BRANCH  10  12
HETATM   12  N   UNL     1     -10.068   9.630  67.555  1.00  0.00    -0.184 NA 
HETATM   13  H   UNL     1      -9.737   8.810  67.049  1.00  0.00     0.000 HD 
BRANCH  12  14
HETATM   14  C   UNL     1      -9.403   9.746  68.860  1.00  0.00    -0.158 C  
BRANCH  14  15
HETATM   15  C   UNL     1      -9.532   8.476  69.740  1.00  0.00    -0.166 C  
HETATM   16  H   UNL     1      -8.483   7.614  71.161  1.00  0.00     0.000 HD 
HETATM   17  O   UNL     1      -8.405   8.393  70.622  1.00  0.00    -0.112 OA 
BRANCH  15  18
HETATM   18  C   UNL     1     -10.823   8.502  70.548  1.00  0.00    -0.252 A  
HETATM   19  C   UNL     1     -11.328   9.709  71.078  1.00  0.00    -0.444 A  
HETATM   20  C   UNL     1     -12.529   9.747  71.794  1.00  0.00    -0.398 A  
HETATM   21  H   UNL     1     -14.873   7.686  72.818  1.00  0.00     0.000 HD 
HETATM   22  C   UNL     1     -13.236   8.552  71.972  1.00  0.00    -0.369 A  
HETATM   23  C   UNL     1     -11.555   7.325  70.748  1.00  0.00    -0.334 A  
HETATM   24  C   UNL     1     -12.760   7.353  71.450  1.00  0.00    -0.408 A  
HETATM   25  O   UNL     1     -14.394   8.497  72.697  1.00  0.00    -0.473 OA 
BRANCH  20  26
HETATM   26  N   UNL     1     -13.062  10.945  72.307  1.00  0.00    -0.485 N  
HETATM   27  H   UNL     1     -13.468  10.897  73.241  1.00  0.00     0.000 HD 
HETATM   28  O   UNL     1     -13.613  13.144  72.212  1.00  0.00    -0.542 OA 
HETATM   29  C   UNL     1     -13.094  12.161  71.694  1.00  0.00    -0.310 C  
ENDBRANCH  20  26
ENDBRANCH  15  18
ENDBRANCH  14  15
ENDBRANCH  12  14
ENDBRANCH  10  12
ENDBRANCH   9  10
ENDBRANCH   6   9
ENDBRANCH   2   3
TORSDOF 8
ENDMDL
MODEL      118
REMARK 921   NORMALIZED FREE ENERGY PREDICTED BY IDOCK:   -4.95 KCAL/MOL
REMARK 922        TOTAL FREE ENERGY PREDICTED BY IDOCK:   -8.76 KCAL/MOL
REMARK 923 INTER-LIGAND FREE ENERGY PREDICTED BY IDOCK:   -7.41 KCAL/MOL
REMARK 924 INTRA-LIGAND FREE ENERGY PREDICTED BY IDOCK:   -1.35 KCAL/MOL
REMARK 927      BINDING AFFINITY PREDICTED BY RF-SCORE:    0.00 PKD
ROOT
HETATM    1  C   UNL     1      -9.545  17.724  68.704  1.00  0.00    -0.322 C  
HETATM    2  O   UNL     1     -10.734  17.566  69.472  1.00  0.00    -0.076 OA 
ENDROOT
BRANCH   2   3
HETATM    3  C   UNL     1     -11.146  16.272  69.631  1.00  0.00    -0.333 A  
HETATM    4  C   UNL     1     -11.086  15.769  70.929  1.00  0.00    -0.354 A  
HETATM    5  C   UNL     1     -11.442  14.444  71.191  1.00  0.00     0.008 A  
HETATM    6  C   UNL     1     -11.894  13.615  70.156  1.00  0.00    -0.351 A  
HETATM    7  C   UNL     1     -11.629  15.464  68.604  1.00  0.00    -0.373 A  
HETATM    8  C   UNL     1     -11.998  14.143  68.864  1.00  0.00    -0.376 A  
BRANCH   6   9
HETATM    9  C   UNL     1     -12.152  12.144  70.379  1.00  0.00    -0.395 C  
BRANCH   9  10
HETATM   10  C   UNL     1     -11.190  11.164  69.665  1.00  0.00    -0.264 C  
HETATM   11  C   UNL     1     -11.872  10.533  68.446  1.00  0.00     0.056 C  
BRANCH  10  12
HETATM   12  N   UNL     1      -9.943  11.810  69.200  1.00  0.00    -0.410 NA 
HETATM   13  H   UNL     1      -9.163  11.582  69.817  1.00  0.00     0.000 HD 
BRANCH  12  14
HETATM   14  C   UNL     1      -9.619  11.492  67.804  1.00  0.00    -0.175 C  
BRANCH  14  15
HETATM   15  C   UNL     1      -8.661  12.513  67.138  1.00  0.00    -0.200 C  
HETATM   16  H   UNL     1      -7.119  12.437  65.923  1.00  0.00     0.000 HD 
HETATM   17  O   UNL     1      -7.706  11.812  66.331  1.00  0.00    -0.031 OA 
BRANCH  15  18
HETATM   18  C   UNL     1      -9.436  13.507  66.280  1.00  0.00    -0.199 A  
HETATM   19  C   UNL     1     -10.493  13.083  65.447  1.00  0.00    -0.308 A  
HETATM   20  C   UNL     1     -11.230  13.993  64.681  1.00  0.00    -0.374 A  
HETATM   21  H   UNL     1     -11.317  17.219  64.066  1.00  0.00     0.000 HD 
HETATM   22  C   UNL     1     -10.900  15.351  64.761  1.00  0.00    -0.364 A  
HETATM   23  C   UNL     1      -9.131  14.872  66.334  1.00  0.00    -0.293 A  
HETATM   24  C   UNL     1      -9.867  15.791  65.584  1.00  0.00    -0.357 A  
HETATM   25  O   UNL     1     -11.541  16.297  64.012  1.00  0.00    -0.953 OA 
BRANCH  20  26
HETATM   26  N   UNL     1     -12.305  13.593  63.865  1.00  0.00    -0.711 N  
HETATM   27  H   UNL     1     -12.929  14.332  63.543  1.00  0.00     0.000 HD 
HETATM   28  O   UNL     1     -13.587  12.074  62.771  1.00  0.00     0.226 OA 
HETATM   29  C   UNL     1     -12.603  12.327  63.458  1.00  0.00    -0.476 C  
ENDBRANCH  20  26
ENDBRANCH  15  18
ENDBRANCH  14  15
ENDBRANCH  12  14
ENDBRANCH  10  12
ENDBRANCH   9  10
ENDBRANCH   6   9
ENDBRANCH   2   3
TORSDOF 8
ENDMDL
MODEL      119
REMARK 921   NORMALIZED FREE ENERGY PREDICTED BY IDOCK:   -4.94 KCAL/MOL
REMARK 922        TOTAL FREE ENERGY PREDICTED BY IDOCK:   -8.75 KCAL/MOL
REMARK 923 INTER-LIGAND FREE ENERGY PREDICTED BY IDOCK:   -7.87 KCAL/MOL
REMARK 924 INTRA-LIGAND FREE ENERGY PREDICTED BY IDOCK:   -0.87 KCAL/MOL
REMARK 927      BINDING AFFINITY PREDICTED BY RF-SCORE:    0.00 PKD
ROOT
HETATM    1  C   UNL     1     -11.771   8.747  72.143  1.00  0.00    -0.363 C  
HETATM    2  O   UNL     1     -10.997   8.535  70.966  1.00  0.00    -0.233 OA 
ENDROOT
BRANCH   2   3
HETATM    3  C   UNL     1     -10.941   9.606  70.118  1.00  0.00    -0.275 A  
HETATM    4  C   UNL     1      -9.858   9.631  69.241  1.00  0.00    -0.195 A  
HETATM    5  C   UNL     1      -9.684  10.705  68.364  1.00  0.00    -0.172 A  
HETATM    6  C   UNL     1     -10.614  11.751  68.333  1.00  0.00    -0.239 A  
HETATM    7  C   UNL     1     -11.889  10.625  70.067  1.00  0.00    -0.403 A  
HETATM    8  C   UNL     1     -11.725  11.693  69.182  1.00  0.00    -0.390 A  
BRANCH   6   9
HETATM    9  C   UNL     1     -10.382  12.989  67.500  1.00  0.00    -0.224 C  
BRANCH   9  10
HETATM   10  C   UNL     1     -10.219  12.768  65.976  1.00  0.00    -0.278 C  
HETATM   11  C   UNL     1     -11.495  12.161  65.381  1.00  0.00    -0.387 C  
BRANCH  10  12
HETATM   12  N   UNL     1      -9.924  14.015  65.238  1.00  0.00    -0.554 NA 
HETATM   13  H   UNL     1      -9.946  13.856  64.230  1.00  0.00     0.000 HD 
BRANCH  12  14
HETATM   14  C   UNL     1     -10.810  15.125  65.613  1.00  0.00    -0.360 C  
BRANCH  14  15
HETATM   15  C   UNL     1     -10.325  16.508  65.107  1.00  0.00    -0.020 C  
HETATM   16  H   UNL     1     -11.104  18.018  64.120  1.00  0.00     0.000 HD 
HETATM   17  O   UNL     1     -11.402  17.171  64.431  1.00  0.00    -1.115 OA 
BRANCH  15  18
HETATM   18  C   UNL     1      -9.829  17.368  66.263  1.00  0.00    -0.291 A  
HETATM   19  C   UNL     1      -8.636  17.053  66.947  1.00  0.00    -0.250 A  
HETATM   20  C   UNL     1      -8.158  17.855  67.990  1.00  0.00    -0.252 A  
HETATM   21  H   UNL     1      -9.010  20.579  69.616  1.00  0.00     0.000 HD 
HETATM   22  C   UNL     1      -8.889  18.995  68.342  1.00  0.00    -0.342 A  
HETATM   23  C   UNL     1     -10.538  18.514  66.643  1.00  0.00    -0.383 A  
HETATM   24  C   UNL     1     -10.064  19.329  67.673  1.00  0.00    -0.485 A  
HETATM   25  O   UNL     1      -8.514  19.805  69.377  1.00  0.00    -0.065 OA 
BRANCH  20  26
HETATM   26  N   UNL     1      -6.956  17.572  68.666  1.00  0.00    -0.221 N  
HETATM   27  H   UNL     1      -6.162  18.173  68.449  1.00  0.00     0.000 HD 
HETATM   28  O   UNL     1      -5.640  16.396  70.092  1.00  0.00    -0.176 OA 
HETATM   29  C   UNL     1      -6.738  16.584  69.579  1.00  0.00    -0.198 C  
ENDBRANCH  20  26
ENDBRANCH  15  18
ENDBRANCH  14  15
ENDBRANCH  12  14
ENDBRANCH  10  12
ENDBRANCH   9  10
ENDBRANCH   6   9
ENDBRANCH   2   3
TORSDOF 8
ENDMDL
MODEL      120
REMARK 921   NORMALIZED FREE ENERGY PREDICTED BY IDOCK:   -4.92 KCAL/MOL
REMARK 922        TOTAL FREE ENERGY PREDICTED BY IDOCK:   -8.72 KCAL/MOL
REMARK 923 INTER-LIGAND FREE ENERGY PREDICTED BY IDOCK:   -7.35 KCAL/MOL
REMARK 924 INTRA-LIGAND FREE ENERGY PREDICTED BY IDOCK:   -1.37 KCAL/MOL
REMARK 927      BINDING AFFINITY PREDICTED BY RF-SCORE:    0.00 PKD
ROOT
HETATM    1  C   UNL     1      -6.963   9.826  69.794  1.00  0.00    -0.087 C  
HETATM    2  O   UNL     1      -8.361   9.629  69.605  1.00  0.00    -0.134 OA 
ENDROOT
BRANCH   2   3
HETATM    3  C   UNL     1      -8.847  10.089  68.413  1.00  0.00    -0.117 A  
HETATM    4  C   UNL     1      -9.924   9.380  67.881  1.00  0.00    -0.220 A  
HETATM    5  C   UNL     1     -10.466   9.742  66.646  1.00  0.00    -0.233 A  
HETATM    6  C   UNL     1      -9.956  10.841  65.943  1.00  0.00    -0.304 A  
HETATM    7  C   UNL     1      -8.359  11.205  67.737  1.00  0.00    -0.123 A  
HETATM    8  C   UNL     1      -8.908  11.577  66.508  1.00  0.00    -0.190 A  
BRANCH   6   9
HETATM    9  C   UNL     1     -10.425  11.171  64.546  1.00  0.00    -0.415 C  
BRANCH   9  10
HETATM   10  C   UNL     1     -11.532  12.247  64.432  1.00  0.00    -0.354 C  
HETATM   11  C   UNL     1     -12.559  11.852  63.366  1.00  0.00    -0.555 C  
BRANCH  10  12
HETATM   12  N   UNL     1     -12.260  12.467  65.701  1.00  0.00    -0.612 NA 
HETATM   13  H   UNL     1     -11.937  11.823  66.423  1.00  0.00     0.000 HD 
BRANCH  12  14
HETATM   14  C   UNL     1     -12.188  13.858  66.168  1.00  0.00    -0.464 C  
BRANCH  14  15
HETATM   15  C   UNL     1     -11.956  13.991  67.696  1.00  0.00    -0.368 C  
HETATM   16  H   UNL     1     -11.596  12.771  69.194  1.00  0.00     0.000 HD 
HETATM   17  O   UNL     1     -11.738  12.690  68.259  1.00  0.00    -0.308 OA 
BRANCH  15  18
HETATM   18  C   UNL     1     -10.762  14.891  67.989  1.00  0.00    -0.253 A  
HETATM   19  C   UNL     1     -10.649  16.168  67.400  1.00  0.00    -0.311 A  
HETATM   20  C   UNL     1      -9.571  17.013  67.688  1.00  0.00    -0.249 A  
HETATM   21  H   UNL     1      -6.832  17.010  69.501  1.00  0.00     0.000 HD 
HETATM   22  C   UNL     1      -8.598  16.567  68.590  1.00  0.00    -0.243 A  
HETATM   23  C   UNL     1      -9.768  14.475  68.884  1.00  0.00    -0.169 A  
HETATM   24  C   UNL     1      -8.696  15.314  69.189  1.00  0.00    -0.238 A  
HETATM   25  O   UNL     1      -7.493  17.313  68.890  1.00  0.00    -0.250 OA 
BRANCH  20  26
HETATM   26  N   UNL     1      -9.455  18.300  67.131  1.00  0.00    -0.263 N  
HETATM   27  H   UNL     1      -8.646  18.464  66.533  1.00  0.00     0.000 HD 
HETATM   28  O   UNL     1     -10.099  20.451  66.800  1.00  0.00    -0.444 OA 
HETATM   29  C   UNL     1     -10.304  19.352  67.304  1.00  0.00    -0.442 C  
ENDBRANCH  20  26
ENDBRANCH  15  18
ENDBRANCH  14  15
ENDBRANCH  12  14
ENDBRANCH  10  12
ENDBRANCH   9  10
ENDBRANCH   6   9
ENDBRANCH   2   3
TORSDOF 8
ENDMDL
MODEL      121
REMARK 921   NORMALIZED FREE ENERGY PREDICTED BY IDOCK:   -4.91 KCAL/MOL
REMARK 922        TOTAL FREE ENERGY PREDICTED BY IDOCK:   -8.70 KCAL/MOL
REMARK 923 INTER-LIGAND FREE ENERGY PREDICTED BY IDOCK:   -7.19 KCAL/MOL
REMARK 924 INTRA-LIGAND FREE ENERGY PREDICTED BY IDOCK:   -1.51 KCAL/MOL
REMARK 927      BINDING AFFINITY PREDICTED BY RF-SCORE:    0.00 PKD
ROOT
HETATM    1  C   UNL     1     -14.371   8.705  72.129  1.00  0.00    -0.427 C  
HETATM    2  O   UNL     1     -13.053   8.785  72.665  1.00  0.00    -0.391 OA 
ENDROOT
BRANCH   2   3
HETATM    3  C   UNL     1     -12.075   8.273  71.858  1.00  0.00    -0.332 A  
HETATM    4  C   UNL     1     -12.456   7.210  71.040  1.00  0.00    -0.359 A  
HETATM    5  C   UNL     1     -11.521   6.587  70.211  1.00  0.00    -0.474 A  
HETATM    6  C   UNL     1     -10.198   7.044  70.168  1.00  0.00    -0.206 A  
HETATM    7  C   UNL     1     -10.770   8.755  71.793  1.00  0.00    -0.413 A  
HETATM    8  C   UNL     1      -9.836   8.143  70.956  1.00  0.00    -0.212 A  
BRANCH   6   9
HETATM    9  C   UNL     1      -9.133   6.306  69.391  1.00  0.00    -0.139 C  
BRANCH   9  10
HETATM   10  C   UNL     1      -8.816   6.852  67.977  1.00  0.00    -0.123 C  
HETATM   11  C   UNL     1      -7.614   6.117  67.374  1.00  0.00    -0.090 C  
BRANCH  10  12
HETATM   12  N   UNL     1      -9.949   6.715  67.035  1.00  0.00    -0.157 NA 
HETATM   13  H   UNL     1     -10.579   5.969  67.329  1.00  0.00     0.000 HD 
BRANCH  12  14
HETATM   14  C   UNL     1     -10.681   7.973  66.837  1.00  0.00    -0.131 C  
BRANCH  14  15
HETATM   15  C   UNL     1      -9.763   9.215  66.707  1.00  0.00    -0.210 C  
HETATM   16  H   UNL     1      -8.893  10.198  65.245  1.00  0.00     0.000 HD 
HETATM   17  O   UNL     1      -9.456   9.437  65.325  1.00  0.00    -0.265 OA 
BRANCH  15  18
HETATM   18  C   UNL     1     -10.433  10.451  67.295  1.00  0.00    -0.304 A  
HETATM   19  C   UNL     1     -10.294  11.717  66.686  1.00  0.00    -0.257 A  
HETATM   20  C   UNL     1     -10.931  12.850  67.202  1.00  0.00    -0.262 A  
HETATM   21  H   UNL     1     -12.887  13.671  69.711  1.00  0.00     0.000 HD 
HETATM   22  C   UNL     1     -11.727  12.704  68.345  1.00  0.00    -0.333 A  
HETATM   23  C   UNL     1     -11.234  10.342  68.439  1.00  0.00    -0.318 A  
HETATM   24  C   UNL     1     -11.885  11.464  68.955  1.00  0.00    -0.415 A  
HETATM   25  O   UNL     1     -12.347  13.770  68.936  1.00  0.00    -0.291 OA 
BRANCH  20  26
HETATM   26  N   UNL     1     -10.826  14.115  66.593  1.00  0.00    -0.296 N  
HETATM   27  H   UNL     1     -10.987  14.922  67.195  1.00  0.00     0.000 HD 
HETATM   28  O   UNL     1     -10.497  15.521  64.844  1.00  0.00    -0.397 OA 
HETATM   29  C   UNL     1     -10.534  14.380  65.289  1.00  0.00    -0.390 C  
ENDBRANCH  20  26
ENDBRANCH  15  18
ENDBRANCH  14  15
ENDBRANCH  12  14
ENDBRANCH  10  12
ENDBRANCH   9  10
ENDBRANCH   6   9
ENDBRANCH   2   3
TORSDOF 8
ENDMDL
MODEL      122
REMARK 921   NORMALIZED FREE ENERGY PREDICTED BY IDOCK:   -4.91 KCAL/MOL
REMARK 922        TOTAL FREE ENERGY PREDICTED BY IDOCK:   -8.70 KCAL/MOL
REMARK 923 INTER-LIGAND FREE ENERGY PREDICTED BY IDOCK:   -6.86 KCAL/MOL
REMARK 924 INTRA-LIGAND FREE ENERGY PREDICTED BY IDOCK:   -1.84 KCAL/MOL
REMARK 927      BINDING AFFINITY PREDICTED BY RF-SCORE:    0.00 PKD
ROOT
HETATM    1  C   UNL     1     -11.281  12.089  65.987  1.00  0.00    -0.335 C  
HETATM    2  O   UNL     1     -12.042  12.321  67.169  1.00  0.00    -0.560 OA 
ENDROOT
BRANCH   2   3
HETATM    3  C   UNL     1     -11.759  11.476  68.206  1.00  0.00    -0.301 A  
HETATM    4  C   UNL     1     -12.203  11.885  69.463  1.00  0.00    -0.197 A  
HETATM    5  C   UNL     1     -11.926  11.115  70.595  1.00  0.00    -0.459 A  
HETATM    6  C   UNL     1     -11.227   9.907  70.476  1.00  0.00    -0.399 A  
HETATM    7  C   UNL     1     -11.094  10.259  68.077  1.00  0.00    -0.336 A  
HETATM    8  C   UNL     1     -10.827   9.480  69.204  1.00  0.00    -0.194 A  
BRANCH   6   9
HETATM    9  C   UNL     1     -10.791   9.125  71.692  1.00  0.00    -0.442 C  
BRANCH   9  10
HETATM   10  C   UNL     1     -11.903   8.351  72.443  1.00  0.00    -0.384 C  
HETATM   11  C   UNL     1     -12.974   7.862  71.463  1.00  0.00    -0.338 C  
BRANCH  10  12
HETATM   12  N   UNL     1     -11.393   7.175  73.181  1.00  0.00    -0.564 NA 
HETATM   13  H   UNL     1     -11.870   7.073  74.077  1.00  0.00     0.000 HD 
BRANCH  12  14
HETATM   14  C   UNL     1     -11.470   5.934  72.401  1.00  0.00    -0.306 C  
BRANCH  14  15
HETATM   15  C   UNL     1     -10.097   5.447  71.869  1.00  0.00    -0.193 C  
HETATM   16  H   UNL     1      -9.187   3.720  71.643  1.00  0.00     0.000 HD 
HETATM   17  O   UNL     1     -10.028   4.018  71.969  1.00  0.00    -0.168 OA 
BRANCH  15  18
HETATM   18  C   UNL     1      -9.890   5.877  70.422  1.00  0.00    -0.231 A  
HETATM   19  C   UNL     1      -8.692   6.498  70.008  1.00  0.00    -0.140 A  
HETATM   20  C   UNL     1      -8.483   6.868  68.675  1.00  0.00    -0.121 A  
HETATM   21  H   UNL     1     -10.069   6.787  65.800  1.00  0.00     0.000 HD 
HETATM   22  C   UNL     1      -9.493   6.600  67.744  1.00  0.00    -0.120 A  
HETATM   23  C   UNL     1     -10.881   5.626  69.464  1.00  0.00    -0.345 A  
HETATM   24  C   UNL     1     -10.677   5.979  68.129  1.00  0.00    -0.353 A  
HETATM   25  O   UNL     1      -9.384   6.969  66.432  1.00  0.00    -0.167 OA 
BRANCH  20  26
HETATM   26  N   UNL     1      -7.285   7.464  68.239  1.00  0.00    -0.088 N  
HETATM   27  H   UNL     1      -6.586   6.838  67.839  1.00  0.00     0.000 HD 
HETATM   28  O   UNL     1      -5.866   9.205  67.916  1.00  0.00    -0.042 OA 
HETATM   29  C   UNL     1      -6.954   8.785  68.294  1.00  0.00    -0.073 C  
ENDBRANCH  20  26
ENDBRANCH  15  18
ENDBRANCH  14  15
ENDBRANCH  12  14
ENDBRANCH  10  12
ENDBRANCH   9  10
ENDBRANCH   6   9
ENDBRANCH   2   3
TORSDOF 8
ENDMDL
MODEL      123
REMARK 921   NORMALIZED FREE ENERGY PREDICTED BY IDOCK:   -4.90 KCAL/MOL
REMARK 922        TOTAL FREE ENERGY PREDICTED BY IDOCK:   -8.69 KCAL/MOL
REMARK 923 INTER-LIGAND FREE ENERGY PREDICTED BY IDOCK:   -6.83 KCAL/MOL
REMARK 924 INTRA-LIGAND FREE ENERGY PREDICTED BY IDOCK:   -1.86 KCAL/MOL
REMARK 927      BINDING AFFINITY PREDICTED BY RF-SCORE:    0.00 PKD
ROOT
HETATM    1  C   UNL     1     -10.846  19.231  67.658  1.00  0.00    -0.375 C  
HETATM    2  O   UNL     1     -11.062  17.874  67.282  1.00  0.00    -0.144 OA 
ENDROOT
BRANCH   2   3
HETATM    3  C   UNL     1      -9.971  17.062  67.421  1.00  0.00    -0.278 A  
HETATM    4  C   UNL     1      -9.565  16.807  68.730  1.00  0.00    -0.260 A  
HETATM    5  C   UNL     1      -8.435  16.025  68.981  1.00  0.00    -0.244 A  
HETATM    6  C   UNL     1      -7.716  15.461  67.919  1.00  0.00    -0.144 A  
HETATM    7  C   UNL     1      -9.281  16.474  66.363  1.00  0.00    -0.327 A  
HETATM    8  C   UNL     1      -8.159  15.681  66.610  1.00  0.00    -0.239 A  
BRANCH   6   9
HETATM    9  C   UNL     1      -6.415  14.730  68.149  1.00  0.00    -0.141 C  
BRANCH   9  10
HETATM   10  C   UNL     1      -6.465  13.188  68.024  1.00  0.00    -0.126 C  
HETATM   11  C   UNL     1      -5.165  12.564  68.545  1.00  0.00    -0.053 C  
BRANCH  10  12
HETATM   12  N   UNL     1      -7.588  12.582  68.771  1.00  0.00    -0.264 NA 
HETATM   13  H   UNL     1      -8.261  13.293  69.058  1.00  0.00     0.000 HD 
BRANCH  12  14
HETATM   14  C   UNL     1      -8.251  11.501  68.029  1.00  0.00    -0.143 C  
BRANCH  14  15
HETATM   15  C   UNL     1      -8.422  11.798  66.516  1.00  0.00    -0.125 C  
HETATM   16  H   UNL     1      -8.394  10.760  64.848  1.00  0.00     0.000 HD 
HETATM   17  O   UNL     1      -8.290  10.578  65.774  1.00  0.00    -0.155 OA 
BRANCH  15  18
HETATM   18  C   UNL     1      -9.779  12.432  66.236  1.00  0.00    -0.253 A  
HETATM   19  C   UNL     1     -10.470  13.150  67.235  1.00  0.00    -0.243 A  
HETATM   20  C   UNL     1     -11.702  13.761  66.977  1.00  0.00    -0.390 A  
HETATM   21  H   UNL     1     -13.826  14.111  64.496  1.00  0.00     0.000 HD 
HETATM   22  C   UNL     1     -12.241  13.653  65.690  1.00  0.00    -0.454 A  
HETATM   23  C   UNL     1     -10.350  12.341  64.960  1.00  0.00    -0.321 A  
HETATM   24  C   UNL     1     -11.572  12.958  64.687  1.00  0.00    -0.392 A  
HETATM   25  O   UNL     1     -13.460  14.184  65.369  1.00  0.00    -0.648 OA 
BRANCH  20  26
HETATM   26  N   UNL     1     -12.392  14.504  67.953  1.00  0.00    -0.599 N  
HETATM   27  H   UNL     1     -13.156  15.092  67.619  1.00  0.00     0.000 HD 
HETATM   28  O   UNL     1     -12.792  15.235  70.063  1.00  0.00    -0.225 OA 
HETATM   29  C   UNL     1     -12.153  14.525  69.294  1.00  0.00    -0.290 C  
ENDBRANCH  20  26
ENDBRANCH  15  18
ENDBRANCH  14  15
ENDBRANCH  12  14
ENDBRANCH  10  12
ENDBRANCH   9  10
ENDBRANCH   6   9
ENDBRANCH   2   3
TORSDOF 8
ENDMDL
MODEL      124
REMARK 921   NORMALIZED FREE ENERGY PREDICTED BY IDOCK:   -4.89 KCAL/MOL
REMARK 922        TOTAL FREE ENERGY PREDICTED BY IDOCK:   -8.67 KCAL/MOL
REMARK 923 INTER-LIGAND FREE ENERGY PREDICTED BY IDOCK:   -7.99 KCAL/MOL
REMARK 924 INTRA-LIGAND FREE ENERGY PREDICTED BY IDOCK:   -0.68 KCAL/MOL
REMARK 927      BINDING AFFINITY PREDICTED BY RF-SCORE:    0.00 PKD
ROOT
HETATM    1  C   UNL     1      -8.311   3.435  73.079  1.00  0.00    -0.081 C  
HETATM    2  O   UNL     1      -9.005   3.482  71.836  1.00  0.00    -0.098 OA 
ENDROOT
BRANCH   2   3
HETATM    3  C   UNL     1      -9.958   4.458  71.750  1.00  0.00    -0.186 A  
HETATM    4  C   UNL     1     -10.163   4.998  70.480  1.00  0.00    -0.316 A  
HETATM    5  C   UNL     1     -11.083   6.032  70.293  1.00  0.00    -0.415 A  
HETATM    6  C   UNL     1     -11.833   6.517  71.372  1.00  0.00    -0.384 A  
HETATM    7  C   UNL     1     -10.726   4.911  72.819  1.00  0.00    -0.289 A  
HETATM    8  C   UNL     1     -11.656   5.936  72.633  1.00  0.00    -0.289 A  
BRANCH   6   9
HETATM    9  C   UNL     1     -12.730   7.724  71.230  1.00  0.00    -0.277 C  
BRANCH   9  10
HETATM   10  C   UNL     1     -12.250   9.019  71.930  1.00  0.00    -0.381 C  
HETATM   11  C   UNL     1     -10.880   9.445  71.392  1.00  0.00    -0.430 C  
BRANCH  10  12
HETATM   12  N   UNL     1     -13.181  10.154  71.748  1.00  0.00    -0.432 NA 
HETATM   13  H   UNL     1     -13.604  10.424  72.636  1.00  0.00     0.000 HD 
BRANCH  12  14
HETATM   14  C   UNL     1     -12.553  11.309  71.093  1.00  0.00    -0.397 C  
BRANCH  14  15
HETATM   15  C   UNL     1     -13.272  12.654  71.378  1.00  0.00    -0.127 C  
HETATM   16  H   UNL     1     -13.866  13.644  72.967  1.00  0.00     0.000 HD 
HETATM   17  O   UNL     1     -13.425  12.820  72.793  1.00  0.00    -0.408 OA 
BRANCH  15  18
HETATM   18  C   UNL     1     -12.485  13.824  70.799  1.00  0.00    -0.441 A  
HETATM   19  C   UNL     1     -11.893  13.745  69.521  1.00  0.00    -0.394 A  
HETATM   20  C   UNL     1     -11.196  14.825  68.970  1.00  0.00    -0.270 A  
HETATM   21  H   UNL     1     -10.337  17.893  69.773  1.00  0.00     0.000 HD 
HETATM   22  C   UNL     1     -11.101  16.006  69.715  1.00  0.00    -0.337 A  
HETATM   23  C   UNL     1     -12.369  15.020  71.519  1.00  0.00    -0.398 A  
HETATM   24  C   UNL     1     -11.687  16.109  70.974  1.00  0.00    -0.407 A  
HETATM   25  O   UNL     1     -10.401  17.091  69.267  1.00  0.00    -0.308 OA 
BRANCH  20  26
HETATM   26  N   UNL     1     -10.621  14.774  67.686  1.00  0.00    -0.259 N  
HETATM   27  H   UNL     1      -9.602  14.792  67.644  1.00  0.00     0.000 HD 
HETATM   28  O   UNL     1     -10.683  14.697  65.419  1.00  0.00    -0.322 OA 
HETATM   29  C   UNL     1     -11.275  14.704  66.493  1.00  0.00    -0.346 C  
ENDBRANCH  20  26
ENDBRANCH  15  18
ENDBRANCH  14  15
ENDBRANCH  12  14
ENDBRANCH  10  12
ENDBRANCH   9  10
ENDBRANCH   6   9
ENDBRANCH   2   3
TORSDOF 8
ENDMDL
MODEL      125
REMARK 921   NORMALIZED FREE ENERGY PREDICTED BY IDOCK:   -4.88 KCAL/MOL
REMARK 922        TOTAL FREE ENERGY PREDICTED BY IDOCK:   -8.66 KCAL/MOL
REMARK 923 INTER-LIGAND FREE ENERGY PREDICTED BY IDOCK:   -7.79 KCAL/MOL
REMARK 924 INTRA-LIGAND FREE ENERGY PREDICTED BY IDOCK:   -0.87 KCAL/MOL
REMARK 927      BINDING AFFINITY PREDICTED BY RF-SCORE:    0.00 PKD
ROOT
HETATM    1  C   UNL     1      -9.735   3.992  66.433  1.00  0.00    -0.188 C  
HETATM    2  O   UNL     1     -10.277   5.065  67.197  1.00  0.00    -0.197 OA 
ENDROOT
BRANCH   2   3
HETATM    3  C   UNL     1      -9.944   6.312  66.749  1.00  0.00    -0.170 A  
HETATM    4  C   UNL     1      -8.815   6.384  65.933  1.00  0.00    -0.142 A  
HETATM    5  C   UNL     1      -8.364   7.618  65.458  1.00  0.00    -0.139 A  
HETATM    6  C   UNL     1      -9.059   8.793  65.769  1.00  0.00    -0.267 A  
HETATM    7  C   UNL     1     -10.660   7.473  67.032  1.00  0.00    -0.409 A  
HETATM    8  C   UNL     1     -10.219   8.706  66.548  1.00  0.00    -0.295 A  
BRANCH   6   9
HETATM    9  C   UNL     1      -8.521  10.152  65.390  1.00  0.00    -0.162 C  
BRANCH   9  10
HETATM   10  C   UNL     1      -9.072  11.356  66.192  1.00  0.00    -0.207 C  
HETATM   11  C   UNL     1      -7.969  11.977  67.055  1.00  0.00    -0.150 C  
BRANCH  10  12
HETATM   12  N   UNL     1      -9.628  12.422  65.331  1.00  0.00    -0.441 NA 
HETATM   13  H   UNL     1      -9.111  12.488  64.454  1.00  0.00     0.000 HD 
BRANCH  12  14
HETATM   14  C   UNL     1     -11.066  12.265  65.082  1.00  0.00    -0.317 C  
BRANCH  14  15
HETATM   15  C   UNL     1     -11.827  13.610  64.952  1.00  0.00    -0.375 C  
HETATM   16  H   UNL     1     -13.705  14.187  64.908  1.00  0.00     0.000 HD 
HETATM   17  O   UNL     1     -13.239  13.363  64.988  1.00  0.00    -0.715 OA 
BRANCH  15  18
HETATM   18  C   UNL     1     -11.438  14.566  66.073  1.00  0.00    -0.348 A  
HETATM   19  C   UNL     1     -10.752  15.769  65.801  1.00  0.00    -0.337 A  
HETATM   20  C   UNL     1     -10.418  16.667  66.822  1.00  0.00    -0.261 A  
HETATM   21  H   UNL     1     -10.713  16.938  70.082  1.00  0.00     0.000 HD 
HETATM   22  C   UNL     1     -10.789  16.350  68.134  1.00  0.00    -0.346 A  
HETATM   23  C   UNL     1     -11.790  14.280  67.398  1.00  0.00    -0.441 A  
HETATM   24  C   UNL     1     -11.474  15.174  68.422  1.00  0.00    -0.347 A  
HETATM   25  O   UNL     1     -10.462  17.152  69.191  1.00  0.00    -0.323 OA 
BRANCH  20  26
HETATM   26  N   UNL     1      -9.758  17.883  66.567  1.00  0.00    -0.316 N  
HETATM   27  H   UNL     1      -8.746  17.885  66.692  1.00  0.00     0.000 HD 
HETATM   28  O   UNL     1      -9.663  20.080  66.006  1.00  0.00    -0.424 OA 
HETATM   29  C   UNL     1     -10.322  19.059  66.172  1.00  0.00    -0.468 C  
ENDBRANCH  20  26
ENDBRANCH  15  18
ENDBRANCH  14  15
ENDBRANCH  12  14
ENDBRANCH  10  12
ENDBRANCH   9  10
ENDBRANCH   6   9
ENDBRANCH   2   3
TORSDOF 8
ENDMDL
MODEL      126
REMARK 921   NORMALIZED FREE ENERGY PREDICTED BY IDOCK:   -4.88 KCAL/MOL
REMARK 922        TOTAL FREE ENERGY PREDICTED BY IDOCK:   -8.66 KCAL/MOL
REMARK 923 INTER-LIGAND FREE ENERGY PREDICTED BY IDOCK:   -6.86 KCAL/MOL
REMARK 924 INTRA-LIGAND FREE ENERGY PREDICTED BY IDOCK:   -1.79 KCAL/MOL
REMARK 927      BINDING AFFINITY PREDICTED BY RF-SCORE:    0.00 PKD
ROOT
HETATM    1  C   UNL     1     -11.530  12.057  66.360  1.00  0.00    -0.353 C  
HETATM    2  O   UNL     1     -12.116  12.284  67.638  1.00  0.00    -0.502 OA 
ENDROOT
BRANCH   2   3
HETATM    3  C   UNL     1     -11.783  11.363  68.592  1.00  0.00    -0.329 A  
HETATM    4  C   UNL     1     -12.334  11.569  69.856  1.00  0.00    -0.247 A  
HETATM    5  C   UNL     1     -12.021  10.709  70.912  1.00  0.00    -0.469 A  
HETATM    6  C   UNL     1     -11.176   9.612  70.704  1.00  0.00    -0.385 A  
HETATM    7  C   UNL     1     -10.971  10.253  68.371  1.00  0.00    -0.308 A  
HETATM    8  C   UNL     1     -10.666   9.385  69.421  1.00  0.00    -0.234 A  
BRANCH   6   9
HETATM    9  C   UNL     1     -10.708   8.749  71.851  1.00  0.00    -0.429 C  
BRANCH   9  10
HETATM   10  C   UNL     1     -11.774   7.830  72.497  1.00  0.00    -0.339 C  
HETATM   11  C   UNL     1     -12.642   7.173  71.418  1.00  0.00    -0.432 C  
BRANCH  10  12
HETATM   12  N   UNL     1     -11.188   6.753  73.324  1.00  0.00    -0.506 NA 
HETATM   13  H   UNL     1     -11.579   6.763  74.265  1.00  0.00     0.000 HD 
BRANCH  12  14
HETATM   14  C   UNL     1     -11.324   5.425  72.712  1.00  0.00    -0.296 C  
BRANCH  14  15
HETATM   15  C   UNL     1      -9.967   4.755  72.370  1.00  0.00    -0.174 C  
HETATM   16  H   UNL     1      -9.343   2.945  71.929  1.00  0.00     0.000 HD 
HETATM   17  O   UNL     1     -10.174   3.355  72.138  1.00  0.00    -0.153 OA 
BRANCH  15  18
HETATM   18  C   UNL     1      -9.337   5.398  71.141  1.00  0.00    -0.186 A  
HETATM   19  C   UNL     1      -9.927   5.266  69.865  1.00  0.00    -0.309 A  
HETATM   20  C   UNL     1      -9.372   5.879  68.737  1.00  0.00    -0.122 A  
HETATM   21  H   UNL     1      -6.794   7.756  67.949  1.00  0.00     0.000 HD 
HETATM   22  C   UNL     1      -8.210   6.643  68.898  1.00  0.00    -0.120 A  
HETATM   23  C   UNL     1      -8.174   6.167  71.265  1.00  0.00    -0.123 A  
HETATM   24  C   UNL     1      -7.619   6.794  70.149  1.00  0.00    -0.099 A  
HETATM   25  O   UNL     1      -7.582   7.238  67.839  1.00  0.00    -0.105 OA 
BRANCH  20  26
HETATM   26  N   UNL     1      -9.959   5.781  67.462  1.00  0.00    -0.136 N  
HETATM   27  H   UNL     1     -10.312   6.648  67.057  1.00  0.00     0.000 HD 
HETATM   28  O   UNL     1     -10.668   4.667  65.616  1.00  0.00    -0.295 OA 
HETATM   29  C   UNL     1     -10.110   4.656  66.708  1.00  0.00    -0.213 C  
ENDBRANCH  20  26
ENDBRANCH  15  18
ENDBRANCH  14  15
ENDBRANCH  12  14
ENDBRANCH  10  12
ENDBRANCH   9  10
ENDBRANCH   6   9
ENDBRANCH   2   3
TORSDOF 8
ENDMDL
MODEL      127
REMARK 921   NORMALIZED FREE ENERGY PREDICTED BY IDOCK:   -4.88 KCAL/MOL
REMARK 922        TOTAL FREE ENERGY PREDICTED BY IDOCK:   -8.65 KCAL/MOL
REMARK 923 INTER-LIGAND FREE ENERGY PREDICTED BY IDOCK:   -7.80 KCAL/MOL
REMARK 924 INTRA-LIGAND FREE ENERGY PREDICTED BY IDOCK:   -0.85 KCAL/MOL
REMARK 927      BINDING AFFINITY PREDICTED BY RF-SCORE:    0.00 PKD
ROOT
HETATM    1  C   UNL     1     -10.341  20.082  67.288  1.00  0.00    -0.410 C  
HETATM    2  O   UNL     1     -10.845  18.841  66.802  1.00  0.00    -0.352 OA 
ENDROOT
BRANCH   2   3
HETATM    3  C   UNL     1      -9.996  17.780  66.954  1.00  0.00    -0.332 A  
HETATM    4  C   UNL     1      -9.178  17.813  68.082  1.00  0.00    -0.277 A  
HETATM    5  C   UNL     1      -8.244  16.798  68.306  1.00  0.00    -0.204 A  
HETATM    6  C   UNL     1      -8.141  15.721  67.417  1.00  0.00    -0.193 A  
HETATM    7  C   UNL     1      -9.924  16.694  66.085  1.00  0.00    -0.356 A  
HETATM    8  C   UNL     1      -9.001  15.672  66.313  1.00  0.00    -0.377 A  
BRANCH   6   9
HETATM    9  C   UNL     1      -7.051  14.685  67.554  1.00  0.00    -0.203 C  
BRANCH   9  10
HETATM   10  C   UNL     1      -7.512  13.208  67.602  1.00  0.00    -0.164 C  
HETATM   11  C   UNL     1      -6.311  12.276  67.791  1.00  0.00    -0.101 C  
BRANCH  10  12
HETATM   12  N   UNL     1      -8.472  12.936  68.694  1.00  0.00    -0.354 NA 
HETATM   13  H   UNL     1      -8.550  13.737  69.319  1.00  0.00     0.000 HD 
BRANCH  12  14
HETATM   14  C   UNL     1      -9.793  12.522  68.203  1.00  0.00    -0.221 C  
BRANCH  14  15
HETATM   15  C   UNL     1     -10.974  13.178  68.965  1.00  0.00    -0.197 C  
HETATM   16  H   UNL     1     -12.637  14.109  68.488  1.00  0.00     0.000 HD 
HETATM   17  O   UNL     1     -11.914  13.707  68.021  1.00  0.00    -0.360 OA 
BRANCH  15  18
HETATM   18  C   UNL     1     -11.664  12.167  69.874  1.00  0.00    -0.361 A  
HETATM   19  C   UNL     1     -11.432  10.781  69.732  1.00  0.00    -0.386 A  
HETATM   20  C   UNL     1     -12.037   9.849  70.582  1.00  0.00    -0.257 A  
HETATM   21  H   UNL     1     -14.118   9.792  73.123  1.00  0.00     0.000 HD 
HETATM   22  C   UNL     1     -12.882  10.320  71.594  1.00  0.00    -0.463 A  
HETATM   23  C   UNL     1     -12.517  12.603  70.895  1.00  0.00    -0.368 A  
HETATM   24  C   UNL     1     -13.116  11.682  71.756  1.00  0.00    -0.487 A  
HETATM   25  O   UNL     1     -13.545   9.472  72.437  1.00  0.00    -0.452 OA 
BRANCH  20  26
HETATM   26  N   UNL     1     -11.798   8.466  70.474  1.00  0.00    -0.478 N  
HETATM   27  H   UNL     1     -12.516   7.850  70.855  1.00  0.00     0.000 HD 
HETATM   28  O   UNL     1     -10.579   6.641  69.899  1.00  0.00    -0.201 OA 
HETATM   29  C   UNL     1     -10.713   7.859  69.916  1.00  0.00    -0.244 C  
ENDBRANCH  20  26
ENDBRANCH  15  18
ENDBRANCH  14  15
ENDBRANCH  12  14
ENDBRANCH  10  12
ENDBRANCH   9  10
ENDBRANCH   6   9
ENDBRANCH   2   3
TORSDOF 8
ENDMDL
MODEL      128
REMARK 921   NORMALIZED FREE ENERGY PREDICTED BY IDOCK:   -4.87 KCAL/MOL
REMARK 922        TOTAL FREE ENERGY PREDICTED BY IDOCK:   -8.64 KCAL/MOL
REMARK 923 INTER-LIGAND FREE ENERGY PREDICTED BY IDOCK:   -7.39 KCAL/MOL
REMARK 924 INTRA-LIGAND FREE ENERGY PREDICTED BY IDOCK:   -1.25 KCAL/MOL
REMARK 927      BINDING AFFINITY PREDICTED BY RF-SCORE:    0.00 PKD
ROOT
HETATM    1  C   UNL     1     -13.484  15.362  73.184  1.00  0.00    -0.451 C  
HETATM    2  O   UNL     1     -13.178  15.934  71.916  1.00  0.00    -0.451 OA 
ENDROOT
BRANCH   2   3
HETATM    3  C   UNL     1     -12.591  15.076  71.028  1.00  0.00    -0.350 A  
HETATM    4  C   UNL     1     -11.892  15.670  69.978  1.00  0.00    -0.381 A  
HETATM    5  C   UNL     1     -11.294  14.882  68.992  1.00  0.00    -0.310 A  
HETATM    6  C   UNL     1     -11.362  13.485  69.065  1.00  0.00    -0.336 A  
HETATM    7  C   UNL     1     -12.631  13.687  71.125  1.00  0.00    -0.452 A  
HETATM    8  C   UNL     1     -12.023  12.896  70.149  1.00  0.00    -0.373 A  
BRANCH   6   9
HETATM    9  C   UNL     1     -10.848  12.611  67.946  1.00  0.00    -0.244 C  
BRANCH   9  10
HETATM   10  C   UNL     1      -9.506  13.040  67.302  1.00  0.00    -0.224 C  
HETATM   11  C   UNL     1      -8.362  12.151  67.801  1.00  0.00    -0.159 C  
BRANCH  10  12
HETATM   12  N   UNL     1      -9.523  12.970  65.825  1.00  0.00    -0.470 NA 
HETATM   13  H   UNL     1      -8.688  12.502  65.473  1.00  0.00     0.000 HD 
BRANCH  12  14
HETATM   14  C   UNL     1     -10.741  12.341  65.297  1.00  0.00    -0.292 C  
BRANCH  14  15
HETATM   15  C   UNL     1     -10.463  11.149  64.344  1.00  0.00    -0.353 C  
HETATM   16  H   UNL     1      -9.499  10.869  62.655  1.00  0.00     0.000 HD 
HETATM   17  O   UNL     1      -9.669  11.599  63.238  1.00  0.00    -0.363 OA 
BRANCH  15  18
HETATM   18  C   UNL     1      -9.742  10.024  65.077  1.00  0.00    -0.386 A  
HETATM   19  C   UNL     1     -10.304   9.421  66.223  1.00  0.00    -0.211 A  
HETATM   20  C   UNL     1      -9.663   8.367  66.883  1.00  0.00    -0.227 A  
HETATM   21  H   UNL     1      -6.903   6.602  66.643  1.00  0.00     0.000 HD 
HETATM   22  C   UNL     1      -8.442   7.908  66.376  1.00  0.00    -0.138 A  
HETATM   23  C   UNL     1      -8.517   9.542  64.598  1.00  0.00    -0.177 A  
HETATM   24  C   UNL     1      -7.875   8.482  65.241  1.00  0.00    -0.106 A  
HETATM   25  O   UNL     1      -7.732   6.913  66.987  1.00  0.00    -0.100 OA 
BRANCH  20  26
HETATM   26  N   UNL     1     -10.220   7.737  68.011  1.00  0.00    -0.193 N  
HETATM   27  H   UNL     1     -10.074   8.200  68.908  1.00  0.00     0.000 HD 
HETATM   28  O   UNL     1     -11.351   6.086  69.081  1.00  0.00    -0.364 OA 
HETATM   29  C   UNL     1     -10.933   6.576  68.038  1.00  0.00    -0.282 C  
ENDBRANCH  20  26
ENDBRANCH  15  18
ENDBRANCH  14  15
ENDBRANCH  12  14
ENDBRANCH  10  12
ENDBRANCH   9  10
ENDBRANCH   6   9
ENDBRANCH   2   3
TORSDOF 8
ENDMDL
MODEL      129
REMARK 921   NORMALIZED FREE ENERGY PREDICTED BY IDOCK:   -4.87 KCAL/MOL
REMARK 922        TOTAL FREE ENERGY PREDICTED BY IDOCK:   -8.64 KCAL/MOL
REMARK 923 INTER-LIGAND FREE ENERGY PREDICTED BY IDOCK:   -7.92 KCAL/MOL
REMARK 924 INTRA-LIGAND FREE ENERGY PREDICTED BY IDOCK:   -0.72 KCAL/MOL
REMARK 927      BINDING AFFINITY PREDICTED BY RF-SCORE:    0.00 PKD
ROOT
HETATM    1  C   UNL     1      -6.303  19.574  69.197  1.00  0.00    -0.300 C  
HETATM    2  O   UNL     1      -6.589  18.532  68.269  1.00  0.00    -0.209 OA 
ENDROOT
BRANCH   2   3
HETATM    3  C   UNL     1      -7.715  17.809  68.551  1.00  0.00    -0.289 A  
HETATM    4  C   UNL     1      -8.927  18.472  68.363  1.00  0.00    -0.346 A  
HETATM    5  C   UNL     1     -10.134  17.837  68.664  1.00  0.00    -0.384 A  
HETATM    6  C   UNL     1     -10.141  16.515  69.127  1.00  0.00    -0.287 A  
HETATM    7  C   UNL     1      -7.718  16.483  68.976  1.00  0.00    -0.228 A  
HETATM    8  C   UNL     1      -8.923  15.840  69.265  1.00  0.00    -0.266 A  
BRANCH   6   9
HETATM    9  C   UNL     1     -11.414  15.849  69.592  1.00  0.00    -0.346 C  
BRANCH   9  10
HETATM   10  C   UNL     1     -11.361  15.162  70.979  1.00  0.00    -0.316 C  
HETATM   11  C   UNL     1     -11.973  16.069  72.052  1.00  0.00    -0.622 C  
BRANCH  10  12
HETATM   12  N   UNL     1     -12.080  13.870  71.014  1.00  0.00    -0.452 NA 
HETATM   13  H   UNL     1     -13.081  14.007  70.877  1.00  0.00     0.000 HD 
BRANCH  12  14
HETATM   14  C   UNL     1     -11.547  12.894  70.055  1.00  0.00    -0.116 C  
BRANCH  14  15
HETATM   15  C   UNL     1     -12.480  11.677  69.822  1.00  0.00    -0.025 C  
HETATM   16  H   UNL     1     -12.981  10.535  68.303  1.00  0.00     0.000 HD 
HETATM   17  O   UNL     1     -12.410  11.280  68.446  1.00  0.00    -0.545 OA 
BRANCH  15  18
HETATM   18  C   UNL     1     -12.086  10.510  70.719  1.00  0.00    -0.470 A  
HETATM   19  C   UNL     1     -10.756  10.039  70.763  1.00  0.00    -0.272 A  
HETATM   20  C   UNL     1     -10.380   8.989  71.607  1.00  0.00    -0.350 A  
HETATM   21  H   UNL     1     -11.744   6.957  73.799  1.00  0.00     0.000 HD 
HETATM   22  C   UNL     1     -11.357   8.409  72.425  1.00  0.00    -0.378 A  
HETATM   23  C   UNL     1     -13.039   9.905  71.548  1.00  0.00    -0.516 A  
HETATM   24  C   UNL     1     -12.672   8.865  72.404  1.00  0.00    -0.436 A  
HETATM   25  O   UNL     1     -11.081   7.351  73.244  1.00  0.00    -0.365 OA 
BRANCH  20  26
HETATM   26  N   UNL     1      -9.054   8.524  71.685  1.00  0.00    -0.207 N  
HETATM   27  H   UNL     1      -8.469   8.940  72.409  1.00  0.00     0.000 HD 
HETATM   28  O   UNL     1      -7.287   7.263  71.024  1.00  0.00    -0.072 OA 
HETATM   29  C   UNL     1      -8.465   7.579  70.899  1.00  0.00    -0.125 C  
ENDBRANCH  20  26
ENDBRANCH  15  18
ENDBRANCH  14  15
ENDBRANCH  12  14
ENDBRANCH  10  12
ENDBRANCH   9  10
ENDBRANCH   6   9
ENDBRANCH   2   3
TORSDOF 8
ENDMDL
MODEL      130
REMARK 921   NORMALIZED FREE ENERGY PREDICTED BY IDOCK:   -4.87 KCAL/MOL
REMARK 922        TOTAL FREE ENERGY PREDICTED BY IDOCK:   -8.64 KCAL/MOL
REMARK 923 INTER-LIGAND FREE ENERGY PREDICTED BY IDOCK:   -7.97 KCAL/MOL
REMARK 924 INTRA-LIGAND FREE ENERGY PREDICTED BY IDOCK:   -0.67 KCAL/MOL
REMARK 927      BINDING AFFINITY PREDICTED BY RF-SCORE:    0.00 PKD
ROOT
HETATM    1  C   UNL     1      -8.292   6.674  64.138  1.00  0.00     0.144 C  
HETATM    2  O   UNL     1      -7.603   7.835  63.683  1.00  0.00    -0.110 OA 
ENDROOT
BRANCH   2   3
HETATM    3  C   UNL     1      -8.317   8.997  63.775  1.00  0.00    -0.176 A  
HETATM    4  C   UNL     1      -8.599   9.635  62.568  1.00  0.00    -0.208 A  
HETATM    5  C   UNL     1      -9.286  10.851  62.554  1.00  0.00    -0.339 A  
HETATM    6  C   UNL     1      -9.726  11.428  63.752  1.00  0.00    -0.314 A  
HETATM    7  C   UNL     1      -8.784   9.548  64.966  1.00  0.00    -0.205 A  
HETATM    8  C   UNL     1      -9.482  10.757  64.956  1.00  0.00    -0.286 A  
BRANCH   6   9
HETATM    9  C   UNL     1     -10.345  12.805  63.784  1.00  0.00    -0.269 C  
BRANCH   9  10
HETATM   10  C   UNL     1     -11.810  12.909  63.293  1.00  0.00    -0.398 C  
HETATM   11  C   UNL     1     -12.602  11.660  63.695  1.00  0.00    -0.309 C  
BRANCH  10  12
HETATM   12  N   UNL     1     -12.520  14.089  63.834  1.00  0.00    -0.846 NA 
HETATM   13  H   UNL     1     -13.383  14.262  63.319  1.00  0.00     0.000 HD 
BRANCH  12  14
HETATM   14  C   UNL     1     -12.779  13.989  65.276  1.00  0.00    -0.439 C  
BRANCH  14  15
HETATM   15  C   UNL     1     -11.516  14.192  66.152  1.00  0.00    -0.347 C  
HETATM   16  H   UNL     1     -10.543  15.719  66.916  1.00  0.00     0.000 HD 
HETATM   17  O   UNL     1     -11.317  15.594  66.380  1.00  0.00    -0.128 OA 
BRANCH  15  18
HETATM   18  C   UNL     1     -11.653  13.464  67.483  1.00  0.00    -0.382 A  
HETATM   19  C   UNL     1     -11.936  14.167  68.674  1.00  0.00    -0.373 A  
HETATM   20  C   UNL     1     -12.094  13.502  69.895  1.00  0.00    -0.341 A  
HETATM   21  H   UNL     1     -11.991  10.443  71.086  1.00  0.00     0.000 HD 
HETATM   22  C   UNL     1     -11.975  12.108  69.915  1.00  0.00    -0.309 A  
HETATM   23  C   UNL     1     -11.537  12.070  67.540  1.00  0.00    -0.401 A  
HETATM   24  C   UNL     1     -11.706  11.395  68.750  1.00  0.00    -0.404 A  
HETATM   25  O   UNL     1     -12.072  11.389  71.073  1.00  0.00    -0.318 OA 
BRANCH  20  26
HETATM   26  N   UNL     1     -12.402  14.183  71.088  1.00  0.00    -0.356 N  
HETATM   27  H   UNL     1     -12.672  13.605  71.883  1.00  0.00     0.000 HD 
HETATM   28  O   UNL     1     -12.698  16.032  72.369  1.00  0.00    -0.447 OA 
HETATM   29  C   UNL     1     -12.379  15.530  71.298  1.00  0.00    -0.408 C  
ENDBRANCH  20  26
ENDBRANCH  15  18
ENDBRANCH  14  15
ENDBRANCH  12  14
ENDBRANCH  10  12
ENDBRANCH   9  10
ENDBRANCH   6   9
ENDBRANCH   2   3
TORSDOF 8
ENDMDL
MODEL      131
REMARK 921   NORMALIZED FREE ENERGY PREDICTED BY IDOCK:   -4.87 KCAL/MOL
REMARK 922        TOTAL FREE ENERGY PREDICTED BY IDOCK:   -8.64 KCAL/MOL
REMARK 923 INTER-LIGAND FREE ENERGY PREDICTED BY IDOCK:   -7.92 KCAL/MOL
REMARK 924 INTRA-LIGAND FREE ENERGY PREDICTED BY IDOCK:   -0.72 KCAL/MOL
REMARK 927      BINDING AFFINITY PREDICTED BY RF-SCORE:    0.00 PKD
ROOT
HETATM    1  C   UNL     1     -10.138   7.961  72.952  1.00  0.00    -0.310 C  
HETATM    2  O   UNL     1     -11.429   8.363  72.504  1.00  0.00    -0.380 OA 
ENDROOT
BRANCH   2   3
HETATM    3  C   UNL     1     -11.423   9.236  71.452  1.00  0.00    -0.369 A  
HETATM    4  C   UNL     1     -12.549  10.050  71.330  1.00  0.00    -0.495 A  
HETATM    5  C   UNL     1     -12.661  10.945  70.263  1.00  0.00    -0.342 A  
HETATM    6  C   UNL     1     -11.629  11.058  69.322  1.00  0.00    -0.384 A  
HETATM    7  C   UNL     1     -10.378   9.370  70.540  1.00  0.00    -0.341 A  
HETATM    8  C   UNL     1     -10.481  10.273  69.481  1.00  0.00    -0.268 A  
BRANCH   6   9
HETATM    9  C   UNL     1     -11.780  11.911  68.085  1.00  0.00    -0.388 C  
BRANCH   9  10
HETATM   10  C   UNL     1     -10.990  13.242  68.071  1.00  0.00    -0.244 C  
HETATM   11  C   UNL     1     -11.810  14.347  67.398  1.00  0.00    -0.430 C  
BRANCH  10  12
HETATM   12  N   UNL     1     -10.621  13.712  69.424  1.00  0.00    -0.439 NA 
HETATM   13  H   UNL     1      -9.678  13.412  69.670  1.00  0.00     0.000 HD 
BRANCH  12  14
HETATM   14  C   UNL     1     -10.769  15.165  69.585  1.00  0.00    -0.278 C  
BRANCH  14  15
HETATM   15  C   UNL     1      -9.419  15.927  69.632  1.00  0.00    -0.148 C  
HETATM   16  H   UNL     1      -7.551  15.548  69.156  1.00  0.00     0.000 HD 
HETATM   17  O   UNL     1      -8.378  15.081  69.127  1.00  0.00    -0.184 OA 
BRANCH  15  18
HETATM   18  C   UNL     1      -9.490  17.210  68.814  1.00  0.00    -0.263 A  
HETATM   19  C   UNL     1      -8.318  17.904  68.442  1.00  0.00    -0.307 A  
HETATM   20  C   UNL     1      -8.373  19.066  67.664  1.00  0.00    -0.287 A  
HETATM   21  H   UNL     1     -10.618  20.997  66.242  1.00  0.00     0.000 HD 
HETATM   22  C   UNL     1      -9.626  19.531  67.248  1.00  0.00    -0.337 A  
HETATM   23  C   UNL     1     -10.727  17.705  68.383  1.00  0.00    -0.246 A  
HETATM   24  C   UNL     1     -10.793  18.856  67.596  1.00  0.00    -0.407 A  
HETATM   25  O   UNL     1      -9.768  20.681  66.524  1.00  0.00    -0.286 OA 
BRANCH  20  26
HETATM   26  N   UNL     1      -7.215  19.757  67.261  1.00  0.00    -0.224 N  
HETATM   27  H   UNL     1      -6.930  19.636  66.289  1.00  0.00     0.000 HD 
HETATM   28  O   UNL     1      -5.418  21.102  67.589  1.00  0.00    -0.249 OA 
HETATM   29  C   UNL     1      -6.431  20.568  68.026  1.00  0.00    -0.309 C  
ENDBRANCH  20  26
ENDBRANCH  15  18
ENDBRANCH  14  15
ENDBRANCH  12  14
ENDBRANCH  10  12
ENDBRANCH   9  10
ENDBRANCH   6   9
ENDBRANCH   2   3
TORSDOF 8
ENDMDL
MODEL      132
REMARK 921   NORMALIZED FREE ENERGY PREDICTED BY IDOCK:   -4.84 KCAL/MOL
REMARK 922        TOTAL FREE ENERGY PREDICTED BY IDOCK:   -8.59 KCAL/MOL
REMARK 923 INTER-LIGAND FREE ENERGY PREDICTED BY IDOCK:   -6.96 KCAL/MOL
REMARK 924 INTRA-LIGAND FREE ENERGY PREDICTED BY IDOCK:   -1.64 KCAL/MOL
REMARK 927      BINDING AFFINITY PREDICTED BY RF-SCORE:    0.00 PKD
ROOT
HETATM    1  C   UNL     1     -13.411  14.495  72.312  1.00  0.00    -0.403 C  
HETATM    2  O   UNL     1     -12.101  14.665  71.778  1.00  0.00    -0.342 OA 
ENDROOT
BRANCH   2   3
HETATM    3  C   UNL     1     -11.988  14.396  70.443  1.00  0.00    -0.325 A  
HETATM    4  C   UNL     1     -11.863  15.504  69.607  1.00  0.00    -0.384 A  
HETATM    5  C   UNL     1     -11.785  15.339  68.221  1.00  0.00    -0.320 A  
HETATM    6  C   UNL     1     -11.800  14.056  67.660  1.00  0.00    -0.430 A  
HETATM    7  C   UNL     1     -11.967  13.116  69.893  1.00  0.00    -0.387 A  
HETATM    8  C   UNL     1     -11.876  12.947  68.510  1.00  0.00    -0.350 A  
BRANCH   6   9
HETATM    9  C   UNL     1     -11.859  13.850  66.165  1.00  0.00    -0.422 C  
BRANCH   9  10
HETATM   10  C   UNL     1     -10.602  14.271  65.365  1.00  0.00    -0.354 C  
HETATM   11  C   UNL     1      -9.399  14.435  66.301  1.00  0.00    -0.261 C  
BRANCH  10  12
HETATM   12  N   UNL     1     -10.229  13.298  64.316  1.00  0.00    -0.640 NA 
HETATM   13  H   UNL     1      -9.224  13.125  64.319  1.00  0.00     0.000 HD 
BRANCH  12  14
HETATM   14  C   UNL     1     -10.979  12.039  64.412  1.00  0.00    -0.333 C  
BRANCH  14  15
HETATM   15  C   UNL     1     -10.084  10.798  64.666  1.00  0.00    -0.344 C  
HETATM   16  H   UNL     1      -8.264  10.232  64.189  1.00  0.00     0.000 HD 
HETATM   17  O   UNL     1      -8.813  10.992  64.033  1.00  0.00    -0.102 OA 
BRANCH  15  18
HETATM   18  C   UNL     1      -9.891  10.564  66.160  1.00  0.00    -0.271 A  
HETATM   19  C   UNL     1      -8.793  11.121  66.850  1.00  0.00    -0.157 A  
HETATM   20  C   UNL     1      -8.625  10.937  68.226  1.00  0.00    -0.139 A  
HETATM   21  H   UNL     1     -10.117   9.414  70.726  1.00  0.00     0.000 HD 
HETATM   22  C   UNL     1      -9.582  10.186  68.919  1.00  0.00    -0.184 A  
HETATM   23  C   UNL     1     -10.828   9.816  66.883  1.00  0.00    -0.120 A  
HETATM   24  C   UNL     1     -10.678   9.636  68.259  1.00  0.00    -0.262 A  
HETATM   25  O   UNL     1      -9.468   9.923  70.255  1.00  0.00    -0.232 OA 
BRANCH  20  26
HETATM   26  N   UNL     1      -7.552  11.506  68.936  1.00  0.00    -0.212 N  
HETATM   27  H   UNL     1      -6.872  10.856  69.330  1.00  0.00     0.000 HD 
HETATM   28  O   UNL     1      -6.368  13.230  69.819  1.00  0.00    -0.122 OA 
HETATM   29  C   UNL     1      -7.320  12.831  69.156  1.00  0.00     0.140 C  
ENDBRANCH  20  26
ENDBRANCH  15  18
ENDBRANCH  14  15
ENDBRANCH  12  14
ENDBRANCH  10  12
ENDBRANCH   9  10
ENDBRANCH   6   9
ENDBRANCH   2   3
TORSDOF 8
ENDMDL
MODEL      133
REMARK 921   NORMALIZED FREE ENERGY PREDICTED BY IDOCK:   -4.83 KCAL/MOL
REMARK 922        TOTAL FREE ENERGY PREDICTED BY IDOCK:   -8.58 KCAL/MOL
REMARK 923 INTER-LIGAND FREE ENERGY PREDICTED BY IDOCK:   -6.94 KCAL/MOL
REMARK 924 INTRA-LIGAND FREE ENERGY PREDICTED BY IDOCK:   -1.64 KCAL/MOL
REMARK 927      BINDING AFFINITY PREDICTED BY RF-SCORE:    0.00 PKD
ROOT
HETATM    1  C   UNL     1      -5.170  15.326  71.133  1.00  0.00    -0.116 C  
HETATM    2  O   UNL     1      -6.000  14.387  70.456  1.00  0.00    -0.155 OA 
ENDROOT
BRANCH   2   3
HETATM    3  C   UNL     1      -6.606  14.868  69.329  1.00  0.00    -0.131 A  
HETATM    4  C   UNL     1      -6.379  16.213  69.043  1.00  0.00    -0.148 A  
HETATM    5  C   UNL     1      -6.988  16.814  67.939  1.00  0.00    -0.156 A  
HETATM    6  C   UNL     1      -7.809  16.063  67.088  1.00  0.00    -0.244 A  
HETATM    7  C   UNL     1      -7.393  14.107  68.467  1.00  0.00    -0.120 A  
HETATM    8  C   UNL     1      -7.993  14.701  67.355  1.00  0.00    -0.223 A  
BRANCH   6   9
HETATM    9  C   UNL     1      -8.591  16.711  65.971  1.00  0.00    -0.229 C  
BRANCH   9  10
HETATM   10  C   UNL     1     -10.123  16.813  66.177  1.00  0.00    -0.345 C  
HETATM   11  C   UNL     1     -10.519  18.240  66.570  1.00  0.00    -0.378 C  
BRANCH  10  12
HETATM   12  N   UNL     1     -10.895  16.445  64.970  1.00  0.00    -0.629 NA 
HETATM   13  H   UNL     1     -10.454  16.815  64.128  1.00  0.00     0.000 HD 
BRANCH  12  14
HETATM   14  C   UNL     1     -11.118  14.998  64.853  1.00  0.00    -0.415 C  
BRANCH  14  15
HETATM   15  C   UNL     1     -12.191  14.452  65.830  1.00  0.00    -0.341 C  
HETATM   16  H   UNL     1     -13.930  13.550  65.677  1.00  0.00     0.000 HD 
HETATM   17  O   UNL     1     -13.272  13.884  65.079  1.00  0.00    -0.729 OA 
BRANCH  15  18
HETATM   18  C   UNL     1     -11.597  13.401  66.760  1.00  0.00    -0.404 A  
HETATM   19  C   UNL     1     -11.131  12.165  66.262  1.00  0.00    -0.353 A  
HETATM   20  C   UNL     1     -10.556  11.207  67.104  1.00  0.00    -0.244 A  
HETATM   21  H   UNL     1      -9.852  10.806  70.287  1.00  0.00     0.000 HD 
HETATM   22  C   UNL     1     -10.440  11.504  68.467  1.00  0.00    -0.208 A  
HETATM   23  C   UNL     1     -11.468  13.663  68.129  1.00  0.00    -0.348 A  
HETATM   24  C   UNL     1     -10.884  12.720  68.977  1.00  0.00    -0.192 A  
HETATM   25  O   UNL     1      -9.930  10.605  69.362  1.00  0.00    -0.216 OA 
BRANCH  20  26
HETATM   26  N   UNL     1     -10.062   9.981  66.622  1.00  0.00    -0.217 N  
HETATM   27  H   UNL     1     -10.365   9.143  67.118  1.00  0.00     0.000 HD 
HETATM   28  O   UNL     1      -8.822   8.676  65.240  1.00  0.00    -0.187 OA 
HETATM   29  C   UNL     1      -9.224   9.788  65.565  1.00  0.00    -0.215 C  
ENDBRANCH  20  26
ENDBRANCH  15  18
ENDBRANCH  14  15
ENDBRANCH  12  14
ENDBRANCH  10  12
ENDBRANCH   9  10
ENDBRANCH   6   9
ENDBRANCH   2   3
TORSDOF 8
ENDMDL
MODEL      134
REMARK 921   NORMALIZED FREE ENERGY PREDICTED BY IDOCK:   -4.83 KCAL/MOL
REMARK 922        TOTAL FREE ENERGY PREDICTED BY IDOCK:   -8.58 KCAL/MOL
REMARK 923 INTER-LIGAND FREE ENERGY PREDICTED BY IDOCK:   -7.33 KCAL/MOL
REMARK 924 INTRA-LIGAND FREE ENERGY PREDICTED BY IDOCK:   -1.25 KCAL/MOL
REMARK 927      BINDING AFFINITY PREDICTED BY RF-SCORE:    0.00 PKD
ROOT
HETATM    1  C   UNL     1     -12.897  11.895  63.389  1.00  0.00    -0.256 C  
HETATM    2  O   UNL     1     -13.325  12.588  64.557  1.00  0.00    -0.780 OA 
ENDROOT
BRANCH   2   3
HETATM    3  C   UNL     1     -12.344  13.295  65.195  1.00  0.00    -0.466 A  
HETATM    4  C   UNL     1     -11.286  13.725  64.396  1.00  0.00    -0.364 A  
HETATM    5  C   UNL     1     -10.211  14.417  64.958  1.00  0.00    -0.406 A  
HETATM    6  C   UNL     1     -10.200  14.715  66.327  1.00  0.00    -0.302 A  
HETATM    7  C   UNL     1     -12.356  13.621  66.549  1.00  0.00    -0.412 A  
HETATM    8  C   UNL     1     -11.290  14.324  67.113  1.00  0.00    -0.352 A  
BRANCH   6   9
HETATM    9  C   UNL     1      -8.993  15.336  66.989  1.00  0.00    -0.254 C  
BRANCH   9  10
HETATM   10  C   UNL     1      -7.866  14.362  67.409  1.00  0.00    -0.190 C  
HETATM   11  C   UNL     1      -7.875  14.151  68.927  1.00  0.00    -0.076 C  
BRANCH  10  12
HETATM   12  N   UNL     1      -7.977  13.035  66.767  1.00  0.00    -0.389 NA 
HETATM   13  H   UNL     1      -7.126  12.806  66.253  1.00  0.00     0.000 HD 
BRANCH  12  14
HETATM   14  C   UNL     1      -8.320  11.968  67.715  1.00  0.00    -0.156 C  
BRANCH  14  15
HETATM   15  C   UNL     1      -9.547  11.122  67.284  1.00  0.00    -0.165 C  
HETATM   16  H   UNL     1      -9.858   9.504  66.214  1.00  0.00     0.000 HD 
HETATM   17  O   UNL     1      -9.106  10.022  66.478  1.00  0.00    -0.145 OA 
BRANCH  15  18
HETATM   18  C   UNL     1     -10.305  10.604  68.501  1.00  0.00    -0.202 A  
HETATM   19  C   UNL     1     -10.216   9.251  68.894  1.00  0.00    -0.217 A  
HETATM   20  C   UNL     1     -10.884   8.774  70.027  1.00  0.00    -0.223 A  
HETATM   21  H   UNL     1     -12.880   9.892  72.385  1.00  0.00     0.000 HD 
HETATM   22  C   UNL     1     -11.645   9.676  70.780  1.00  0.00    -0.321 A  
HETATM   23  C   UNL     1     -11.078  11.478  69.275  1.00  0.00    -0.305 A  
HETATM   24  C   UNL     1     -11.738  11.016  70.415  1.00  0.00    -0.437 A  
HETATM   25  O   UNL     1     -12.363   9.280  71.874  1.00  0.00    -0.351 OA 
BRANCH  20  26
HETATM   26  N   UNL     1     -10.786   7.435  70.450  1.00  0.00    -0.232 N  
HETATM   27  H   UNL     1     -11.664   6.961  70.662  1.00  0.00     0.000 HD 
HETATM   28  O   UNL     1      -9.664   5.546  71.016  1.00  0.00    -0.165 OA 
HETATM   29  C   UNL     1      -9.648   6.702  70.608  1.00  0.00    -0.169 C  
ENDBRANCH  20  26
ENDBRANCH  15  18
ENDBRANCH  14  15
ENDBRANCH  12  14
ENDBRANCH  10  12
ENDBRANCH   9  10
ENDBRANCH   6   9
ENDBRANCH   2   3
TORSDOF 8
ENDMDL
MODEL      135
REMARK 921   NORMALIZED FREE ENERGY PREDICTED BY IDOCK:   -4.83 KCAL/MOL
REMARK 922        TOTAL FREE ENERGY PREDICTED BY IDOCK:   -8.58 KCAL/MOL
REMARK 923 INTER-LIGAND FREE ENERGY PREDICTED BY IDOCK:   -7.71 KCAL/MOL
REMARK 924 INTRA-LIGAND FREE ENERGY PREDICTED BY IDOCK:   -0.86 KCAL/MOL
REMARK 927      BINDING AFFINITY PREDICTED BY RF-SCORE:    0.00 PKD
ROOT
HETATM    1  C   UNL     1     -10.488  19.488  65.837  1.00  0.00    -0.491 C  
HETATM    2  O   UNL     1      -9.119  19.646  66.195  1.00  0.00    -0.366 OA 
ENDROOT
BRANCH   2   3
HETATM    3  C   UNL     1      -8.546  18.545  66.769  1.00  0.00    -0.284 A  
HETATM    4  C   UNL     1      -8.853  18.329  68.111  1.00  0.00    -0.307 A  
HETATM    5  C   UNL     1      -8.285  17.257  68.803  1.00  0.00    -0.231 A  
HETATM    6  C   UNL     1      -7.424  16.368  68.146  1.00  0.00    -0.152 A  
HETATM    7  C   UNL     1      -7.720  17.644  66.101  1.00  0.00    -0.293 A  
HETATM    8  C   UNL     1      -7.160  16.564  66.785  1.00  0.00    -0.253 A  
BRANCH   6   9
HETATM    9  C   UNL     1      -6.686  15.285  68.896  1.00  0.00    -0.115 C  
BRANCH   9  10
HETATM   10  C   UNL     1      -7.002  13.827  68.482  1.00  0.00    -0.103 C  
HETATM   11  C   UNL     1      -6.086  12.847  69.222  1.00  0.00    -0.099 C  
BRANCH  10  12
HETATM   12  N   UNL     1      -8.402  13.436  68.759  1.00  0.00    -0.354 NA 
HETATM   13  H   UNL     1      -8.904  14.189  69.229  1.00  0.00     0.000 HD 
BRANCH  12  14
HETATM   14  C   UNL     1      -9.121  12.997  67.556  1.00  0.00    -0.191 C  
BRANCH  14  15
HETATM   15  C   UNL     1     -10.635  13.332  67.579  1.00  0.00    -0.246 C  
HETATM   16  H   UNL     1     -12.179  13.031  66.401  1.00  0.00     0.000 HD 
HETATM   17  O   UNL     1     -11.252  12.825  66.387  1.00  0.00    -0.277 OA 
BRANCH  15  18
HETATM   18  C   UNL     1     -11.308  12.731  68.807  1.00  0.00    -0.332 A  
HETATM   19  C   UNL     1     -11.967  13.548  69.751  1.00  0.00    -0.405 A  
HETATM   20  C   UNL     1     -12.613  13.001  70.865  1.00  0.00    -0.280 A  
HETATM   21  H   UNL     1     -13.163  10.059  72.219  1.00  0.00     0.000 HD 
HETATM   22  C   UNL     1     -12.602  11.611  71.026  1.00  0.00    -0.331 A  
HETATM   23  C   UNL     1     -11.313  11.344  69.001  1.00  0.00    -0.345 A  
HETATM   24  C   UNL     1     -11.965  10.787  70.102  1.00  0.00    -0.432 A  
HETATM   25  O   UNL     1     -13.171  11.003  72.110  1.00  0.00    -0.481 OA 
BRANCH  20  26
HETATM   26  N   UNL     1     -13.298  13.797  71.803  1.00  0.00    -0.367 N  
HETATM   27  H   UNL     1     -13.822  13.300  72.523  1.00  0.00     0.000 HD 
HETATM   28  O   UNL     1     -13.995  15.763  72.695  1.00  0.00    -0.580 OA 
HETATM   29  C   UNL     1     -13.339  15.158  71.854  1.00  0.00    -0.399 C  
ENDBRANCH  20  26
ENDBRANCH  15  18
ENDBRANCH  14  15
ENDBRANCH  12  14
ENDBRANCH  10  12
ENDBRANCH   9  10
ENDBRANCH   6   9
ENDBRANCH   2   3
TORSDOF 8
ENDMDL
MODEL      136
REMARK 921   NORMALIZED FREE ENERGY PREDICTED BY IDOCK:   -4.81 KCAL/MOL
REMARK 922        TOTAL FREE ENERGY PREDICTED BY IDOCK:   -8.55 KCAL/MOL
REMARK 923 INTER-LIGAND FREE ENERGY PREDICTED BY IDOCK:   -7.25 KCAL/MOL
REMARK 924 INTRA-LIGAND FREE ENERGY PREDICTED BY IDOCK:   -1.30 KCAL/MOL
REMARK 927      BINDING AFFINITY PREDICTED BY RF-SCORE:    0.00 PKD
ROOT
HETATM    1  C   UNL     1      -6.516  20.655  64.939  1.00  0.00    -0.267 C  
HETATM    2  O   UNL     1      -7.060  20.701  66.255  1.00  0.00    -0.234 OA 
ENDROOT
BRANCH   2   3
HETATM    3  C   UNL     1      -7.994  19.738  66.522  1.00  0.00    -0.319 A  
HETATM    4  C   UNL     1      -9.187  20.188  67.086  1.00  0.00    -0.506 A  
HETATM    5  C   UNL     1     -10.188  19.279  67.438  1.00  0.00    -0.514 A  
HETATM    6  C   UNL     1     -10.018  17.910  67.197  1.00  0.00    -0.327 A  
HETATM    7  C   UNL     1      -7.833  18.383  66.247  1.00  0.00    -0.273 A  
HETATM    8  C   UNL     1      -8.837  17.473  66.585  1.00  0.00    -0.284 A  
BRANCH   6   9
HETATM    9  C   UNL     1     -11.018  16.892  67.691  1.00  0.00    -0.165 C  
BRANCH   9  10
HETATM   10  C   UNL     1     -10.833  16.401  69.147  1.00  0.00    -0.329 C  
HETATM   11  C   UNL     1     -11.682  15.152  69.406  1.00  0.00    -0.355 C  
BRANCH  10  12
HETATM   12  N   UNL     1      -9.429  16.070  69.474  1.00  0.00    -0.226 NA 
HETATM   13  H   UNL     1      -9.168  16.450  70.384  1.00  0.00     0.000 HD 
BRANCH  12  14
HETATM   14  C   UNL     1      -9.151  14.629  69.407  1.00  0.00     0.135 C  
BRANCH  14  15
HETATM   15  C   UNL     1      -8.147  14.240  68.290  1.00  0.00    -0.143 C  
HETATM   16  H   UNL     1      -6.383  13.381  68.196  1.00  0.00     0.000 HD 
HETATM   17  O   UNL     1      -6.998  13.619  68.880  1.00  0.00    -0.105 OA 
BRANCH  15  18
HETATM   18  C   UNL     1      -8.791  13.293  67.285  1.00  0.00    -0.216 A  
HETATM   19  C   UNL     1      -9.661  13.775  66.283  1.00  0.00    -0.297 A  
HETATM   20  C   UNL     1     -10.232  12.916  65.337  1.00  0.00    -0.287 A  
HETATM   21  H   UNL     1     -10.251   9.719  64.579  1.00  0.00     0.000 HD 
HETATM   22  C   UNL     1      -9.915  11.554  65.397  1.00  0.00    -0.248 A  
HETATM   23  C   UNL     1      -8.499  11.924  67.318  1.00  0.00    -0.172 A  
HETATM   24  C   UNL     1      -9.052  11.061  66.372  1.00  0.00    -0.191 A  
HETATM   25  O   UNL     1     -10.466  10.644  64.538  1.00  0.00    -0.345 OA 
BRANCH  20  26
HETATM   26  N   UNL     1     -11.080  13.380  64.314  1.00  0.00    -0.449 N  
HETATM   27  H   UNL     1     -10.918  13.000  63.382  1.00  0.00     0.000 HD 
HETATM   28  O   UNL     1     -12.760  14.651  63.470  1.00  0.00    -0.670 OA 
HETATM   29  C   UNL     1     -12.095  14.283  64.432  1.00  0.00    -0.468 C  
ENDBRANCH  20  26
ENDBRANCH  15  18
ENDBRANCH  14  15
ENDBRANCH  12  14
ENDBRANCH  10  12
ENDBRANCH   9  10
ENDBRANCH   6   9
ENDBRANCH   2   3
TORSDOF 8
ENDMDL
MODEL      137
REMARK 921   NORMALIZED FREE ENERGY PREDICTED BY IDOCK:   -4.81 KCAL/MOL
REMARK 922        TOTAL FREE ENERGY PREDICTED BY IDOCK:   -8.55 KCAL/MOL
REMARK 923 INTER-LIGAND FREE ENERGY PREDICTED BY IDOCK:   -7.82 KCAL/MOL
REMARK 924 INTRA-LIGAND FREE ENERGY PREDICTED BY IDOCK:   -0.73 KCAL/MOL
REMARK 927      BINDING AFFINITY PREDICTED BY RF-SCORE:    0.00 PKD
ROOT
HETATM    1  C   UNL     1     -10.577  18.990  66.276  1.00  0.00    -0.412 C  
HETATM    2  O   UNL     1     -10.229  17.836  65.516  1.00  0.00    -0.589 OA 
ENDROOT
BRANCH   2   3
HETATM    3  C   UNL     1     -10.125  16.683  66.242  1.00  0.00    -0.328 A  
HETATM    4  C   UNL     1      -9.043  15.861  65.927  1.00  0.00    -0.304 A  
HETATM    5  C   UNL     1      -8.871  14.639  66.580  1.00  0.00    -0.240 A  
HETATM    6  C   UNL     1      -9.765  14.239  67.582  1.00  0.00    -0.220 A  
HETATM    7  C   UNL     1     -10.996  16.308  67.262  1.00  0.00    -0.144 A  
HETATM    8  C   UNL     1     -10.820  15.093  67.926  1.00  0.00    -0.291 A  
BRANCH   6   9
HETATM    9  C   UNL     1      -9.688  12.867  68.207  1.00  0.00    -0.217 C  
BRANCH   9  10
HETATM   10  C   UNL     1     -11.038  12.207  68.579  1.00  0.00    -0.252 C  
HETATM   11  C   UNL     1     -11.272  10.949  67.737  1.00  0.00    -0.384 C  
BRANCH  10  12
HETATM   12  N   UNL     1     -11.120  11.820  70.004  1.00  0.00    -0.443 NA 
HETATM   13  H   UNL     1     -11.292  12.634  70.594  1.00  0.00     0.000 HD 
BRANCH  12  14
HETATM   14  C   UNL     1     -12.116  10.770  70.255  1.00  0.00    -0.348 C  
BRANCH  14  15
HETATM   15  C   UNL     1     -12.068  10.196  71.695  1.00  0.00    -0.285 C  
HETATM   16  H   UNL     1     -13.334   9.968  73.181  1.00  0.00     0.000 HD 
HETATM   17  O   UNL     1     -13.363  10.319  72.298  1.00  0.00    -0.407 OA 
BRANCH  15  18
HETATM   18  C   UNL     1     -11.636   8.735  71.685  1.00  0.00    -0.390 A  
HETATM   19  C   UNL     1     -11.526   8.015  70.476  1.00  0.00    -0.192 A  
HETATM   20  C   UNL     1     -11.101   6.682  70.455  1.00  0.00    -0.307 A  
HETATM   21  H   UNL     1     -10.167   4.343  72.564  1.00  0.00     0.000 HD 
HETATM   22  C   UNL     1     -10.772   6.069  71.670  1.00  0.00    -0.251 A  
HETATM   23  C   UNL     1     -11.302   8.090  72.882  1.00  0.00    -0.364 A  
HETATM   24  C   UNL     1     -10.863   6.765  72.872  1.00  0.00    -0.304 A  
HETATM   25  O   UNL     1     -10.390   4.759  71.740  1.00  0.00    -0.200 OA 
BRANCH  20  26
HETATM   26  N   UNL     1     -10.960   5.956  69.258  1.00  0.00    -0.348 N  
HETATM   27  H   UNL     1     -10.841   4.947  69.351  1.00  0.00     0.000 HD 
HETATM   28  O   UNL     1     -10.802   5.737  67.005  1.00  0.00    -0.291 OA 
HETATM   29  C   UNL     1     -10.966   6.451  67.989  1.00  0.00    -0.311 C  
ENDBRANCH  20  26
ENDBRANCH  15  18
ENDBRANCH  14  15
ENDBRANCH  12  14
ENDBRANCH  10  12
ENDBRANCH   9  10
ENDBRANCH   6   9
ENDBRANCH   2   3
TORSDOF 8
ENDMDL
MODEL      138
REMARK 921   NORMALIZED FREE ENERGY PREDICTED BY IDOCK:   -4.80 KCAL/MOL
REMARK 922        TOTAL FREE ENERGY PREDICTED BY IDOCK:   -8.53 KCAL/MOL
REMARK 923 INTER-LIGAND FREE ENERGY PREDICTED BY IDOCK:   -7.26 KCAL/MOL
REMARK 924 INTRA-LIGAND FREE ENERGY PREDICTED BY IDOCK:   -1.27 KCAL/MOL
REMARK 927      BINDING AFFINITY PREDICTED BY RF-SCORE:    0.00 PKD
ROOT
HETATM    1  C   UNL     1     -10.877  19.272  66.149  1.00  0.00    -0.263 C  
HETATM    2  O   UNL     1      -9.480  19.277  66.428  1.00  0.00    -0.339 OA 
ENDROOT
BRANCH   2   3
HETATM    3  C   UNL     1      -8.984  18.088  66.887  1.00  0.00    -0.262 A  
HETATM    4  C   UNL     1      -8.986  17.922  68.272  1.00  0.00    -0.277 A  
HETATM    5  C   UNL     1      -8.461  16.762  68.845  1.00  0.00    -0.217 A  
HETATM    6  C   UNL     1      -7.955  15.738  68.034  1.00  0.00    -0.141 A  
HETATM    7  C   UNL     1      -8.516  17.059  66.074  1.00  0.00    -0.171 A  
HETATM    8  C   UNL     1      -8.002  15.892  66.644  1.00  0.00    -0.270 A  
BRANCH   6   9
HETATM    9  C   UNL     1      -7.255  14.538  68.624  1.00  0.00    -0.124 C  
BRANCH   9  10
HETATM   10  C   UNL     1      -7.764  13.151  68.160  1.00  0.00    -0.143 C  
HETATM   11  C   UNL     1      -6.805  12.046  68.615  1.00  0.00    -0.091 C  
BRANCH  10  12
HETATM   12  N   UNL     1      -9.110  12.825  68.679  1.00  0.00    -0.397 NA 
HETATM   13  H   UNL     1      -9.427  13.532  69.342  1.00  0.00     0.000 HD 
BRANCH  12  14
HETATM   14  C   UNL     1     -10.101  12.624  67.613  1.00  0.00    -0.218 C  
BRANCH  14  15
HETATM   15  C   UNL     1     -11.224  13.694  67.597  1.00  0.00    -0.279 C  
HETATM   16  H   UNL     1     -12.966  13.918  66.716  1.00  0.00     0.000 HD 
HETATM   17  O   UNL     1     -12.278  13.262  66.726  1.00  0.00    -0.363 OA 
BRANCH  15  18
HETATM   18  C   UNL     1     -11.772  13.929  68.999  1.00  0.00    -0.378 A  
HETATM   19  C   UNL     1     -12.218  12.854  69.798  1.00  0.00    -0.227 A  
HETATM   20  C   UNL     1     -12.693  13.058  71.098  1.00  0.00    -0.283 A  
HETATM   21  H   UNL     1     -13.213  15.538  73.189  1.00  0.00     0.000 HD 
HETATM   22  C   UNL     1     -12.711  14.364  71.603  1.00  0.00    -0.344 A  
HETATM   23  C   UNL     1     -11.806  15.222  69.535  1.00  0.00    -0.368 A  
HETATM   24  C   UNL     1     -12.266  15.436  70.835  1.00  0.00    -0.425 A  
HETATM   25  O   UNL     1     -13.201  14.652  72.846  1.00  0.00    -0.462 OA 
BRANCH  20  26
HETATM   26  N   UNL     1     -13.118  11.997  71.919  1.00  0.00    -0.435 N  
HETATM   27  H   UNL     1     -13.708  12.245  72.712  1.00  0.00     0.000 HD 
HETATM   28  O   UNL     1     -13.219   9.823  72.562  1.00  0.00    -0.338 OA 
HETATM   29  C   UNL     1     -12.827  10.674  71.771  1.00  0.00    -0.444 C  
ENDBRANCH  20  26
ENDBRANCH  15  18
ENDBRANCH  14  15
ENDBRANCH  12  14
ENDBRANCH  10  12
ENDBRANCH   9  10
ENDBRANCH   6   9
ENDBRANCH   2   3
TORSDOF 8
ENDMDL
MODEL      139
REMARK 921   NORMALIZED FREE ENERGY PREDICTED BY IDOCK:   -4.79 KCAL/MOL
REMARK 922        TOTAL FREE ENERGY PREDICTED BY IDOCK:   -8.53 KCAL/MOL
REMARK 923 INTER-LIGAND FREE ENERGY PREDICTED BY IDOCK:   -7.81 KCAL/MOL
REMARK 924 INTRA-LIGAND FREE ENERGY PREDICTED BY IDOCK:   -0.72 KCAL/MOL
REMARK 927      BINDING AFFINITY PREDICTED BY RF-SCORE:    0.00 PKD
ROOT
HETATM    1  C   UNL     1      -5.751  19.954  71.779  1.00  0.00    -0.353 C  
HETATM    2  O   UNL     1      -5.159  18.897  71.029  1.00  0.00    -0.234 OA 
ENDROOT
BRANCH   2   3
HETATM    3  C   UNL     1      -5.819  18.575  69.876  1.00  0.00    -0.236 A  
HETATM    4  C   UNL     1      -6.509  19.616  69.258  1.00  0.00    -0.365 A  
HETATM    5  C   UNL     1      -7.252  19.382  68.098  1.00  0.00    -0.322 A  
HETATM    6  C   UNL     1      -7.286  18.104  67.526  1.00  0.00    -0.205 A  
HETATM    7  C   UNL     1      -5.819  17.310  69.291  1.00  0.00    -0.203 A  
HETATM    8  C   UNL     1      -6.550  17.075  68.125  1.00  0.00    -0.149 A  
BRANCH   6   9
HETATM    9  C   UNL     1      -8.188  17.786  66.357  1.00  0.00    -0.290 C  
BRANCH   9  10
HETATM   10  C   UNL     1      -9.654  17.428  66.702  1.00  0.00    -0.274 C  
HETATM   11  C   UNL     1     -10.625  18.281  65.879  1.00  0.00    -0.274 C  
BRANCH  10  12
HETATM   12  N   UNL     1      -9.978  16.006  66.452  1.00  0.00    -0.277 NA 
HETATM   13  H   UNL     1     -10.490  15.605  67.237  1.00  0.00     0.000 HD 
BRANCH  12  14
HETATM   14  C   UNL     1     -10.701  15.798  65.190  1.00  0.00    -0.435 C  
BRANCH  14  15
HETATM   15  C   UNL     1     -11.877  14.793  65.305  1.00  0.00    -0.276 C  
HETATM   16  H   UNL     1     -13.198  14.001  64.086  1.00  0.00     0.000 HD 
HETATM   17  O   UNL     1     -12.478  14.616  64.015  1.00  0.00    -0.796 OA 
BRANCH  15  18
HETATM   18  C   UNL     1     -11.395  13.451  65.842  1.00  0.00    -0.327 A  
HETATM   19  C   UNL     1     -11.746  13.015  67.138  1.00  0.00    -0.439 A  
HETATM   20  C   UNL     1     -11.334  11.771  67.627  1.00  0.00    -0.302 A  
HETATM   21  H   UNL     1      -9.562   9.184  66.649  1.00  0.00     0.000 HD 
HETATM   22  C   UNL     1     -10.564  10.950  66.795  1.00  0.00    -0.259 A  
HETATM   23  C   UNL     1     -10.621  12.606  65.038  1.00  0.00    -0.329 A  
HETATM   24  C   UNL     1     -10.215  11.357  65.510  1.00  0.00    -0.312 A  
HETATM   25  O   UNL     1     -10.085   9.740  67.213  1.00  0.00    -0.183 OA 
BRANCH  20  26
HETATM   26  N   UNL     1     -11.696  11.308  68.906  1.00  0.00    -0.316 N  
HETATM   27  H   UNL     1     -11.680  10.297  69.044  1.00  0.00     0.000 HD 
HETATM   28  O   UNL     1     -12.397  11.559  71.049  1.00  0.00    -0.371 OA 
HETATM   29  C   UNL     1     -12.066  12.060  69.980  1.00  0.00    -0.280 C  
ENDBRANCH  20  26
ENDBRANCH  15  18
ENDBRANCH  14  15
ENDBRANCH  12  14
ENDBRANCH  10  12
ENDBRANCH   9  10
ENDBRANCH   6   9
ENDBRANCH   2   3
TORSDOF 8
ENDMDL
MODEL      140
REMARK 921   NORMALIZED FREE ENERGY PREDICTED BY IDOCK:   -4.79 KCAL/MOL
REMARK 922        TOTAL FREE ENERGY PREDICTED BY IDOCK:   -8.52 KCAL/MOL
REMARK 923 INTER-LIGAND FREE ENERGY PREDICTED BY IDOCK:   -7.24 KCAL/MOL
REMARK 924 INTRA-LIGAND FREE ENERGY PREDICTED BY IDOCK:   -1.28 KCAL/MOL
REMARK 927      BINDING AFFINITY PREDICTED BY RF-SCORE:    0.00 PKD
ROOT
HETATM    1  C   UNL     1      -7.326   8.215  65.170  1.00  0.00    -0.078 C  
HETATM    2  O   UNL     1      -8.443   8.476  64.325  1.00  0.00    -0.144 OA 
ENDROOT
BRANCH   2   3
HETATM    3  C   UNL     1      -8.976   9.728  64.452  1.00  0.00    -0.245 A  
HETATM    4  C   UNL     1      -9.522  10.277  63.292  1.00  0.00    -0.342 A  
HETATM    5  C   UNL     1     -10.052  11.569  63.304  1.00  0.00    -0.439 A  
HETATM    6  C   UNL     1     -10.070  12.316  64.488  1.00  0.00    -0.280 A  
HETATM    7  C   UNL     1      -9.023  10.452  65.641  1.00  0.00    -0.198 A  
HETATM    8  C   UNL     1      -9.564  11.739  65.659  1.00  0.00    -0.240 A  
BRANCH   6   9
HETATM    9  C   UNL     1     -10.505  13.762  64.503  1.00  0.00    -0.378 C  
BRANCH   9  10
HETATM   10  C   UNL     1     -11.889  14.054  65.134  1.00  0.00    -0.365 C  
HETATM   11  C   UNL     1     -12.825  12.854  64.955  1.00  0.00    -0.348 C  
BRANCH  10  12
HETATM   12  N   UNL     1     -11.815  14.359  66.579  1.00  0.00    -0.396 NA 
HETATM   13  H   UNL     1     -12.345  15.201  66.801  1.00  0.00     0.000 HD 
BRANCH  12  14
HETATM   14  C   UNL     1     -12.237  13.234  67.423  1.00  0.00    -0.186 C  
BRANCH  14  15
HETATM   15  C   UNL     1     -11.578  13.228  68.828  1.00  0.00    -0.312 C  
HETATM   16  H   UNL     1     -11.864  14.148  70.540  1.00  0.00     0.000 HD 
HETATM   17  O   UNL     1     -12.268  14.151  69.680  1.00  0.00    -0.326 OA 
BRANCH  15  18
HETATM   18  C   UNL     1     -11.612  11.832  69.438  1.00  0.00    -0.386 A  
HETATM   19  C   UNL     1     -11.023  10.732  68.779  1.00  0.00    -0.295 A  
HETATM   20  C   UNL     1     -11.023   9.454  69.347  1.00  0.00    -0.145 A  
HETATM   21  H   UNL     1     -12.103   7.943  72.056  1.00  0.00     0.000 HD 
HETATM   22  C   UNL     1     -11.618   9.283  70.602  1.00  0.00    -0.252 A  
HETATM   23  C   UNL     1     -12.202  11.625  70.691  1.00  0.00    -0.461 A  
HETATM   24  C   UNL     1     -12.196  10.356  71.273  1.00  0.00    -0.491 A  
HETATM   25  O   UNL     1     -11.698   8.059  71.205  1.00  0.00    -0.281 OA 
BRANCH  20  26
HETATM   26  N   UNL     1     -10.417   8.351  68.717  1.00  0.00    -0.295 N  
HETATM   27  H   UNL     1      -9.705   7.856  69.254  1.00  0.00     0.000 HD 
HETATM   28  O   UNL     1     -10.068   6.917  66.992  1.00  0.00    -0.183 OA 
HETATM   29  C   UNL     1     -10.676   7.870  67.468  1.00  0.00    -0.181 C  
ENDBRANCH  20  26
ENDBRANCH  15  18
ENDBRANCH  14  15
ENDBRANCH  12  14
ENDBRANCH  10  12
ENDBRANCH   9  10
ENDBRANCH   6   9
ENDBRANCH   2   3
TORSDOF 8
ENDMDL
MODEL      141
REMARK 921   NORMALIZED FREE ENERGY PREDICTED BY IDOCK:   -4.78 KCAL/MOL
REMARK 922        TOTAL FREE ENERGY PREDICTED BY IDOCK:   -8.51 KCAL/MOL
REMARK 923 INTER-LIGAND FREE ENERGY PREDICTED BY IDOCK:   -7.16 KCAL/MOL
REMARK 924 INTRA-LIGAND FREE ENERGY PREDICTED BY IDOCK:   -1.35 KCAL/MOL
REMARK 927      BINDING AFFINITY PREDICTED BY RF-SCORE:    0.00 PKD
ROOT
HETATM    1  C   UNL     1      -5.480  12.240  70.689  1.00  0.00    -0.164 C  
HETATM    2  O   UNL     1      -5.490  12.862  69.407  1.00  0.00    -0.074 OA 
ENDROOT
BRANCH   2   3
HETATM    3  C   UNL     1      -6.629  13.562  69.120  1.00  0.00    -0.109 A  
HETATM    4  C   UNL     1      -7.512  12.948  68.233  1.00  0.00    -0.125 A  
HETATM    5  C   UNL     1      -8.684  13.599  67.839  1.00  0.00    -0.184 A  
HETATM    6  C   UNL     1      -9.000  14.861  68.357  1.00  0.00    -0.183 A  
HETATM    7  C   UNL     1      -6.955  14.801  69.665  1.00  0.00    -0.172 A  
HETATM    8  C   UNL     1      -8.132  15.448  69.284  1.00  0.00    -0.246 A  
BRANCH   6   9
HETATM    9  C   UNL     1     -10.183  15.649  67.847  1.00  0.00    -0.239 C  
BRANCH   9  10
HETATM   10  C   UNL     1      -9.895  16.661  66.712  1.00  0.00    -0.273 C  
HETATM   11  C   UNL     1      -8.517  16.398  66.094  1.00  0.00    -0.329 C  
BRANCH  10  12
HETATM   12  N   UNL     1     -10.895  16.613  65.624  1.00  0.00    -0.210 NA 
HETATM   13  H   UNL     1     -10.877  17.471  65.073  1.00  0.00     0.000 HD 
BRANCH  12  14
HETATM   14  C   UNL     1     -10.746  15.433  64.761  1.00  0.00    -0.314 C  
BRANCH  14  15
HETATM   15  C   UNL     1     -11.873  14.384  64.940  1.00  0.00    -0.417 C  
HETATM   16  H   UNL     1     -13.317  13.640  63.834  1.00  0.00     0.000 HD 
HETATM   17  O   UNL     1     -12.626  14.283  63.724  1.00  0.00    -0.821 OA 
BRANCH  15  18
HETATM   18  C   UNL     1     -11.296  13.022  65.308  1.00  0.00    -0.325 A  
HETATM   19  C   UNL     1     -11.653  12.380  66.514  1.00  0.00    -0.447 A  
HETATM   20  C   UNL     1     -11.151  11.116  66.844  1.00  0.00    -0.247 A  
HETATM   21  H   UNL     1      -9.129   8.846  65.600  1.00  0.00     0.000 HD 
HETATM   22  C   UNL     1     -10.284  10.487  65.943  1.00  0.00    -0.245 A  
HETATM   23  C   UNL     1     -10.424  12.366  64.431  1.00  0.00    -0.371 A  
HETATM   24  C   UNL     1      -9.928  11.099  64.745  1.00  0.00    -0.339 A  
HETATM   25  O   UNL     1      -9.717   9.273  66.212  1.00  0.00    -0.228 OA 
BRANCH  20  26
HETATM   26  N   UNL     1     -11.516  10.449  68.028  1.00  0.00    -0.484 N  
HETATM   27  H   UNL     1     -11.566   9.431  67.979  1.00  0.00     0.000 HD 
HETATM   28  O   UNL     1     -12.150  10.343  70.204  1.00  0.00    -0.275 OA 
HETATM   29  C   UNL     1     -11.809  11.011  69.234  1.00  0.00    -0.340 C  
ENDBRANCH  20  26
ENDBRANCH  15  18
ENDBRANCH  14  15
ENDBRANCH  12  14
ENDBRANCH  10  12
ENDBRANCH   9  10
ENDBRANCH   6   9
ENDBRANCH   2   3
TORSDOF 8
ENDMDL
MODEL      142
REMARK 921   NORMALIZED FREE ENERGY PREDICTED BY IDOCK:   -4.76 KCAL/MOL
REMARK 922        TOTAL FREE ENERGY PREDICTED BY IDOCK:   -8.48 KCAL/MOL
REMARK 923 INTER-LIGAND FREE ENERGY PREDICTED BY IDOCK:   -7.92 KCAL/MOL
REMARK 924 INTRA-LIGAND FREE ENERGY PREDICTED BY IDOCK:   -0.56 KCAL/MOL
REMARK 927      BINDING AFFINITY PREDICTED BY RF-SCORE:    0.00 PKD
ROOT
HETATM    1  C   UNL     1     -11.090   5.662  73.302  1.00  0.00    -0.242 C  
HETATM    2  O   UNL     1     -10.406   6.907  73.407  1.00  0.00    -0.243 OA 
ENDROOT
BRANCH   2   3
HETATM    3  C   UNL     1     -10.877   7.889  72.581  1.00  0.00    -0.364 A  
HETATM    4  C   UNL     1     -12.219   8.229  72.744  1.00  0.00    -0.166 A  
HETATM    5  C   UNL     1     -12.809   9.191  71.920  1.00  0.00    -0.466 A  
HETATM    6  C   UNL     1     -12.050   9.847  70.943  1.00  0.00    -0.431 A  
HETATM    7  C   UNL     1     -10.108   8.564  71.636  1.00  0.00    -0.338 A  
HETATM    8  C   UNL     1     -10.692   9.535  70.820  1.00  0.00    -0.391 A  
BRANCH   6   9
HETATM    9  C   UNL     1     -12.689  10.786  69.947  1.00  0.00    -0.097 C  
BRANCH   9  10
HETATM   10  C   UNL     1     -12.646  12.292  70.301  1.00  0.00     0.040 C  
HETATM   11  C   UNL     1     -12.986  12.507  71.780  1.00  0.00    -0.419 C  
BRANCH  10  12
HETATM   12  N   UNL     1     -11.328  12.911  70.046  1.00  0.00    -0.500 NA 
HETATM   13  H   UNL     1     -10.629  12.565  70.704  1.00  0.00     0.000 HD 
BRANCH  12  14
HETATM   14  C   UNL     1     -10.874  12.738  68.660  1.00  0.00    -0.253 C  
BRANCH  14  15
HETATM   15  C   UNL     1      -9.631  13.593  68.299  1.00  0.00    -0.215 C  
HETATM   16  H   UNL     1      -7.906  13.294  67.408  1.00  0.00     0.000 HD 
HETATM   17  O   UNL     1      -8.667  12.770  67.629  1.00  0.00    -0.159 OA 
BRANCH  15  18
HETATM   18  C   UNL     1     -10.019  14.769  67.411  1.00  0.00    -0.223 A  
HETATM   19  C   UNL     1     -10.172  16.067  67.944  1.00  0.00    -0.258 A  
HETATM   20  C   UNL     1     -10.497  17.157  67.130  1.00  0.00    -0.291 A  
HETATM   21  H   UNL     1     -11.134  17.792  63.970  1.00  0.00     0.000 HD 
HETATM   22  C   UNL     1     -10.662  16.938  65.757  1.00  0.00    -0.160 A  
HETATM   23  C   UNL     1     -10.194  14.585  66.034  1.00  0.00    -0.329 A  
HETATM   24  C   UNL     1     -10.505  15.667  65.210  1.00  0.00    -0.439 A  
HETATM   25  O   UNL     1     -11.022  17.941  64.902  1.00  0.00    -0.827 OA 
BRANCH  20  26
HETATM   26  N   UNL     1     -10.628  18.463  67.638  1.00  0.00    -0.420 N  
HETATM   27  H   UNL     1     -11.373  19.033  67.239  1.00  0.00     0.000 HD 
HETATM   28  O   UNL     1     -10.041  20.212  68.960  1.00  0.00    -0.315 OA 
HETATM   29  C   UNL     1      -9.869  19.051  68.606  1.00  0.00    -0.413 C  
ENDBRANCH  20  26
ENDBRANCH  15  18
ENDBRANCH  14  15
ENDBRANCH  12  14
ENDBRANCH  10  12
ENDBRANCH   9  10
ENDBRANCH   6   9
ENDBRANCH   2   3
TORSDOF 8
ENDMDL
MODEL      143
REMARK 921   NORMALIZED FREE ENERGY PREDICTED BY IDOCK:   -4.76 KCAL/MOL
REMARK 922        TOTAL FREE ENERGY PREDICTED BY IDOCK:   -8.48 KCAL/MOL
REMARK 923 INTER-LIGAND FREE ENERGY PREDICTED BY IDOCK:   -7.23 KCAL/MOL
REMARK 924 INTRA-LIGAND FREE ENERGY PREDICTED BY IDOCK:   -1.25 KCAL/MOL
REMARK 927      BINDING AFFINITY PREDICTED BY RF-SCORE:    0.00 PKD
ROOT
HETATM    1  C   UNL     1     -11.778  13.311  64.077  1.00  0.00    -0.430 C  
HETATM    2  O   UNL     1     -11.395  13.169  65.441  1.00  0.00    -0.293 OA 
ENDROOT
BRANCH   2   3
HETATM    3  C   UNL     1     -10.974  11.915  65.789  1.00  0.00    -0.311 A  
HETATM    4  C   UNL     1     -10.323  11.193  64.791  1.00  0.00    -0.387 A  
HETATM    5  C   UNL     1      -9.893   9.885  65.031  1.00  0.00    -0.323 A  
HETATM    6  C   UNL     1     -10.084   9.297  66.288  1.00  0.00    -0.322 A  
HETATM    7  C   UNL     1     -11.134  11.349  67.052  1.00  0.00    -0.364 A  
HETATM    8  C   UNL     1     -10.694  10.048  67.299  1.00  0.00    -0.309 A  
BRANCH   6   9
HETATM    9  C   UNL     1      -9.758   7.844  66.536  1.00  0.00    -0.279 C  
BRANCH   9  10
HETATM   10  C   UNL     1      -8.522   7.561  67.424  1.00  0.00    -0.115 C  
HETATM   11  C   UNL     1      -7.505   8.702  67.311  1.00  0.00    -0.089 C  
BRANCH  10  12
HETATM   12  N   UNL     1      -8.861   7.397  68.854  1.00  0.00    -0.132 NA 
HETATM   13  H   UNL     1      -8.668   6.445  69.168  1.00  0.00     0.000 HD 
BRANCH  12  14
HETATM   14  C   UNL     1      -8.192   8.379  69.717  1.00  0.00    -0.119 C  
BRANCH  14  15
HETATM   15  C   UNL     1      -8.516   8.209  71.224  1.00  0.00    -0.132 C  
HETATM   16  H   UNL     1      -7.881   8.983  72.914  1.00  0.00     0.000 HD 
HETATM   17  O   UNL     1      -7.683   9.088  71.991  1.00  0.00    -0.348 OA 
BRANCH  15  18
HETATM   18  C   UNL     1      -9.984   8.511  71.502  1.00  0.00    -0.314 A  
HETATM   19  C   UNL     1     -10.595   9.683  71.006  1.00  0.00    -0.362 A  
HETATM   20  C   UNL     1     -11.949   9.952  71.231  1.00  0.00    -0.402 A  
HETATM   21  H   UNL     1     -14.528   8.600  72.751  1.00  0.00     0.000 HD 
HETATM   22  C   UNL     1     -12.701   9.022  71.958  1.00  0.00    -0.398 A  
HETATM   23  C   UNL     1     -10.765   7.603  72.228  1.00  0.00    -0.311 A  
HETATM   24  C   UNL     1     -12.120   7.855  72.447  1.00  0.00    -0.336 A  
HETATM   25  O   UNL     1     -14.018   9.231  72.258  1.00  0.00    -0.440 OA 
BRANCH  20  26
HETATM   26  N   UNL     1     -12.582  11.101  70.722  1.00  0.00    -0.357 N  
HETATM   27  H   UNL     1     -13.568  11.006  70.478  1.00  0.00     0.000 HD 
HETATM   28  O   UNL     1     -12.653  13.264  70.039  1.00  0.00    -0.151 OA 
HETATM   29  C   UNL     1     -12.024  12.328  70.520  1.00  0.00    -0.205 C  
ENDBRANCH  20  26
ENDBRANCH  15  18
ENDBRANCH  14  15
ENDBRANCH  12  14
ENDBRANCH  10  12
ENDBRANCH   9  10
ENDBRANCH   6   9
ENDBRANCH   2   3
TORSDOF 8
ENDMDL
MODEL      144
REMARK 921   NORMALIZED FREE ENERGY PREDICTED BY IDOCK:   -4.76 KCAL/MOL
REMARK 922        TOTAL FREE ENERGY PREDICTED BY IDOCK:   -8.48 KCAL/MOL
REMARK 923 INTER-LIGAND FREE ENERGY PREDICTED BY IDOCK:   -7.81 KCAL/MOL
REMARK 924 INTRA-LIGAND FREE ENERGY PREDICTED BY IDOCK:   -0.67 KCAL/MOL
REMARK 927      BINDING AFFINITY PREDICTED BY RF-SCORE:    0.00 PKD
ROOT
HETATM    1  C   UNL     1      -8.357   3.195  64.429  1.00  0.00    -0.093 C  
HETATM    2  O   UNL     1      -8.142   4.602  64.483  1.00  0.00    -0.097 OA 
ENDROOT
BRANCH   2   3
HETATM    3  C   UNL     1      -8.705   5.226  65.562  1.00  0.00    -0.149 A  
HETATM    4  C   UNL     1      -9.977   4.787  65.923  1.00  0.00    -0.245 A  
HETATM    5  C   UNL     1     -10.658   5.389  66.984  1.00  0.00    -0.298 A  
HETATM    6  C   UNL     1     -10.056   6.420  67.717  1.00  0.00    -0.171 A  
HETATM    7  C   UNL     1      -8.086   6.225  66.309  1.00  0.00    -0.114 A  
HETATM    8  C   UNL     1      -8.758   6.821  67.378  1.00  0.00    -0.119 A  
BRANCH   6   9
HETATM    9  C   UNL     1     -10.816   7.184  68.775  1.00  0.00    -0.157 C  
BRANCH   9  10
HETATM   10  C   UNL     1     -11.481   6.336  69.886  1.00  0.00    -0.389 C  
HETATM   11  C   UNL     1     -10.442   5.896  70.923  1.00  0.00    -0.305 C  
BRANCH  10  12
HETATM   12  N   UNL     1     -12.556   7.058  70.601  1.00  0.00    -0.593 NA 
HETATM   13  H   UNL     1     -12.944   6.486  71.351  1.00  0.00     0.000 HD 
BRANCH  12  14
HETATM   14  C   UNL     1     -12.126   8.367  71.109  1.00  0.00    -0.249 C  
BRANCH  14  15
HETATM   15  C   UNL     1     -13.300   9.324  71.440  1.00  0.00    -0.325 C  
HETATM   16  H   UNL     1     -14.373   9.767  73.026  1.00  0.00     0.000 HD 
HETATM   17  O   UNL     1     -13.654   9.181  72.823  1.00  0.00    -0.430 OA 
BRANCH  15  18
HETATM   18  C   UNL     1     -12.923  10.771  71.147  1.00  0.00    -0.467 A  
HETATM   19  C   UNL     1     -13.304  11.815  72.017  1.00  0.00    -0.417 A  
HETATM   20  C   UNL     1     -12.935  13.142  71.771  1.00  0.00    -0.338 A  
HETATM   21  H   UNL     1     -11.277  14.883  69.533  1.00  0.00     0.000 HD 
HETATM   22  C   UNL     1     -12.164  13.420  70.637  1.00  0.00    -0.350 A  
HETATM   23  C   UNL     1     -12.154  11.085  70.020  1.00  0.00    -0.441 A  
HETATM   24  C   UNL     1     -11.770  12.403  69.771  1.00  0.00    -0.361 A  
HETATM   25  O   UNL     1     -11.800  14.694  70.303  1.00  0.00    -0.269 OA 
BRANCH  20  26
HETATM   26  N   UNL     1     -13.283  14.193  72.641  1.00  0.00    -0.500 N  
HETATM   27  H   UNL     1     -14.243  14.532  72.582  1.00  0.00     0.000 HD 
HETATM   28  O   UNL     1     -12.867  15.741  74.247  1.00  0.00    -0.546 OA 
HETATM   29  C   UNL     1     -12.479  14.807  73.554  1.00  0.00    -0.391 C  
ENDBRANCH  20  26
ENDBRANCH  15  18
ENDBRANCH  14  15
ENDBRANCH  12  14
ENDBRANCH  10  12
ENDBRANCH   9  10
ENDBRANCH   6   9
ENDBRANCH   2   3
TORSDOF 8
ENDMDL
MODEL      145
REMARK 921   NORMALIZED FREE ENERGY PREDICTED BY IDOCK:   -4.73 KCAL/MOL
REMARK 922        TOTAL FREE ENERGY PREDICTED BY IDOCK:   -8.44 KCAL/MOL
REMARK 923 INTER-LIGAND FREE ENERGY PREDICTED BY IDOCK:   -7.74 KCAL/MOL
REMARK 924 INTRA-LIGAND FREE ENERGY PREDICTED BY IDOCK:   -0.70 KCAL/MOL
REMARK 927      BINDING AFFINITY PREDICTED BY RF-SCORE:    0.00 PKD
ROOT
HETATM    1  C   UNL     1     -11.190   7.515  70.839  1.00  0.00    -0.269 C  
HETATM    2  O   UNL     1     -12.490   8.069  71.016  1.00  0.00    -0.239 OA 
ENDROOT
BRANCH   2   3
HETATM    3  C   UNL     1     -12.525   9.434  71.086  1.00  0.00    -0.293 A  
HETATM    4  C   UNL     1     -11.633  10.109  70.253  1.00  0.00    -0.379 A  
HETATM    5  C   UNL     1     -11.558  11.504  70.280  1.00  0.00    -0.305 A  
HETATM    6  C   UNL     1     -12.402  12.241  71.121  1.00  0.00    -0.251 A  
HETATM    7  C   UNL     1     -13.391  10.164  71.896  1.00  0.00    -0.505 A  
HETATM    8  C   UNL     1     -13.329  11.558  71.916  1.00  0.00    -0.408 A  
BRANCH   6   9
HETATM    9  C   UNL     1     -12.250  13.736  71.276  1.00  0.00    -0.314 C  
BRANCH   9  10
HETATM   10  C   UNL     1     -13.334  14.608  70.597  1.00  0.00    -0.134 C  
HETATM   11  C   UNL     1     -14.332  15.131  71.636  1.00  0.00    -0.685 C  
BRANCH  10  12
HETATM   12  N   UNL     1     -12.775  15.775  69.881  1.00  0.00    -0.553 NA 
HETATM   13  H   UNL     1     -13.134  16.647  70.268  1.00  0.00     0.000 HD 
BRANCH  12  14
HETATM   14  C   UNL     1     -11.306  15.778  69.852  1.00  0.00    -0.349 C  
BRANCH  14  15
HETATM   15  C   UNL     1     -10.711  15.774  68.420  1.00  0.00    -0.281 C  
HETATM   16  H   UNL     1     -11.400  15.572  66.591  1.00  0.00     0.000 HD 
HETATM   17  O   UNL     1     -11.765  15.575  67.468  1.00  0.00    -0.194 OA 
BRANCH  15  18
HETATM   18  C   UNL     1      -9.987  17.082  68.128  1.00  0.00    -0.287 A  
HETATM   19  C   UNL     1      -8.666  17.090  67.629  1.00  0.00    -0.216 A  
HETATM   20  C   UNL     1      -8.005  18.286  67.330  1.00  0.00    -0.224 A  
HETATM   21  H   UNL     1      -8.561  21.522  67.435  1.00  0.00     0.000 HD 
HETATM   22  C   UNL     1      -8.688  19.492  67.527  1.00  0.00    -0.307 A  
HETATM   23  C   UNL     1     -10.639  18.307  68.317  1.00  0.00    -0.249 A  
HETATM   24  C   UNL     1      -9.994  19.505  68.009  1.00  0.00    -0.513 A  
HETATM   25  O   UNL     1      -8.098  20.703  67.301  1.00  0.00    -0.337 OA 
BRANCH  20  26
HETATM   26  N   UNL     1      -6.699  18.313  66.807  1.00  0.00    -0.184 N  
HETATM   27  H   UNL     1      -5.966  18.646  67.433  1.00  0.00     0.000 HD 
HETATM   28  O   UNL     1      -5.140  18.033  65.181  1.00  0.00    -0.150 OA 
HETATM   29  C   UNL     1      -6.304  17.942  65.556  1.00  0.00    -0.107 C  
ENDBRANCH  20  26
ENDBRANCH  15  18
ENDBRANCH  14  15
ENDBRANCH  12  14
ENDBRANCH  10  12
ENDBRANCH   9  10
ENDBRANCH   6   9
ENDBRANCH   2   3
TORSDOF 8
ENDMDL
MODEL      146
REMARK 921   NORMALIZED FREE ENERGY PREDICTED BY IDOCK:   -4.72 KCAL/MOL
REMARK 922        TOTAL FREE ENERGY PREDICTED BY IDOCK:   -8.43 KCAL/MOL
REMARK 923 INTER-LIGAND FREE ENERGY PREDICTED BY IDOCK:   -7.73 KCAL/MOL
REMARK 924 INTRA-LIGAND FREE ENERGY PREDICTED BY IDOCK:   -0.69 KCAL/MOL
REMARK 927      BINDING AFFINITY PREDICTED BY RF-SCORE:    0.00 PKD
ROOT
HETATM    1  C   UNL     1     -10.961   3.248  73.582  1.00  0.00    -0.237 C  
HETATM    2  O   UNL     1     -11.652   4.492  73.512  1.00  0.00    -0.278 OA 
ENDROOT
BRANCH   2   3
HETATM    3  C   UNL     1     -10.915   5.528  73.011  1.00  0.00    -0.290 A  
HETATM    4  C   UNL     1     -10.570   5.434  71.663  1.00  0.00    -0.284 A  
HETATM    5  C   UNL     1      -9.781   6.420  71.066  1.00  0.00    -0.192 A  
HETATM    6  C   UNL     1      -9.354   7.530  71.806  1.00  0.00    -0.168 A  
HETATM    7  C   UNL     1     -10.524   6.647  73.742  1.00  0.00    -0.357 A  
HETATM    8  C   UNL     1      -9.745   7.640  73.145  1.00  0.00    -0.327 A  
BRANCH   6   9
HETATM    9  C   UNL     1      -8.387   8.537  71.230  1.00  0.00    -0.193 C  
BRANCH   9  10
HETATM   10  C   UNL     1      -9.000   9.637  70.329  1.00  0.00    -0.219 C  
HETATM   11  C   UNL     1      -8.945   9.217  68.856  1.00  0.00    -0.136 C  
BRANCH  10  12
HETATM   12  N   UNL     1     -10.409   9.940  70.660  1.00  0.00    -0.367 NA 
HETATM   13  H   UNL     1     -10.468  10.569  71.461  1.00  0.00     0.000 HD 
BRANCH  12  14
HETATM   14  C   UNL     1     -11.164  10.472  69.518  1.00  0.00    -0.271 C  
BRANCH  14  15
HETATM   15  C   UNL     1     -12.391  11.327  69.927  1.00  0.00    -0.233 C  
HETATM   16  H   UNL     1     -13.436  11.631  71.562  1.00  0.00     0.000 HD 
HETATM   17  O   UNL     1     -12.684  11.107  71.313  1.00  0.00    -0.397 OA 
BRANCH  15  18
HETATM   18  C   UNL     1     -12.128  12.808  69.681  1.00  0.00    -0.286 A  
HETATM   19  C   UNL     1     -12.254  13.754  70.720  1.00  0.00    -0.437 A  
HETATM   20  C   UNL     1     -11.984  15.111  70.510  1.00  0.00    -0.325 A  
HETATM   21  H   UNL     1     -11.053  17.108  68.073  1.00  0.00     0.000 HD 
HETATM   22  C   UNL     1     -11.573  15.519  69.236  1.00  0.00    -0.357 A  
HETATM   23  C   UNL     1     -11.717  13.251  68.417  1.00  0.00    -0.389 A  
HETATM   24  C   UNL     1     -11.433  14.600  68.200  1.00  0.00    -0.346 A  
HETATM   25  O   UNL     1     -11.333  16.831  68.938  1.00  0.00    -0.203 OA 
BRANCH  20  26
HETATM   26  N   UNL     1     -12.079  16.065  71.541  1.00  0.00    -0.533 N  
HETATM   27  H   UNL     1     -12.124  17.042  71.252  1.00  0.00     0.000 HD 
HETATM   28  O   UNL     1     -12.166  16.733  73.708  1.00  0.00    -0.416 OA 
HETATM   29  C   UNL     1     -12.116  15.828  72.882  1.00  0.00    -0.490 C  
ENDBRANCH  20  26
ENDBRANCH  15  18
ENDBRANCH  14  15
ENDBRANCH  12  14
ENDBRANCH  10  12
ENDBRANCH   9  10
ENDBRANCH   6   9
ENDBRANCH   2   3
TORSDOF 8
ENDMDL
MODEL      147
REMARK 921   NORMALIZED FREE ENERGY PREDICTED BY IDOCK:   -4.72 KCAL/MOL
REMARK 922        TOTAL FREE ENERGY PREDICTED BY IDOCK:   -8.42 KCAL/MOL
REMARK 923 INTER-LIGAND FREE ENERGY PREDICTED BY IDOCK:   -7.91 KCAL/MOL
REMARK 924 INTRA-LIGAND FREE ENERGY PREDICTED BY IDOCK:   -0.50 KCAL/MOL
REMARK 927      BINDING AFFINITY PREDICTED BY RF-SCORE:    0.00 PKD
ROOT
HETATM    1  C   UNL     1      -9.026   3.609  66.824  1.00  0.00    -0.142 C  
HETATM    2  O   UNL     1      -8.461   4.506  67.774  1.00  0.00    -0.102 OA 
ENDROOT
BRANCH   2   3
HETATM    3  C   UNL     1      -9.334   4.960  68.723  1.00  0.00    -0.135 A  
HETATM    4  C   UNL     1     -10.360   5.783  68.261  1.00  0.00    -0.265 A  
HETATM    5  C   UNL     1     -11.280   6.335  69.156  1.00  0.00    -0.439 A  
HETATM    6  C   UNL     1     -11.201   6.042  70.523  1.00  0.00    -0.363 A  
HETATM    7  C   UNL     1      -9.272   4.636  70.076  1.00  0.00    -0.186 A  
HETATM    8  C   UNL     1     -10.197   5.176  70.971  1.00  0.00    -0.295 A  
BRANCH   6   9
HETATM    9  C   UNL     1     -12.090   6.731  71.530  1.00  0.00    -0.410 C  
BRANCH   9  10
HETATM   10  C   UNL     1     -11.807   8.233  71.780  1.00  0.00    -0.306 C  
HETATM   11  C   UNL     1     -10.315   8.463  72.040  1.00  0.00    -0.374 C  
BRANCH  10  12
HETATM   12  N   UNL     1     -12.207   9.094  70.646  1.00  0.00    -0.486 NA 
HETATM   13  H   UNL     1     -13.222   9.123  70.551  1.00  0.00     0.000 HD 
BRANCH  12  14
HETATM   14  C   UNL     1     -11.648  10.449  70.733  1.00  0.00    -0.358 C  
BRANCH  14  15
HETATM   15  C   UNL     1     -12.724  11.561  70.843  1.00  0.00    -0.278 C  
HETATM   16  H   UNL     1     -13.654  12.505  72.294  1.00  0.00     0.000 HD 
HETATM   17  O   UNL     1     -12.995  11.825  72.226  1.00  0.00    -0.288 OA 
BRANCH  15  18
HETATM   18  C   UNL     1     -12.260  12.838  70.152  1.00  0.00    -0.320 A  
HETATM   19  C   UNL     1     -11.918  12.843  68.783  1.00  0.00    -0.290 A  
HETATM   20  C   UNL     1     -11.521  14.018  68.133  1.00  0.00    -0.309 A  
HETATM   21  H   UNL     1     -11.027  17.190  68.827  1.00  0.00     0.000 HD 
HETATM   22  C   UNL     1     -11.477  15.205  68.873  1.00  0.00    -0.320 A  
HETATM   23  C   UNL     1     -12.201  14.043  70.863  1.00  0.00    -0.436 A  
HETATM   24  C   UNL     1     -11.819  15.223  70.222  1.00  0.00    -0.353 A  
HETATM   25  O   UNL     1     -11.058  16.384  68.324  1.00  0.00    -0.347 OA 
BRANCH  20  26
HETATM   26  N   UNL     1     -11.202  14.048  66.763  1.00  0.00    -0.307 N  
HETATM   27  H   UNL     1     -10.218  14.177  66.529  1.00  0.00     0.000 HD 
HETATM   28  O   UNL     1     -11.691  13.998  64.548  1.00  0.00    -0.381 OA 
HETATM   29  C   UNL     1     -12.063  13.925  65.714  1.00  0.00    -0.425 C  
ENDBRANCH  20  26
ENDBRANCH  15  18
ENDBRANCH  14  15
ENDBRANCH  12  14
ENDBRANCH  10  12
ENDBRANCH   9  10
ENDBRANCH   6   9
ENDBRANCH   2   3
TORSDOF 8
ENDMDL
MODEL      148
REMARK 921   NORMALIZED FREE ENERGY PREDICTED BY IDOCK:   -4.71 KCAL/MOL
REMARK 922        TOTAL FREE ENERGY PREDICTED BY IDOCK:   -8.40 KCAL/MOL
REMARK 923 INTER-LIGAND FREE ENERGY PREDICTED BY IDOCK:   -7.45 KCAL/MOL
REMARK 924 INTRA-LIGAND FREE ENERGY PREDICTED BY IDOCK:   -0.95 KCAL/MOL
REMARK 927      BINDING AFFINITY PREDICTED BY RF-SCORE:    0.00 PKD
ROOT
HETATM    1  C   UNL     1      -7.781   7.476  68.884  1.00  0.00    -0.115 C  
HETATM    2  O   UNL     1      -8.774   8.473  69.104  1.00  0.00    -0.132 OA 
ENDROOT
BRANCH   2   3
HETATM    3  C   UNL     1      -9.120   9.191  67.993  1.00  0.00    -0.131 A  
HETATM    4  C   UNL     1     -10.343   8.859  67.411  1.00  0.00    -0.337 A  
HETATM    5  C   UNL     1     -10.769   9.503  66.246  1.00  0.00     0.133 A  
HETATM    6  C   UNL     1      -9.986  10.510  65.668  1.00  0.00    -0.332 A  
HETATM    7  C   UNL     1      -8.355  10.217  67.443  1.00  0.00    -0.118 A  
HETATM    8  C   UNL     1      -8.784  10.871  66.287  1.00  0.00    -0.175 A  
BRANCH   6   9
HETATM    9  C   UNL     1     -10.349  11.125  64.337  1.00  0.00    -0.407 C  
BRANCH   9  10
HETATM   10  C   UNL     1     -11.301  12.345  64.383  1.00  0.00    -0.340 C  
HETATM   11  C   UNL     1     -12.538  12.096  63.513  1.00  0.00    -0.621 C  
BRANCH  10  12
HETATM   12  N   UNL     1     -11.767  12.666  65.750  1.00  0.00    -0.396 NA 
HETATM   13  H   UNL     1     -11.538  11.913  66.399  1.00  0.00     0.000 HD 
BRANCH  12  14
HETATM   14  C   UNL     1     -11.258  13.954  66.239  1.00  0.00    -0.309 C  
BRANCH  14  15
HETATM   15  C   UNL     1     -10.297  13.825  67.450  1.00  0.00    -0.252 C  
HETATM   16  H   UNL     1      -9.050  15.000  68.411  1.00  0.00     0.000 HD 
HETATM   17  O   UNL     1      -9.638  15.079  67.670  1.00  0.00    -0.202 OA 
BRANCH  15  18
HETATM   18  C   UNL     1     -11.056  13.410  68.705  1.00  0.00    -0.295 A  
HETATM   19  C   UNL     1     -11.503  14.370  69.638  1.00  0.00    -0.331 A  
HETATM   20  C   UNL     1     -12.227  14.000  70.777  1.00  0.00    -0.367 A  
HETATM   21  H   UNL     1     -13.369  11.276  72.215  1.00  0.00     0.000 HD 
HETATM   22  C   UNL     1     -12.512  12.644  70.973  1.00  0.00    -0.260 A  
HETATM   23  C   UNL     1     -11.356  12.062  68.934  1.00  0.00    -0.333 A  
HETATM   24  C   UNL     1     -12.089  11.683  70.060  1.00  0.00    -0.395 A  
HETATM   25  O   UNL     1     -13.176  12.197  72.082  1.00  0.00    -0.499 OA 
BRANCH  20  26
HETATM   26  N   UNL     1     -12.703  14.945  71.705  1.00  0.00    -0.313 N  
HETATM   27  H   UNL     1     -12.034  15.646  72.023  1.00  0.00     0.000 HD 
HETATM   28  O   UNL     1     -14.271  15.871  73.059  1.00  0.00    -0.410 OA 
HETATM   29  C   UNL     1     -13.960  15.026  72.227  1.00  0.00    -0.509 C  
ENDBRANCH  20  26
ENDBRANCH  15  18
ENDBRANCH  14  15
ENDBRANCH  12  14
ENDBRANCH  10  12
ENDBRANCH   9  10
ENDBRANCH   6   9
ENDBRANCH   2   3
TORSDOF 8
ENDMDL
MODEL      149
REMARK 921   NORMALIZED FREE ENERGY PREDICTED BY IDOCK:   -4.70 KCAL/MOL
REMARK 922        TOTAL FREE ENERGY PREDICTED BY IDOCK:   -8.39 KCAL/MOL
REMARK 923 INTER-LIGAND FREE ENERGY PREDICTED BY IDOCK:   -7.59 KCAL/MOL
REMARK 924 INTRA-LIGAND FREE ENERGY PREDICTED BY IDOCK:   -0.80 KCAL/MOL
REMARK 927      BINDING AFFINITY PREDICTED BY RF-SCORE:    0.00 PKD
ROOT
HETATM    1  C   UNL     1     -11.709   8.308  72.299  1.00  0.00    -0.388 C  
HETATM    2  O   UNL     1     -10.497   8.797  71.733  1.00  0.00    -0.290 OA 
ENDROOT
BRANCH   2   3
HETATM    3  C   UNL     1     -10.662   9.700  70.720  1.00  0.00    -0.331 A  
HETATM    4  C   UNL     1     -11.845  10.438  70.749  1.00  0.00    -0.466 A  
HETATM    5  C   UNL     1     -12.130  11.356  69.736  1.00  0.00    -0.388 A  
HETATM    6  C   UNL     1     -11.216  11.569  68.696  1.00  0.00    -0.307 A  
HETATM    7  C   UNL     1      -9.733   9.934  69.709  1.00  0.00    -0.266 A  
HETATM    8  C   UNL     1     -10.009  10.860  68.702  1.00  0.00    -0.196 A  
BRANCH   6   9
HETATM    9  C   UNL     1     -11.555  12.448  67.516  1.00  0.00    -0.431 C  
BRANCH   9  10
HETATM   10  C   UNL     1     -10.678  12.266  66.253  1.00  0.00    -0.259 C  
HETATM   11  C   UNL     1     -11.547  12.265  64.990  1.00  0.00    -0.394 C  
BRANCH  10  12
HETATM   12  N   UNL     1      -9.657  13.324  66.099  1.00  0.00    -0.415 NA 
HETATM   13  H   UNL     1      -9.240  13.296  65.168  1.00  0.00     0.000 HD 
BRANCH  12  14
HETATM   14  C   UNL     1     -10.173  14.665  66.402  1.00  0.00    -0.289 C  
BRANCH  14  15
HETATM   15  C   UNL     1      -9.189  15.808  66.042  1.00  0.00    -0.344 C  
HETATM   16  H   UNL     1      -9.328  17.665  65.413  1.00  0.00     0.000 HD 
HETATM   17  O   UNL     1      -9.931  16.965  65.634  1.00  0.00    -0.552 OA 
BRANCH  15  18
HETATM   18  C   UNL     1      -8.300  16.155  67.230  1.00  0.00    -0.204 A  
HETATM   19  C   UNL     1      -8.034  15.208  68.243  1.00  0.00    -0.129 A  
HETATM   20  C   UNL     1      -7.195  15.508  69.322  1.00  0.00    -0.196 A  
HETATM   21  H   UNL     1      -5.412  18.025  70.453  1.00  0.00     0.000 HD 
HETATM   22  C   UNL     1      -6.607  16.778  69.375  1.00  0.00    -0.228 A  
HETATM   23  C   UNL     1      -7.698  17.416  67.317  1.00  0.00    -0.221 A  
HETATM   24  C   UNL     1      -6.848  17.722  68.381  1.00  0.00    -0.221 A  
HETATM   25  O   UNL     1      -5.810  17.163  70.416  1.00  0.00    -0.189 OA 
BRANCH  20  26
HETATM   26  N   UNL     1      -6.897  14.570  70.327  1.00  0.00    -0.377 N  
HETATM   27  H   UNL     1      -7.441  14.638  71.187  1.00  0.00     0.000 HD 
HETATM   28  O   UNL     1      -5.754  12.827  71.225  1.00  0.00    -0.364 OA 
HETATM   29  C   UNL     1      -5.962  13.579  70.279  1.00  0.00    -0.146 C  
ENDBRANCH  20  26
ENDBRANCH  15  18
ENDBRANCH  14  15
ENDBRANCH  12  14
ENDBRANCH  10  12
ENDBRANCH   9  10
ENDBRANCH   6   9
ENDBRANCH   2   3
TORSDOF 8
ENDMDL
MODEL      150
REMARK 921   NORMALIZED FREE ENERGY PREDICTED BY IDOCK:   -4.68 KCAL/MOL
REMARK 922        TOTAL FREE ENERGY PREDICTED BY IDOCK:   -8.36 KCAL/MOL
REMARK 923 INTER-LIGAND FREE ENERGY PREDICTED BY IDOCK:   -6.59 KCAL/MOL
REMARK 924 INTRA-LIGAND FREE ENERGY PREDICTED BY IDOCK:   -1.76 KCAL/MOL
REMARK 927      BINDING AFFINITY PREDICTED BY RF-SCORE:    0.00 PKD
ROOT
HETATM    1  C   UNL     1      -9.835   8.722  66.440  1.00  0.00    -0.282 C  
HETATM    2  O   UNL     1      -9.753   7.305  66.564  1.00  0.00    -0.186 OA 
ENDROOT
BRANCH   2   3
HETATM    3  C   UNL     1      -9.874   6.834  67.841  1.00  0.00    -0.129 A  
HETATM    4  C   UNL     1      -8.701   6.813  68.595  1.00  0.00    -0.125 A  
HETATM    5  C   UNL     1      -8.708   6.309  69.898  1.00  0.00    -0.141 A  
HETATM    6  C   UNL     1      -9.900   5.849  70.473  1.00  0.00    -0.231 A  
HETATM    7  C   UNL     1     -11.068   6.412  68.420  1.00  0.00    -0.374 A  
HETATM    8  C   UNL     1     -11.081   5.919  69.726  1.00  0.00    -0.422 A  
BRANCH   6   9
HETATM    9  C   UNL     1      -9.914   5.171  71.822  1.00  0.00    -0.244 C  
BRANCH   9  10
HETATM   10  C   UNL     1     -11.127   5.484  72.733  1.00  0.00    -0.291 C  
HETATM   11  C   UNL     1     -11.528   4.245  73.540  1.00  0.00    -0.251 C  
BRANCH  10  12
HETATM   12  N   UNL     1     -10.866   6.582  73.688  1.00  0.00    -0.476 NA 
HETATM   13  H   UNL     1     -10.038   6.386  74.251  1.00  0.00     0.000 HD 
BRANCH  12  14
HETATM   14  C   UNL     1     -10.760   7.894  73.037  1.00  0.00    -0.342 C  
BRANCH  14  15
HETATM   15  C   UNL     1     -11.970   8.238  72.129  1.00  0.00    -0.369 C  
HETATM   16  H   UNL     1     -13.809   8.877  72.388  1.00  0.00     0.000 HD 
HETATM   17  O   UNL     1     -13.069   8.667  72.944  1.00  0.00    -0.265 OA 
BRANCH  15  18
HETATM   18  C   UNL     1     -11.607   9.330  71.130  1.00  0.00    -0.397 A  
HETATM   19  C   UNL     1     -10.271   9.528  70.718  1.00  0.00    -0.363 A  
HETATM   20  C   UNL     1      -9.934  10.508  69.778  1.00  0.00    -0.045 A  
HETATM   21  H   UNL     1     -11.402  12.835  67.984  1.00  0.00     0.000 HD 
HETATM   22  C   UNL     1     -10.959  11.294  69.239  1.00  0.00    -0.243 A  
HETATM   23  C   UNL     1     -12.606  10.137  70.573  1.00  0.00    -0.289 A  
HETATM   24  C   UNL     1     -12.283  11.109  69.625  1.00  0.00    -0.360 A  
HETATM   25  O   UNL     1     -10.707  12.301  68.349  1.00  0.00    -0.217 OA 
BRANCH  20  26
HETATM   26  N   UNL     1      -8.612  10.702  69.335  1.00  0.00    -0.354 N  
HETATM   27  H   UNL     1      -8.473  11.416  68.620  1.00  0.00     0.000 HD 
HETATM   28  O   UNL     1      -6.387  10.260  69.282  1.00  0.00    -0.044 OA 
HETATM   29  C   UNL     1      -7.497  10.041  69.755  1.00  0.00    -0.151 C  
ENDBRANCH  20  26
ENDBRANCH  15  18
ENDBRANCH  14  15
ENDBRANCH  12  14
ENDBRANCH  10  12
ENDBRANCH   9  10
ENDBRANCH   6   9
ENDBRANCH   2   3
TORSDOF 8
ENDMDL
MODEL      151
REMARK 921   NORMALIZED FREE ENERGY PREDICTED BY IDOCK:   -4.68 KCAL/MOL
REMARK 922        TOTAL FREE ENERGY PREDICTED BY IDOCK:   -8.36 KCAL/MOL
REMARK 923 INTER-LIGAND FREE ENERGY PREDICTED BY IDOCK:   -7.66 KCAL/MOL
REMARK 924 INTRA-LIGAND FREE ENERGY PREDICTED BY IDOCK:   -0.70 KCAL/MOL
REMARK 927      BINDING AFFINITY PREDICTED BY RF-SCORE:    0.00 PKD
ROOT
HETATM    1  C   UNL     1     -11.707   8.317  72.296  1.00  0.00    -0.388 C  
HETATM    2  O   UNL     1     -10.515   8.826  71.705  1.00  0.00    -0.290 OA 
ENDROOT
BRANCH   2   3
HETATM    3  C   UNL     1     -10.717   9.712  70.683  1.00  0.00    -0.322 A  
HETATM    4  C   UNL     1     -11.917  10.420  70.719  1.00  0.00    -0.462 A  
HETATM    5  C   UNL     1     -12.240  11.316  69.698  1.00  0.00    -0.340 A  
HETATM    6  C   UNL     1     -11.346  11.538  68.642  1.00  0.00    -0.330 A  
HETATM    7  C   UNL     1      -9.808   9.954  69.655  1.00  0.00    -0.255 A  
HETATM    8  C   UNL     1     -10.122  10.860  68.640  1.00  0.00    -0.200 A  
BRANCH   6   9
HETATM    9  C   UNL     1     -11.724  12.391  67.455  1.00  0.00    -0.425 C  
BRANCH   9  10
HETATM   10  C   UNL     1     -10.883  12.188  66.171  1.00  0.00    -0.282 C  
HETATM   11  C   UNL     1     -11.793  12.104  64.940  1.00  0.00    -0.366 C  
BRANCH  10  12
HETATM   12  N   UNL     1      -9.907  13.275  65.938  1.00  0.00    -0.389 NA 
HETATM   13  H   UNL     1      -9.513  13.216  65.000  1.00  0.00     0.000 HD 
BRANCH  12  14
HETATM   14  C   UNL     1     -10.467  14.609  66.191  1.00  0.00    -0.302 C  
BRANCH  14  15
HETATM   15  C   UNL     1      -9.550  15.768  65.720  1.00  0.00    -0.320 C  
HETATM   16  H   UNL     1      -9.799  17.573  64.984  1.00  0.00     0.000 HD 
HETATM   17  O   UNL     1     -10.361  16.863  65.272  1.00  0.00    -0.624 OA 
BRANCH  15  18
HETATM   18  C   UNL     1      -8.632  16.228  66.846  1.00  0.00    -0.247 A  
HETATM   19  C   UNL     1      -7.866  17.408  66.728  1.00  0.00    -0.273 A  
HETATM   20  C   UNL     1      -7.045  17.853  67.769  1.00  0.00    -0.204 A  
HETATM   21  H   UNL     1      -6.161  16.937  70.798  1.00  0.00     0.000 HD 
HETATM   22  C   UNL     1      -7.001  17.103  68.950  1.00  0.00    -0.232 A  
HETATM   23  C   UNL     1      -8.562  15.500  68.040  1.00  0.00    -0.155 A  
HETATM   24  C   UNL     1      -7.756  15.942  69.090  1.00  0.00    -0.220 A  
HETATM   25  O   UNL     1      -6.191  17.446  69.996  1.00  0.00    -0.203 OA 
BRANCH  20  26
HETATM   26  N   UNL     1      -6.295  19.041  67.680  1.00  0.00    -0.203 N  
HETATM   27  H   UNL     1      -5.314  18.939  67.421  1.00  0.00     0.000 HD 
HETATM   28  O   UNL     1      -5.992  21.284  67.831  1.00  0.00    -0.341 OA 
HETATM   29  C   UNL     1      -6.734  20.311  67.902  1.00  0.00    -0.284 C  
ENDBRANCH  20  26
ENDBRANCH  15  18
ENDBRANCH  14  15
ENDBRANCH  12  14
ENDBRANCH  10  12
ENDBRANCH   9  10
ENDBRANCH   6   9
ENDBRANCH   2   3
TORSDOF 8
ENDMDL
MODEL      152
REMARK 921   NORMALIZED FREE ENERGY PREDICTED BY IDOCK:   -4.67 KCAL/MOL
REMARK 922        TOTAL FREE ENERGY PREDICTED BY IDOCK:   -8.35 KCAL/MOL
REMARK 923 INTER-LIGAND FREE ENERGY PREDICTED BY IDOCK:   -7.21 KCAL/MOL
REMARK 924 INTRA-LIGAND FREE ENERGY PREDICTED BY IDOCK:   -1.14 KCAL/MOL
REMARK 927      BINDING AFFINITY PREDICTED BY RF-SCORE:    0.00 PKD
ROOT
HETATM    1  C   UNL     1      -9.815  20.219  66.142  1.00  0.00    -0.318 C  
HETATM    2  O   UNL     1      -9.091  19.039  65.806  1.00  0.00    -0.384 OA 
ENDROOT
BRANCH   2   3
HETATM    3  C   UNL     1      -9.324  17.971  66.628  1.00  0.00    -0.291 A  
HETATM    4  C   UNL     1      -8.684  16.783  66.277  1.00  0.00    -0.342 A  
HETATM    5  C   UNL     1      -8.891  15.622  67.026  1.00  0.00    -0.250 A  
HETATM    6  C   UNL     1      -9.718  15.647  68.156  1.00  0.00    -0.204 A  
HETATM    7  C   UNL     1     -10.118  18.011  67.771  1.00  0.00    -0.359 A  
HETATM    8  C   UNL     1     -10.317  16.856  68.529  1.00  0.00    -0.336 A  
BRANCH   6   9
HETATM    9  C   UNL     1     -10.072  14.383  68.903  1.00  0.00    -0.202 C  
BRANCH   9  10
HETATM   10  C   UNL     1     -11.557  13.946  68.844  1.00  0.00    -0.316 C  
HETATM   11  C   UNL     1     -12.311  14.435  70.086  1.00  0.00    -0.406 C  
BRANCH  10  12
HETATM   12  N   UNL     1     -12.266  14.460  67.652  1.00  0.00    -0.623 NA 
HETATM   13  H   UNL     1     -11.721  15.187  67.189  1.00  0.00     0.000 HD 
BRANCH  12  14
HETATM   14  C   UNL     1     -12.637  13.399  66.707  1.00  0.00     0.095 C  
BRANCH  14  15
HETATM   15  C   UNL     1     -12.163  13.665  65.254  1.00  0.00    -0.439 C  
HETATM   16  H   UNL     1     -11.287  15.135  64.288  1.00  0.00     0.000 HD 
HETATM   17  O   UNL     1     -11.577  14.972  65.178  1.00  0.00    -0.348 OA 
BRANCH  15  18
HETATM   18  C   UNL     1     -11.151  12.615  64.811  1.00  0.00    -0.335 A  
HETATM   19  C   UNL     1     -10.209  12.081  65.717  1.00  0.00    -0.274 A  
HETATM   20  C   UNL     1      -9.297  11.095  65.327  1.00  0.00    -0.219 A  
HETATM   21  H   UNL     1      -8.485   9.392  62.637  1.00  0.00     0.000 HD 
HETATM   22  C   UNL     1      -9.340  10.634  64.006  1.00  0.00    -0.266 A  
HETATM   23  C   UNL     1     -11.164  12.134  63.497  1.00  0.00    -0.536 A  
HETATM   24  C   UNL     1     -10.267  11.141  63.099  1.00  0.00    -0.347 A  
HETATM   25  O   UNL     1      -8.456   9.705  63.534  1.00  0.00    -0.159 OA 
BRANCH  20  26
HETATM   26  N   UNL     1      -8.369  10.531  66.222  1.00  0.00    -0.146 N  
HETATM   27  H   UNL     1      -8.581   9.595  66.566  1.00  0.00     0.000 HD 
HETATM   28  O   UNL     1      -6.487  10.538  67.490  1.00  0.00    -0.057 OA 
HETATM   29  C   UNL     1      -7.218  11.099  66.681  1.00  0.00    -0.144 C  
ENDBRANCH  20  26
ENDBRANCH  15  18
ENDBRANCH  14  15
ENDBRANCH  12  14
ENDBRANCH  10  12
ENDBRANCH   9  10
ENDBRANCH   6   9
ENDBRANCH   2   3
TORSDOF 8
ENDMDL
MODEL      153
REMARK 921   NORMALIZED FREE ENERGY PREDICTED BY IDOCK:   -4.67 KCAL/MOL
REMARK 922        TOTAL FREE ENERGY PREDICTED BY IDOCK:   -8.34 KCAL/MOL
REMARK 923 INTER-LIGAND FREE ENERGY PREDICTED BY IDOCK:   -7.62 KCAL/MOL
REMARK 924 INTRA-LIGAND FREE ENERGY PREDICTED BY IDOCK:   -0.72 KCAL/MOL
REMARK 927      BINDING AFFINITY PREDICTED BY RF-SCORE:    0.00 PKD
ROOT
HETATM    1  C   UNL     1      -8.147   4.252  68.084  1.00  0.00    -0.089 C  
HETATM    2  O   UNL     1      -8.805   4.981  67.052  1.00  0.00    -0.108 OA 
ENDROOT
BRANCH   2   3
HETATM    3  C   UNL     1      -9.070   6.287  67.354  1.00  0.00    -0.111 A  
HETATM    4  C   UNL     1     -10.296   6.779  66.908  1.00  0.00    -0.324 A  
HETATM    5  C   UNL     1     -10.644   8.114  67.127  1.00  0.00    -0.355 A  
HETATM    6  C   UNL     1      -9.779   8.965  67.826  1.00  0.00    -0.196 A  
HETATM    7  C   UNL     1      -8.222   7.119  68.082  1.00  0.00    -0.124 A  
HETATM    8  C   UNL     1      -8.572   8.450  68.313  1.00  0.00    -0.139 A  
BRANCH   6   9
HETATM    9  C   UNL     1     -10.061  10.443  67.957  1.00  0.00    -0.189 C  
BRANCH   9  10
HETATM   10  C   UNL     1     -11.522  10.834  68.287  1.00  0.00    -0.280 C  
HETATM   11  C   UNL     1     -11.588  11.590  69.619  1.00  0.00    -0.403 C  
BRANCH  10  12
HETATM   12  N   UNL     1     -12.142  11.688  67.251  1.00  0.00    -0.436 NA 
HETATM   13  H   UNL     1     -12.653  12.463  67.675  1.00  0.00     0.000 HD 
BRANCH  12  14
HETATM   14  C   UNL     1     -11.176  12.176  66.259  1.00  0.00    -0.334 C  
BRANCH  14  15
HETATM   15  C   UNL     1     -11.594  13.509  65.585  1.00  0.00    -0.325 C  
HETATM   16  H   UNL     1     -13.261  14.306  64.917  1.00  0.00     0.000 HD 
HETATM   17  O   UNL     1     -13.005  13.490  65.330  1.00  0.00    -0.701 OA 
BRANCH  15  18
HETATM   18  C   UNL     1     -11.242  14.700  66.469  1.00  0.00    -0.346 A  
HETATM   19  C   UNL     1     -11.699  14.780  67.802  1.00  0.00    -0.368 A  
HETATM   20  C   UNL     1     -11.355  15.854  68.629  1.00  0.00    -0.376 A  
HETATM   21  H   UNL     1      -9.626  18.643  68.483  1.00  0.00     0.000 HD 
HETATM   22  C   UNL     1     -10.531  16.858  68.108  1.00  0.00    -0.350 A  
HETATM   23  C   UNL     1     -10.422  15.724  65.979  1.00  0.00    -0.350 A  
HETATM   24  C   UNL     1     -10.061  16.793  66.799  1.00  0.00    -0.295 A  
HETATM   25  O   UNL     1     -10.185  17.962  68.837  1.00  0.00    -0.374 OA 
BRANCH  20  26
HETATM   26  N   UNL     1     -11.779  15.938  69.968  1.00  0.00    -0.344 N  
HETATM   27  H   UNL     1     -12.486  16.643  70.177  1.00  0.00     0.000 HD 
HETATM   28  O   UNL     1     -11.759  15.354  72.161  1.00  0.00    -0.392 OA 
HETATM   29  C   UNL     1     -11.350  15.182  71.018  1.00  0.00    -0.316 C  
ENDBRANCH  20  26
ENDBRANCH  15  18
ENDBRANCH  14  15
ENDBRANCH  12  14
ENDBRANCH  10  12
ENDBRANCH   9  10
ENDBRANCH   6   9
ENDBRANCH   2   3
TORSDOF 8
ENDMDL
MODEL      154
REMARK 921   NORMALIZED FREE ENERGY PREDICTED BY IDOCK:   -4.66 KCAL/MOL
REMARK 922        TOTAL FREE ENERGY PREDICTED BY IDOCK:   -8.34 KCAL/MOL
REMARK 923 INTER-LIGAND FREE ENERGY PREDICTED BY IDOCK:   -6.67 KCAL/MOL
REMARK 924 INTRA-LIGAND FREE ENERGY PREDICTED BY IDOCK:   -1.67 KCAL/MOL
REMARK 927      BINDING AFFINITY PREDICTED BY RF-SCORE:    0.00 PKD
ROOT
HETATM    1  C   UNL     1     -11.229   7.530  72.687  1.00  0.00    -0.348 C  
HETATM    2  O   UNL     1     -12.498   8.118  72.413  1.00  0.00    -0.322 OA 
ENDROOT
BRANCH   2   3
HETATM    3  C   UNL     1     -12.442   9.327  71.778  1.00  0.00    -0.381 A  
HETATM    4  C   UNL     1     -11.495   9.437  70.760  1.00  0.00    -0.364 A  
HETATM    5  C   UNL     1     -11.327  10.645  70.078  1.00  0.00    -0.400 A  
HETATM    6  C   UNL     1     -12.131  11.749  70.387  1.00  0.00    -0.440 A  
HETATM    7  C   UNL     1     -13.269  10.411  72.065  1.00  0.00    -0.497 A  
HETATM    8  C   UNL     1     -13.113  11.615  71.376  1.00  0.00    -0.342 A  
BRANCH   6   9
HETATM    9  C   UNL     1     -11.882  13.104  69.768  1.00  0.00    -0.386 C  
BRANCH   9  10
HETATM   10  C   UNL     1     -11.152  13.109  68.403  1.00  0.00    -0.268 C  
HETATM   11  C   UNL     1     -11.677  14.244  67.517  1.00  0.00    -0.415 C  
BRANCH  10  12
HETATM   12  N   UNL     1      -9.688  13.275  68.530  1.00  0.00    -0.356 NA 
HETATM   13  H   UNL     1      -9.328  12.743  69.322  1.00  0.00     0.000 HD 
BRANCH  12  14
HETATM   14  C   UNL     1      -8.965  12.935  67.297  1.00  0.00    -0.208 C  
BRANCH  14  15
HETATM   15  C   UNL     1      -7.634  12.179  67.543  1.00  0.00    -0.151 C  
HETATM   16  H   UNL     1      -5.927  12.554  68.441  1.00  0.00     0.000 HD 
HETATM   17  O   UNL     1      -6.742  13.017  68.290  1.00  0.00    -0.077 OA 
BRANCH  15  18
HETATM   18  C   UNL     1      -7.879  10.878  68.299  1.00  0.00    -0.118 A  
HETATM   19  C   UNL     1      -8.563   9.801  67.695  1.00  0.00    -0.125 A  
HETATM   20  C   UNL     1      -8.765   8.593  68.371  1.00  0.00    -0.142 A  
HETATM   21  H   UNL     1      -8.113   7.247  71.295  1.00  0.00     0.000 HD 
HETATM   22  C   UNL     1      -8.262   8.465  69.671  1.00  0.00    -0.117 A  
HETATM   23  C   UNL     1      -7.391  10.717  69.601  1.00  0.00    -0.133 A  
HETATM   24  C   UNL     1      -7.575   9.511  70.280  1.00  0.00    -0.162 A  
HETATM   25  O   UNL     1      -8.455   7.334  70.413  1.00  0.00    -0.136 OA 
BRANCH  20  26
HETATM   26  N   UNL     1      -9.422   7.499  67.776  1.00  0.00    -0.140 N  
HETATM   27  H   UNL     1      -8.854   6.671  67.600  1.00  0.00     0.000 HD 
HETATM   28  O   UNL     1     -11.206   6.434  66.866  1.00  0.00    -0.368 OA 
HETATM   29  C   UNL     1     -10.732   7.425  67.410  1.00  0.00    -0.278 C  
ENDBRANCH  20  26
ENDBRANCH  15  18
ENDBRANCH  14  15
ENDBRANCH  12  14
ENDBRANCH  10  12
ENDBRANCH   9  10
ENDBRANCH   6   9
ENDBRANCH   2   3
TORSDOF 8
ENDMDL
MODEL      155
REMARK 921   NORMALIZED FREE ENERGY PREDICTED BY IDOCK:   -4.66 KCAL/MOL
REMARK 922        TOTAL FREE ENERGY PREDICTED BY IDOCK:   -8.33 KCAL/MOL
REMARK 923 INTER-LIGAND FREE ENERGY PREDICTED BY IDOCK:   -7.38 KCAL/MOL
REMARK 924 INTRA-LIGAND FREE ENERGY PREDICTED BY IDOCK:   -0.95 KCAL/MOL
REMARK 927      BINDING AFFINITY PREDICTED BY RF-SCORE:    0.00 PKD
ROOT
HETATM    1  C   UNL     1      -6.792   9.282  65.301  1.00  0.00    -0.081 C  
HETATM    2  O   UNL     1      -8.167   9.635  65.179  1.00  0.00    -0.122 OA 
ENDROOT
BRANCH   2   3
HETATM    3  C   UNL     1      -8.820   9.807  66.368  1.00  0.00    -0.146 A  
HETATM    4  C   UNL     1      -8.285   9.125  67.460  1.00  0.00    -0.108 A  
HETATM    5  C   UNL     1      -8.904   9.198  68.710  1.00  0.00    -0.132 A  
HETATM    6  C   UNL     1     -10.051   9.983  68.888  1.00  0.00    -0.200 A  
HETATM    7  C   UNL     1      -9.939  10.617  66.546  1.00  0.00    -0.265 A  
HETATM    8  C   UNL     1     -10.553  10.702  67.797  1.00  0.00    -0.275 A  
BRANCH   6   9
HETATM    9  C   UNL     1     -10.821   9.972  70.186  1.00  0.00    -0.365 C  
BRANCH   9  10
HETATM   10  C   UNL     1     -12.029  10.937  70.275  1.00  0.00    -0.361 C  
HETATM   11  C   UNL     1     -12.998  10.486  71.373  1.00  0.00    -0.542 C  
BRANCH  10  12
HETATM   12  N   UNL     1     -11.635  12.333  70.564  1.00  0.00    -0.408 NA 
HETATM   13  H   UNL     1     -10.732  12.551  70.144  1.00  0.00     0.000 HD 
BRANCH  12  14
HETATM   14  C   UNL     1     -12.654  13.309  70.157  1.00  0.00    -0.044 C  
BRANCH  14  15
HETATM   15  C   UNL     1     -12.141  14.773  70.138  1.00  0.00    -0.327 C  
HETATM   16  H   UNL     1     -10.747  15.807  71.059  1.00  0.00     0.000 HD 
HETATM   17  O   UNL     1     -11.061  14.910  71.071  1.00  0.00    -0.215 OA 
BRANCH  15  18
HETATM   18  C   UNL     1     -11.675  15.168  68.742  1.00  0.00    -0.366 A  
HETATM   19  C   UNL     1     -11.055  16.414  68.504  1.00  0.00    -0.357 A  
HETATM   20  C   UNL     1     -10.597  16.772  67.232  1.00  0.00    -0.275 A  
HETATM   21  H   UNL     1     -10.487  15.526  64.194  1.00  0.00     0.000 HD 
HETATM   22  C   UNL     1     -10.758  15.856  66.185  1.00  0.00    -0.271 A  
HETATM   23  C   UNL     1     -11.823  14.278  67.671  1.00  0.00    -0.420 A  
HETATM   24  C   UNL     1     -11.358  14.619  66.400  1.00  0.00    -0.348 A  
HETATM   25  O   UNL     1     -10.377  16.147  64.905  1.00  0.00    -0.563 OA 
BRANCH  20  26
HETATM   26  N   UNL     1      -9.953  17.998  66.981  1.00  0.00    -0.314 N  
HETATM   27  H   UNL     1      -8.951  18.030  67.168  1.00  0.00     0.000 HD 
HETATM   28  O   UNL     1      -9.877  20.179  66.360  1.00  0.00    -0.424 OA 
HETATM   29  C   UNL     1     -10.520  19.146  66.516  1.00  0.00    -0.448 C  
ENDBRANCH  20  26
ENDBRANCH  15  18
ENDBRANCH  14  15
ENDBRANCH  12  14
ENDBRANCH  10  12
ENDBRANCH   9  10
ENDBRANCH   6   9
ENDBRANCH   2   3
TORSDOF 8
ENDMDL
MODEL      156
REMARK 921   NORMALIZED FREE ENERGY PREDICTED BY IDOCK:   -4.65 KCAL/MOL
REMARK 922        TOTAL FREE ENERGY PREDICTED BY IDOCK:   -8.32 KCAL/MOL
REMARK 923 INTER-LIGAND FREE ENERGY PREDICTED BY IDOCK:   -7.65 KCAL/MOL
REMARK 924 INTRA-LIGAND FREE ENERGY PREDICTED BY IDOCK:   -0.66 KCAL/MOL
REMARK 927      BINDING AFFINITY PREDICTED BY RF-SCORE:    0.00 PKD
ROOT
HETATM    1  C   UNL     1      -5.755  20.040  71.540  1.00  0.00    -0.368 C  
HETATM    2  O   UNL     1      -5.154  19.237  70.528  1.00  0.00    -0.192 OA 
ENDROOT
BRANCH   2   3
HETATM    3  C   UNL     1      -6.034  18.675  69.646  1.00  0.00    -0.257 A  
HETATM    4  C   UNL     1      -7.117  19.472  69.277  1.00  0.00    -0.372 A  
HETATM    5  C   UNL     1      -8.098  18.975  68.414  1.00  0.00    -0.381 A  
HETATM    6  C   UNL     1      -7.987  17.683  67.886  1.00  0.00    -0.231 A  
HETATM    7  C   UNL     1      -5.900  17.403  69.096  1.00  0.00    -0.200 A  
HETATM    8  C   UNL     1      -6.871  16.908  68.224  1.00  0.00    -0.164 A  
BRANCH   6   9
HETATM    9  C   UNL     1      -9.096  17.068  67.066  1.00  0.00    -0.234 C  
BRANCH   9  10
HETATM   10  C   UNL     1      -9.667  15.725  67.584  1.00  0.00    -0.222 C  
HETATM   11  C   UNL     1     -10.935  15.963  68.411  1.00  0.00    -0.331 C  
BRANCH  10  12
HETATM   12  N   UNL     1     -10.006  14.782  66.496  1.00  0.00    -0.261 NA 
HETATM   13  H   UNL     1      -9.838  13.818  66.784  1.00  0.00     0.000 HD 
BRANCH  12  14
HETATM   14  C   UNL     1     -11.378  14.950  66.001  1.00  0.00    -0.306 C  
BRANCH  14  15
HETATM   15  C   UNL     1     -12.167  13.619  65.885  1.00  0.00    -0.461 C  
HETATM   16  H   UNL     1     -13.801  13.005  64.983  1.00  0.00     0.000 HD 
HETATM   17  O   UNL     1     -13.318  13.820  65.054  1.00  0.00    -0.586 OA 
BRANCH  15  18
HETATM   18  C   UNL     1     -11.291  12.517  65.301  1.00  0.00    -0.363 A  
HETATM   19  C   UNL     1     -10.809  11.464  66.108  1.00  0.00    -0.310 A  
HETATM   20  C   UNL     1     -10.030  10.432  65.573  1.00  0.00    -0.282 A  
HETATM   21  H   UNL     1      -8.751   9.529  62.685  1.00  0.00     0.000 HD 
HETATM   22  C   UNL     1      -9.739  10.458  64.204  1.00  0.00    -0.324 A  
HETATM   23  C   UNL     1     -10.977  12.514  63.936  1.00  0.00    -0.471 A  
HETATM   24  C   UNL     1     -10.212  11.483  63.390  1.00  0.00    -0.462 A  
HETATM   25  O   UNL     1      -8.949   9.511  63.614  1.00  0.00    -0.231 OA 
BRANCH  20  26
HETATM   26  N   UNL     1      -9.564   9.359  66.356  1.00  0.00    -0.204 N  
HETATM   27  H   UNL     1      -8.576   9.379  66.610  1.00  0.00     0.000 HD 
HETATM   28  O   UNL     1      -9.779   7.390  67.463  1.00  0.00    -0.138 OA 
HETATM   29  C   UNL     1     -10.286   8.297  66.812  1.00  0.00    -0.304 C  
ENDBRANCH  20  26
ENDBRANCH  15  18
ENDBRANCH  14  15
ENDBRANCH  12  14
ENDBRANCH  10  12
ENDBRANCH   9  10
ENDBRANCH   6   9
ENDBRANCH   2   3
TORSDOF 8
ENDMDL
MODEL      157
REMARK 921   NORMALIZED FREE ENERGY PREDICTED BY IDOCK:   -4.64 KCAL/MOL
REMARK 922        TOTAL FREE ENERGY PREDICTED BY IDOCK:   -8.30 KCAL/MOL
REMARK 923 INTER-LIGAND FREE ENERGY PREDICTED BY IDOCK:   -6.42 KCAL/MOL
REMARK 924 INTRA-LIGAND FREE ENERGY PREDICTED BY IDOCK:   -1.89 KCAL/MOL
REMARK 927      BINDING AFFINITY PREDICTED BY RF-SCORE:    0.00 PKD
ROOT
HETATM    1  C   UNL     1     -10.236  20.163  67.310  1.00  0.00    -0.400 C  
HETATM    2  O   UNL     1      -9.096  19.449  66.842  1.00  0.00    -0.296 OA 
ENDROOT
BRANCH   2   3
HETATM    3  C   UNL     1      -9.364  18.200  66.354  1.00  0.00    -0.265 A  
HETATM    4  C   UNL     1     -10.633  18.021  65.805  1.00  0.00    -0.174 A  
HETATM    5  C   UNL     1     -11.022  16.770  65.318  1.00  0.00    -0.084 A  
HETATM    6  C   UNL     1     -10.130  15.691  65.347  1.00  0.00    -0.370 A  
HETATM    7  C   UNL     1      -8.460  17.140  66.352  1.00  0.00    -0.307 A  
HETATM    8  C   UNL     1      -8.842  15.893  65.855  1.00  0.00    -0.168 A  
BRANCH   6   9
HETATM    9  C   UNL     1     -10.565  14.298  64.960  1.00  0.00    -0.444 C  
BRANCH   9  10
HETATM   10  C   UNL     1     -12.091  14.039  64.936  1.00  0.00    -0.420 C  
HETATM   11  C   UNL     1     -12.392  12.648  64.366  1.00  0.00    -0.523 C  
BRANCH  10  12
HETATM   12  N   UNL     1     -12.716  14.125  66.274  1.00  0.00    -0.487 NA 
HETATM   13  H   UNL     1     -13.721  13.964  66.217  1.00  0.00     0.000 HD 
BRANCH  12  14
HETATM   14  C   UNL     1     -12.094  13.224  67.253  1.00  0.00    -0.289 C  
BRANCH  14  15
HETATM   15  C   UNL     1     -11.730  13.917  68.592  1.00  0.00    -0.361 C  
HETATM   16  H   UNL     1     -12.032  13.572  70.503  1.00  0.00     0.000 HD 
HETATM   17  O   UNL     1     -12.255  13.148  69.683  1.00  0.00    -0.270 OA 
BRANCH  15  18
HETATM   18  C   UNL     1     -10.220  14.060  68.738  1.00  0.00    -0.200 A  
HETATM   19  C   UNL     1      -9.341  13.084  68.221  1.00  0.00    -0.199 A  
HETATM   20  C   UNL     1      -7.952  13.223  68.323  1.00  0.00    -0.144 A  
HETATM   21  H   UNL     1      -5.754  15.335  69.548  1.00  0.00     0.000 HD 
HETATM   22  C   UNL     1      -7.442  14.368  68.947  1.00  0.00    -0.132 A  
HETATM   23  C   UNL     1      -9.675  15.191  69.358  1.00  0.00    -0.206 A  
HETATM   24  C   UNL     1      -8.292  15.347  69.454  1.00  0.00    -0.250 A  
HETATM   25  O   UNL     1      -6.101  14.558  69.125  1.00  0.00    -0.091 OA 
BRANCH  20  26
HETATM   26  N   UNL     1      -7.060  12.274  67.791  1.00  0.00    -0.102 N  
HETATM   27  H   UNL     1      -6.108  12.292  68.157  1.00  0.00     0.000 HD 
HETATM   28  O   UNL     1      -6.469  10.567  66.418  1.00  0.00    -0.088 OA 
HETATM   29  C   UNL     1      -7.327  11.333  66.842  1.00  0.00    -0.145 C  
ENDBRANCH  20  26
ENDBRANCH  15  18
ENDBRANCH  14  15
ENDBRANCH  12  14
ENDBRANCH  10  12
ENDBRANCH   9  10
ENDBRANCH   6   9
ENDBRANCH   2   3
TORSDOF 8
ENDMDL
MODEL      158
REMARK 921   NORMALIZED FREE ENERGY PREDICTED BY IDOCK:   -4.64 KCAL/MOL
REMARK 922        TOTAL FREE ENERGY PREDICTED BY IDOCK:   -8.30 KCAL/MOL
REMARK 923 INTER-LIGAND FREE ENERGY PREDICTED BY IDOCK:   -6.65 KCAL/MOL
REMARK 924 INTRA-LIGAND FREE ENERGY PREDICTED BY IDOCK:   -1.65 KCAL/MOL
REMARK 927      BINDING AFFINITY PREDICTED BY RF-SCORE:    0.00 PKD
ROOT
HETATM    1  C   UNL     1     -11.143   7.115  72.810  1.00  0.00    -0.300 C  
HETATM    2  O   UNL     1     -12.250   7.427  71.969  1.00  0.00    -0.297 OA 
ENDROOT
BRANCH   2   3
HETATM    3  C   UNL     1     -12.285   8.720  71.526  1.00  0.00    -0.327 A  
HETATM    4  C   UNL     1     -11.377   9.043  70.519  1.00  0.00    -0.282 A  
HETATM    5  C   UNL     1     -11.302  10.349  70.027  1.00  0.00    -0.384 A  
HETATM    6  C   UNL     1     -12.160  11.341  70.519  1.00  0.00    -0.481 A  
HETATM    7  C   UNL     1     -13.166   9.693  71.993  1.00  0.00    -0.546 A  
HETATM    8  C   UNL     1     -13.102  10.996  71.495  1.00  0.00    -0.500 A  
BRANCH   6   9
HETATM    9  C   UNL     1     -12.010  12.787  70.111  1.00  0.00    -0.371 C  
BRANCH   9  10
HETATM   10  C   UNL     1     -11.333  13.046  68.743  1.00  0.00    -0.289 C  
HETATM   11  C   UNL     1     -12.108  14.105  67.951  1.00  0.00    -0.309 C  
BRANCH  10  12
HETATM   12  N   UNL     1      -9.934  13.508  68.867  1.00  0.00    -0.429 NA 
HETATM   13  H   UNL     1      -9.444  12.994  69.599  1.00  0.00     0.000 HD 
BRANCH  12  14
HETATM   14  C   UNL     1      -9.197  13.445  67.598  1.00  0.00    -0.212 C  
BRANCH  14  15
HETATM   15  C   UNL     1      -8.093  12.356  67.572  1.00  0.00    -0.173 C  
HETATM   16  H   UNL     1      -6.697  11.712  68.796  1.00  0.00     0.000 HD 
HETATM   17  O   UNL     1      -7.373  12.379  68.812  1.00  0.00    -0.108 OA 
BRANCH  15  18
HETATM   18  C   UNL     1      -8.696  10.975  67.347  1.00  0.00    -0.132 A  
HETATM   19  C   UNL     1      -8.270   9.861  68.101  1.00  0.00    -0.109 A  
HETATM   20  C   UNL     1      -8.841   8.596  67.922  1.00  0.00    -0.137 A  
HETATM   21  H   UNL     1     -11.133   7.148  66.068  1.00  0.00     0.000 HD 
HETATM   22  C   UNL     1      -9.862   8.454  66.976  1.00  0.00    -0.230 A  
HETATM   23  C   UNL     1      -9.718  10.797  66.406  1.00  0.00    -0.241 A  
HETATM   24  C   UNL     1     -10.304   9.542  66.229  1.00  0.00    -0.226 A  
HETATM   25  O   UNL     1     -10.440   7.244  66.710  1.00  0.00    -0.286 OA 
BRANCH  20  26
HETATM   26  N   UNL     1      -8.448   7.479  68.683  1.00  0.00    -0.129 N  
HETATM   27  H   UNL     1      -9.189   6.986  69.182  1.00  0.00     0.000 HD 
HETATM   28  O   UNL     1      -6.939   6.018  69.543  1.00  0.00    -0.062 OA 
HETATM   29  C   UNL     1      -7.187   6.982  68.827  1.00  0.00    -0.091 C  
ENDBRANCH  20  26
ENDBRANCH  15  18
ENDBRANCH  14  15
ENDBRANCH  12  14
ENDBRANCH  10  12
ENDBRANCH   9  10
ENDBRANCH   6   9
ENDBRANCH   2   3
TORSDOF 8
ENDMDL
MODEL      159
REMARK 921   NORMALIZED FREE ENERGY PREDICTED BY IDOCK:   -4.64 KCAL/MOL
REMARK 922        TOTAL FREE ENERGY PREDICTED BY IDOCK:   -8.30 KCAL/MOL
REMARK 923 INTER-LIGAND FREE ENERGY PREDICTED BY IDOCK:   -7.61 KCAL/MOL
REMARK 924 INTRA-LIGAND FREE ENERGY PREDICTED BY IDOCK:   -0.69 KCAL/MOL
REMARK 927      BINDING AFFINITY PREDICTED BY RF-SCORE:    0.00 PKD
ROOT
HETATM    1  C   UNL     1      -7.989   7.839  65.181  1.00  0.00    -0.129 C  
HETATM    2  O   UNL     1      -8.513   8.502  64.034  1.00  0.00    -0.135 OA 
ENDROOT
BRANCH   2   3
HETATM    3  C   UNL     1      -9.053   9.733  64.281  1.00  0.00    -0.246 A  
HETATM    4  C   UNL     1      -9.400  10.482  63.158  1.00  0.00    -0.344 A  
HETATM    5  C   UNL     1      -9.919  11.771  63.301  1.00  0.00    -0.435 A  
HETATM    6  C   UNL     1     -10.126  12.313  64.576  1.00  0.00    -0.280 A  
HETATM    7  C   UNL     1      -9.291  10.252  65.552  1.00  0.00    -0.250 A  
HETATM    8  C   UNL     1      -9.821  11.535  65.699  1.00  0.00    -0.269 A  
BRANCH   6   9
HETATM    9  C   UNL     1     -10.552  13.750  64.763  1.00  0.00    -0.444 C  
BRANCH   9  10
HETATM   10  C   UNL     1     -11.961  13.974  65.362  1.00  0.00    -0.380 C  
HETATM   11  C   UNL     1     -12.907  12.840  64.952  1.00  0.00    -0.357 C  
BRANCH  10  12
HETATM   12  N   UNL     1     -11.958  14.049  66.839  1.00  0.00    -0.430 NA 
HETATM   13  H   UNL     1     -12.178  13.142  67.251  1.00  0.00     0.000 HD 
BRANCH  12  14
HETATM   14  C   UNL     1     -10.702  14.581  67.382  1.00  0.00    -0.282 C  
BRANCH  14  15
HETATM   15  C   UNL     1     -10.805  16.051  67.868  1.00  0.00    -0.333 C  
HETATM   16  H   UNL     1     -11.122  16.968  69.576  1.00  0.00     0.000 HD 
HETATM   17  O   UNL     1     -11.058  16.068  69.279  1.00  0.00    -0.285 OA 
BRANCH  15  18
HETATM   18  C   UNL     1      -9.525  16.817  67.560  1.00  0.00    -0.237 A  
HETATM   19  C   UNL     1      -9.119  17.910  68.355  1.00  0.00    -0.292 A  
HETATM   20  C   UNL     1      -7.929  18.600  68.098  1.00  0.00    -0.289 A  
HETATM   21  H   UNL     1      -5.438  18.535  65.958  1.00  0.00     0.000 HD 
HETATM   22  C   UNL     1      -7.132  18.176  67.028  1.00  0.00    -0.196 A  
HETATM   23  C   UNL     1      -8.705  16.422  66.496  1.00  0.00    -0.324 A  
HETATM   24  C   UNL     1      -7.509  17.094  66.238  1.00  0.00    -0.344 A  
HETATM   25  O   UNL     1      -5.979  18.823  66.684  1.00  0.00    -0.157 OA 
BRANCH  20  26
HETATM   26  N   UNL     1      -7.495  19.675  68.896  1.00  0.00    -0.347 N  
HETATM   27  H   UNL     1      -7.994  20.556  68.780  1.00  0.00     0.000 HD 
HETATM   28  O   UNL     1      -6.156  20.671  70.433  1.00  0.00    -0.499 OA 
HETATM   29  C   UNL     1      -6.482  19.668  69.807  1.00  0.00    -0.320 C  
ENDBRANCH  20  26
ENDBRANCH  15  18
ENDBRANCH  14  15
ENDBRANCH  12  14
ENDBRANCH  10  12
ENDBRANCH   9  10
ENDBRANCH   6   9
ENDBRANCH   2   3
TORSDOF 8
ENDMDL
MODEL      160
REMARK 921   NORMALIZED FREE ENERGY PREDICTED BY IDOCK:   -4.62 KCAL/MOL
REMARK 922        TOTAL FREE ENERGY PREDICTED BY IDOCK:   -8.28 KCAL/MOL
REMARK 923 INTER-LIGAND FREE ENERGY PREDICTED BY IDOCK:   -7.15 KCAL/MOL
REMARK 924 INTRA-LIGAND FREE ENERGY PREDICTED BY IDOCK:   -1.13 KCAL/MOL
REMARK 927      BINDING AFFINITY PREDICTED BY RF-SCORE:    0.00 PKD
ROOT
HETATM    1  C   UNL     1      -9.394  20.540  66.940  1.00  0.00    -0.298 C  
HETATM    2  O   UNL     1      -8.488  19.609  66.354  1.00  0.00    -0.327 OA 
ENDROOT
BRANCH   2   3
HETATM    3  C   UNL     1      -8.421  18.401  66.989  1.00  0.00    -0.253 A  
HETATM    4  C   UNL     1      -9.136  18.299  68.182  1.00  0.00    -0.310 A  
HETATM    5  C   UNL     1      -9.097  17.120  68.931  1.00  0.00    -0.192 A  
HETATM    6  C   UNL     1      -8.364  16.017  68.476  1.00  0.00    -0.191 A  
HETATM    7  C   UNL     1      -7.720  17.295  66.514  1.00  0.00    -0.325 A  
HETATM    8  C   UNL     1      -7.689  16.111  67.253  1.00  0.00    -0.212 A  
BRANCH   6   9
HETATM    9  C   UNL     1      -8.188  14.781  69.326  1.00  0.00    -0.065 C  
BRANCH   9  10
HETATM   10  C   UNL     1      -7.568  13.549  68.624  1.00  0.00    -0.108 C  
HETATM   11  C   UNL     1      -6.052  13.509  68.847  1.00  0.00    -0.089 C  
BRANCH  10  12
HETATM   12  N   UNL     1      -8.129  12.266  69.101  1.00  0.00    -0.285 NA 
HETATM   13  H   UNL     1      -9.066  12.398  69.481  1.00  0.00     0.000 HD 
BRANCH  12  14
HETATM   14  C   UNL     1      -8.122  11.220  68.070  1.00  0.00    -0.128 C  
BRANCH  14  15
HETATM   15  C   UNL     1      -7.955  11.768  66.629  1.00  0.00    -0.070 C  
HETATM   16  H   UNL     1      -7.080  11.176  64.972  1.00  0.00     0.000 HD 
HETATM   17  O   UNL     1      -7.182  10.841  65.855  1.00  0.00    -0.144 OA 
BRANCH  15  18
HETATM   18  C   UNL     1      -9.312  11.989  65.971  1.00  0.00    -0.196 A  
HETATM   19  C   UNL     1      -9.702  13.266  65.513  1.00  0.00    -0.063 A  
HETATM   20  C   UNL     1     -10.933  13.471  64.880  1.00  0.00    -0.352 A  
HETATM   21  H   UNL     1     -13.590  11.750  64.006  1.00  0.00     0.000 HD 
HETATM   22  C   UNL     1     -11.779  12.371  64.698  1.00  0.00    -0.365 A  
HETATM   23  C   UNL     1     -10.185  10.912  65.775  1.00  0.00    -0.318 A  
HETATM   24  C   UNL     1     -11.409  11.102  65.134  1.00  0.00     0.117 A  
HETATM   25  O   UNL     1     -13.016  12.496  64.129  1.00  0.00    -0.740 OA 
BRANCH  20  26
HETATM   26  N   UNL     1     -11.327  14.732  64.394  1.00  0.00    -0.638 N  
HETATM   27  H   UNL     1     -11.996  14.731  63.624  1.00  0.00     0.000 HD 
HETATM   28  O   UNL     1     -11.293  16.999  64.324  1.00  0.00    -1.191 OA 
HETATM   29  C   UNL     1     -10.915  15.952  64.838  1.00  0.00    -0.411 C  
ENDBRANCH  20  26
ENDBRANCH  15  18
ENDBRANCH  14  15
ENDBRANCH  12  14
ENDBRANCH  10  12
ENDBRANCH   9  10
ENDBRANCH   6   9
ENDBRANCH   2   3
TORSDOF 8
ENDMDL
MODEL      161
REMARK 921   NORMALIZED FREE ENERGY PREDICTED BY IDOCK:   -4.61 KCAL/MOL
REMARK 922        TOTAL FREE ENERGY PREDICTED BY IDOCK:   -8.27 KCAL/MOL
REMARK 923 INTER-LIGAND FREE ENERGY PREDICTED BY IDOCK:   -6.94 KCAL/MOL
REMARK 924 INTRA-LIGAND FREE ENERGY PREDICTED BY IDOCK:   -1.33 KCAL/MOL
REMARK 927      BINDING AFFINITY PREDICTED BY RF-SCORE:    0.00 PKD
ROOT
HETATM    1  C   UNL     1      -7.630   9.897  66.582  1.00  0.00    -0.103 C  
HETATM    2  O   UNL     1      -8.998   9.903  66.981  1.00  0.00    -0.137 OA 
ENDROOT
BRANCH   2   3
HETATM    3  C   UNL     1      -9.246   9.296  68.180  1.00  0.00    -0.130 A  
HETATM    4  C   UNL     1      -8.697   9.917  69.301  1.00  0.00    -0.172 A  
HETATM    5  C   UNL     1      -8.855   9.353  70.570  1.00  0.00    -0.287 A  
HETATM    6  C   UNL     1      -9.595   8.175  70.733  1.00  0.00    -0.185 A  
HETATM    7  C   UNL     1     -10.013   8.145  68.341  1.00  0.00    -0.210 A  
HETATM    8  C   UNL     1     -10.184   7.586  69.609  1.00  0.00    -0.205 A  
BRANCH   6   9
HETATM    9  C   UNL     1      -9.666   7.467  72.065  1.00  0.00    -0.195 C  
BRANCH   9  10
HETATM   10  C   UNL     1     -10.942   6.631  72.329  1.00  0.00    -0.246 C  
HETATM   11  C   UNL     1     -10.663   5.535  73.363  1.00  0.00    -0.317 C  
BRANCH  10  12
HETATM   12  N   UNL     1     -12.076   7.442  72.823  1.00  0.00    -0.541 NA 
HETATM   13  H   UNL     1     -11.743   8.276  73.306  1.00  0.00     0.000 HD 
BRANCH  12  14
HETATM   14  C   UNL     1     -13.031   7.794  71.764  1.00  0.00    -0.323 C  
BRANCH  14  15
HETATM   15  C   UNL     1     -13.995   8.945  72.152  1.00  0.00    -0.456 C  
HETATM   16  H   UNL     1     -14.777   9.651  73.811  1.00  0.00     0.000 HD 
HETATM   17  O   UNL     1     -14.187   8.946  73.573  1.00  0.00    -0.019 OA 
BRANCH  15  18
HETATM   18  C   UNL     1     -13.443  10.292  71.702  1.00  0.00    -0.360 A  
HETATM   19  C   UNL     1     -13.759  11.479  72.396  1.00  0.00     0.343 A  
HETATM   20  C   UNL     1     -13.232  12.716  72.008  1.00  0.00    -0.427 A  
HETATM   21  H   UNL     1     -11.257  13.954  69.693  1.00  0.00     0.000 HD 
HETATM   22  C   UNL     1     -12.366  12.754  70.908  1.00  0.00    -0.265 A  
HETATM   23  C   UNL     1     -12.577  10.368  70.604  1.00  0.00    -0.435 A  
HETATM   24  C   UNL     1     -12.034  11.594  70.216  1.00  0.00    -0.445 A  
HETATM   25  O   UNL     1     -11.844  13.927  70.439  1.00  0.00    -0.298 OA 
BRANCH  20  26
HETATM   26  N   UNL     1     -13.514  13.906  72.704  1.00  0.00    -0.555 N  
HETATM   27  H   UNL     1     -14.497  14.167  72.775  1.00  0.00     0.000 HD 
HETATM   28  O   UNL     1     -12.963  15.785  73.850  1.00  0.00    -0.525 OA 
HETATM   29  C   UNL     1     -12.619  14.749  73.292  1.00  0.00    -0.441 C  
ENDBRANCH  20  26
ENDBRANCH  15  18
ENDBRANCH  14  15
ENDBRANCH  12  14
ENDBRANCH  10  12
ENDBRANCH   9  10
ENDBRANCH   6   9
ENDBRANCH   2   3
TORSDOF 8
ENDMDL
MODEL      162
REMARK 921   NORMALIZED FREE ENERGY PREDICTED BY IDOCK:   -4.60 KCAL/MOL
REMARK 922        TOTAL FREE ENERGY PREDICTED BY IDOCK:   -8.25 KCAL/MOL
REMARK 923 INTER-LIGAND FREE ENERGY PREDICTED BY IDOCK:   -7.03 KCAL/MOL
REMARK 924 INTRA-LIGAND FREE ENERGY PREDICTED BY IDOCK:   -1.22 KCAL/MOL
REMARK 927      BINDING AFFINITY PREDICTED BY RF-SCORE:    0.00 PKD
ROOT
HETATM    1  C   UNL     1      -9.570   4.649  65.188  1.00  0.00    -0.128 C  
HETATM    2  O   UNL     1      -8.822   5.439  66.107  1.00  0.00    -0.130 OA 
ENDROOT
BRANCH   2   3
HETATM    3  C   UNL     1      -9.485   5.756  67.260  1.00  0.00    -0.114 A  
HETATM    4  C   UNL     1      -8.760   5.601  68.441  1.00  0.00    -0.109 A  
HETATM    5  C   UNL     1      -9.360   5.856  69.677  1.00  0.00    -0.162 A  
HETATM    6  C   UNL     1     -10.686   6.302  69.741  1.00  0.00    -0.358 A  
HETATM    7  C   UNL     1     -10.792   6.234  67.316  1.00  0.00    -0.457 A  
HETATM    8  C   UNL     1     -11.390   6.502  68.548  1.00  0.00    -0.179 A  
BRANCH   6   9
HETATM    9  C   UNL     1     -11.404   6.452  71.061  1.00  0.00    -0.386 C  
BRANCH   9  10
HETATM   10  C   UNL     1     -11.456   7.881  71.654  1.00  0.00    -0.263 C  
HETATM   11  C   UNL     1     -10.040   8.400  71.929  1.00  0.00    -0.337 C  
BRANCH  10  12
HETATM   12  N   UNL     1     -12.130   8.853  70.767  1.00  0.00    -0.476 NA 
HETATM   13  H   UNL     1     -12.951   9.253  71.222  1.00  0.00     0.000 HD 
BRANCH  12  14
HETATM   14  C   UNL     1     -11.229   9.909  70.286  1.00  0.00    -0.301 C  
BRANCH  14  15
HETATM   15  C   UNL     1     -11.961  11.073  69.569  1.00  0.00    -0.342 C  
HETATM   16  H   UNL     1     -12.244  12.991  69.890  1.00  0.00     0.000 HD 
HETATM   17  O   UNL     1     -11.796  12.278  70.329  1.00  0.00    -0.324 OA 
BRANCH  15  18
HETATM   18  C   UNL     1     -11.419  11.270  68.159  1.00  0.00    -0.376 A  
HETATM   19  C   UNL     1     -10.797  10.212  67.461  1.00  0.00    -0.349 A  
HETATM   20  C   UNL     1     -10.324  10.376  66.155  1.00  0.00    -0.200 A  
HETATM   21  H   UNL     1     -10.127  12.722  63.864  1.00  0.00     0.000 HD 
HETATM   22  C   UNL     1     -10.489  11.622  65.539  1.00  0.00    -0.273 A  
HETATM   23  C   UNL     1     -11.564  12.505  67.513  1.00  0.00    -0.424 A  
HETATM   24  C   UNL     1     -11.108  12.676  66.205  1.00  0.00    -0.330 A  
HETATM   25  O   UNL     1     -10.016  11.876  64.282  1.00  0.00    -0.266 OA 
BRANCH  20  26
HETATM   26  N   UNL     1      -9.725   9.326  65.434  1.00  0.00    -0.456 N  
HETATM   27  H   UNL     1     -10.357   8.699  64.937  1.00  0.00     0.000 HD 
HETATM   28  O   UNL     1      -7.970   8.090  64.699  1.00  0.00    -0.138 OA 
HETATM   29  C   UNL     1      -8.394   9.054  65.328  1.00  0.00    -0.149 C  
ENDBRANCH  20  26
ENDBRANCH  15  18
ENDBRANCH  14  15
ENDBRANCH  12  14
ENDBRANCH  10  12
ENDBRANCH   9  10
ENDBRANCH   6   9
ENDBRANCH   2   3
TORSDOF 8
ENDMDL
MODEL      163
REMARK 921   NORMALIZED FREE ENERGY PREDICTED BY IDOCK:   -4.57 KCAL/MOL
REMARK 922        TOTAL FREE ENERGY PREDICTED BY IDOCK:   -8.20 KCAL/MOL
REMARK 923 INTER-LIGAND FREE ENERGY PREDICTED BY IDOCK:   -6.99 KCAL/MOL
REMARK 924 INTRA-LIGAND FREE ENERGY PREDICTED BY IDOCK:   -1.21 KCAL/MOL
REMARK 927      BINDING AFFINITY PREDICTED BY RF-SCORE:    0.00 PKD
ROOT
HETATM    1  C   UNL     1      -8.004   9.375  63.285  1.00  0.00    -0.142 C  
HETATM    2  O   UNL     1      -8.924  10.411  63.619  1.00  0.00    -0.192 OA 
ENDROOT
BRANCH   2   3
HETATM    3  C   UNL     1      -9.235  10.492  64.948  1.00  0.00    -0.215 A  
HETATM    4  C   UNL     1      -8.165  10.359  65.833  1.00  0.00    -0.150 A  
HETATM    5  C   UNL     1      -8.382  10.383  67.212  1.00  0.00    -0.122 A  
HETATM    6  C   UNL     1      -9.673  10.574  67.722  1.00  0.00    -0.180 A  
HETATM    7  C   UNL     1     -10.515  10.719  65.449  1.00  0.00    -0.272 A  
HETATM    8  C   UNL     1     -10.733  10.756  66.827  1.00  0.00    -0.291 A  
BRANCH   6   9
HETATM    9  C   UNL     1      -9.961  10.466  69.201  1.00  0.00    -0.237 C  
BRANCH   9  10
HETATM   10  C   UNL     1     -11.454  10.403  69.605  1.00  0.00    -0.262 C  
HETATM   11  C   UNL     1     -11.729   9.161  70.459  1.00  0.00    -0.193 C  
BRANCH  10  12
HETATM   12  N   UNL     1     -11.897  11.587  70.372  1.00  0.00    -0.450 NA 
HETATM   13  H   UNL     1     -11.842  11.413  71.376  1.00  0.00     0.000 HD 
BRANCH  12  14
HETATM   14  C   UNL     1     -11.167  12.809  70.011  1.00  0.00     0.298 C  
BRANCH  14  15
HETATM   15  C   UNL     1     -12.084  14.039  69.782  1.00  0.00    -0.348 C  
HETATM   16  H   UNL     1     -12.696  15.577  70.840  1.00  0.00     0.000 HD 
HETATM   17  O   UNL     1     -12.134  14.824  70.980  1.00  0.00    -0.292 OA 
BRANCH  15  18
HETATM   18  C   UNL     1     -11.574  14.889  68.625  1.00  0.00    -0.342 A  
HETATM   19  C   UNL     1     -11.708  14.458  67.287  1.00  0.00    -0.429 A  
HETATM   20  C   UNL     1     -11.270  15.247  66.218  1.00  0.00    -0.223 A  
HETATM   21  H   UNL     1      -9.817  18.149  65.707  1.00  0.00     0.000 HD 
HETATM   22  C   UNL     1     -10.697  16.493  66.500  1.00  0.00    -0.144 A  
HETATM   23  C   UNL     1     -10.993  16.140  68.871  1.00  0.00    -0.324 A  
HETATM   24  C   UNL     1     -10.565  16.941  67.811  1.00  0.00    -0.340 A  
HETATM   25  O   UNL     1     -10.206  17.303  65.516  1.00  0.00    -0.602 OA 
BRANCH  20  26
HETATM   26  N   UNL     1     -11.419  14.846  64.877  1.00  0.00    -0.395 N  
HETATM   27  H   UNL     1     -10.845  15.335  64.191  1.00  0.00     0.000 HD 
HETATM   28  O   UNL     1     -12.329  13.621  63.198  1.00  0.00    -0.729 OA 
HETATM   29  C   UNL     1     -12.246  13.877  64.394  1.00  0.00    -0.413 C  
ENDBRANCH  20  26
ENDBRANCH  15  18
ENDBRANCH  14  15
ENDBRANCH  12  14
ENDBRANCH  10  12
ENDBRANCH   9  10
ENDBRANCH   6   9
ENDBRANCH   2   3
TORSDOF 8
ENDMDL
MODEL      164
REMARK 921   NORMALIZED FREE ENERGY PREDICTED BY IDOCK:   -4.56 KCAL/MOL
REMARK 922        TOTAL FREE ENERGY PREDICTED BY IDOCK:   -8.19 KCAL/MOL
REMARK 923 INTER-LIGAND FREE ENERGY PREDICTED BY IDOCK:   -7.10 KCAL/MOL
REMARK 924 INTRA-LIGAND FREE ENERGY PREDICTED BY IDOCK:   -1.09 KCAL/MOL
REMARK 927      BINDING AFFINITY PREDICTED BY RF-SCORE:    0.00 PKD
ROOT
HETATM    1  C   UNL     1     -11.701  15.106  71.660  1.00  0.00    -0.398 C  
HETATM    2  O   UNL     1     -10.671  15.068  70.677  1.00  0.00    -0.172 OA 
ENDROOT
BRANCH   2   3
HETATM    3  C   UNL     1     -11.105  14.831  69.403  1.00  0.00    -0.281 A  
HETATM    4  C   UNL     1     -11.681  13.581  69.180  1.00  0.00    -0.374 A  
HETATM    5  C   UNL     1     -12.117  13.222  67.902  1.00  0.00    -0.270 A  
HETATM    6  C   UNL     1     -12.009  14.126  66.837  1.00  0.00    -0.479 A  
HETATM    7  C   UNL     1     -11.028  15.747  68.357  1.00  0.00    -0.323 A  
HETATM    8  C   UNL     1     -11.474  15.396  67.081  1.00  0.00    -0.133 A  
BRANCH   6   9
HETATM    9  C   UNL     1     -12.339  13.720  65.421  1.00  0.00    -0.504 C  
BRANCH   9  10
HETATM   10  C   UNL     1     -11.630  12.451  64.888  1.00  0.00    -0.343 C  
HETATM   11  C   UNL     1     -12.046  12.170  63.440  1.00  0.00    -0.608 C  
BRANCH  10  12
HETATM   12  N   UNL     1     -10.155  12.554  64.924  1.00  0.00    -0.403 NA 
HETATM   13  H   UNL     1      -9.861  13.515  65.101  1.00  0.00     0.000 HD 
BRANCH  12  14
HETATM   14  C   UNL     1      -9.540  11.630  65.886  1.00  0.00    -0.229 C  
BRANCH  14  15
HETATM   15  C   UNL     1     -10.006  10.160  65.723  1.00  0.00    -0.271 C  
HETATM   16  H   UNL     1      -9.553   8.642  64.561  1.00  0.00     0.000 HD 
HETATM   17  O   UNL     1      -9.267   9.542  64.661  1.00  0.00    -0.239 OA 
BRANCH  15  18
HETATM   18  C   UNL     1      -9.808   9.380  67.017  1.00  0.00    -0.258 A  
HETATM   19  C   UNL     1      -8.926   9.840  68.019  1.00  0.00    -0.118 A  
HETATM   20  C   UNL     1      -8.762   9.146  69.222  1.00  0.00    -0.139 A  
HETATM   21  H   UNL     1      -9.869   6.422  70.687  1.00  0.00     0.000 HD 
HETATM   22  C   UNL     1      -9.503   7.976  69.422  1.00  0.00    -0.159 A  
HETATM   23  C   UNL     1     -10.531   8.203  67.249  1.00  0.00    -0.379 A  
HETATM   24  C   UNL     1     -10.384   7.510  68.451  1.00  0.00    -0.226 A  
HETATM   25  O   UNL     1      -9.366   7.217  70.551  1.00  0.00    -0.159 OA 
BRANCH  20  26
HETATM   26  N   UNL     1      -7.908   9.604  70.244  1.00  0.00    -0.169 N  
HETATM   27  H   UNL     1      -8.177   9.368  71.199  1.00  0.00     0.000 HD 
HETATM   28  O   UNL     1      -6.100  10.708  71.057  1.00  0.00    -0.325 OA 
HETATM   29  C   UNL     1      -6.762  10.326  70.098  1.00  0.00    -0.146 C  
ENDBRANCH  20  26
ENDBRANCH  15  18
ENDBRANCH  14  15
ENDBRANCH  12  14
ENDBRANCH  10  12
ENDBRANCH   9  10
ENDBRANCH   6   9
ENDBRANCH   2   3
TORSDOF 8
ENDMDL
MODEL      165
REMARK 921   NORMALIZED FREE ENERGY PREDICTED BY IDOCK:   -4.56 KCAL/MOL
REMARK 922        TOTAL FREE ENERGY PREDICTED BY IDOCK:   -8.18 KCAL/MOL
REMARK 923 INTER-LIGAND FREE ENERGY PREDICTED BY IDOCK:   -7.57 KCAL/MOL
REMARK 924 INTRA-LIGAND FREE ENERGY PREDICTED BY IDOCK:   -0.61 KCAL/MOL
REMARK 927      BINDING AFFINITY PREDICTED BY RF-SCORE:    0.00 PKD
ROOT
HETATM    1  C   UNL     1      -6.516  20.056  67.258  1.00  0.00    -0.200 C  
HETATM    2  O   UNL     1      -7.887  20.369  67.482  1.00  0.00    -0.307 OA 
ENDROOT
BRANCH   2   3
HETATM    3  C   UNL     1      -8.679  19.293  67.776  1.00  0.00    -0.306 A  
HETATM    4  C   UNL     1      -9.971  19.329  67.255  1.00  0.00    -0.456 A  
HETATM    5  C   UNL     1     -10.874  18.299  67.534  1.00  0.00    -0.282 A  
HETATM    6  C   UNL     1     -10.479  17.204  68.314  1.00  0.00    -0.373 A  
HETATM    7  C   UNL     1      -8.270  18.190  68.522  1.00  0.00    -0.320 A  
HETATM    8  C   UNL     1      -9.165  17.154  68.792  1.00  0.00    -0.249 A  
BRANCH   6   9
HETATM    9  C   UNL     1     -11.468  16.149  68.748  1.00  0.00    -0.340 C  
BRANCH   9  10
HETATM   10  C   UNL     1     -11.171  15.446  70.095  1.00  0.00    -0.302 C  
HETATM   11  C   UNL     1     -12.297  15.712  71.100  1.00  0.00    -0.482 C  
BRANCH  10  12
HETATM   12  N   UNL     1     -11.019  13.981  69.964  1.00  0.00    -0.454 NA 
HETATM   13  H   UNL     1     -11.668  13.490  70.578  1.00  0.00     0.000 HD 
BRANCH  12  14
HETATM   14  C   UNL     1     -11.154  13.514  68.577  1.00  0.00    -0.272 C  
BRANCH  14  15
HETATM   15  C   UNL     1      -9.847  13.633  67.750  1.00  0.00    -0.232 C  
HETATM   16  H   UNL     1      -7.935  13.296  68.051  1.00  0.00     0.000 HD 
HETATM   17  O   UNL     1      -8.735  13.223  68.557  1.00  0.00    -0.151 OA 
BRANCH  15  18
HETATM   18  C   UNL     1      -9.920  12.776  66.492  1.00  0.00    -0.256 A  
HETATM   19  C   UNL     1      -9.713  11.381  66.546  1.00  0.00    -0.226 A  
HETATM   20  C   UNL     1      -9.809  10.583  65.401  1.00  0.00    -0.274 A  
HETATM   21  H   UNL     1     -10.409  10.916  62.188  1.00  0.00     0.000 HD 
HETATM   22  C   UNL     1     -10.126  11.200  64.185  1.00  0.00    -0.333 A  
HETATM   23  C   UNL     1     -10.231  13.360  65.258  1.00  0.00    -0.312 A  
HETATM   24  C   UNL     1     -10.342  12.572  64.112  1.00  0.00    -0.416 A  
HETATM   25  O   UNL     1     -10.194  10.498  63.014  1.00  0.00    -0.148 OA 
BRANCH  20  26
HETATM   26  N   UNL     1      -9.633   9.187  65.440  1.00  0.00    -0.457 N  
HETATM   27  H   UNL     1      -9.309   8.747  64.579  1.00  0.00     0.000 HD 
HETATM   28  O   UNL     1      -9.696   7.144  66.425  1.00  0.00    -0.159 OA 
HETATM   29  C   UNL     1      -9.847   8.359  66.500  1.00  0.00    -0.268 C  
ENDBRANCH  20  26
ENDBRANCH  15  18
ENDBRANCH  14  15
ENDBRANCH  12  14
ENDBRANCH  10  12
ENDBRANCH   9  10
ENDBRANCH   6   9
ENDBRANCH   2   3
TORSDOF 8
ENDMDL
MODEL      166
REMARK 921   NORMALIZED FREE ENERGY PREDICTED BY IDOCK:   -4.55 KCAL/MOL
REMARK 922        TOTAL FREE ENERGY PREDICTED BY IDOCK:   -8.18 KCAL/MOL
REMARK 923 INTER-LIGAND FREE ENERGY PREDICTED BY IDOCK:   -7.75 KCAL/MOL
REMARK 924 INTRA-LIGAND FREE ENERGY PREDICTED BY IDOCK:   -0.42 KCAL/MOL
REMARK 927      BINDING AFFINITY PREDICTED BY RF-SCORE:    0.00 PKD
ROOT
HETATM    1  C   UNL     1      -6.510  21.081  67.846  1.00  0.00    -0.312 C  
HETATM    2  O   UNL     1      -7.680  21.014  67.035  1.00  0.00    -0.225 OA 
ENDROOT
BRANCH   2   3
HETATM    3  C   UNL     1      -8.499  19.952  67.300  1.00  0.00    -0.324 A  
HETATM    4  C   UNL     1      -9.669  19.883  66.545  1.00  0.00    -0.547 A  
HETATM    5  C   UNL     1     -10.595  18.862  66.769  1.00  0.00    -0.480 A  
HETATM    6  C   UNL     1     -10.344  17.877  67.733  1.00  0.00    -0.393 A  
HETATM    7  C   UNL     1      -8.227  18.956  68.235  1.00  0.00    -0.362 A  
HETATM    8  C   UNL     1      -9.144  17.927  68.453  1.00  0.00    -0.292 A  
BRANCH   6   9
HETATM    9  C   UNL     1     -11.384  16.845  68.096  1.00  0.00     0.043 C  
BRANCH   9  10
HETATM   10  C   UNL     1     -10.980  15.818  69.183  1.00  0.00    -0.265 C  
HETATM   11  C   UNL     1     -12.115  15.632  70.195  1.00  0.00    -0.400 C  
BRANCH  10  12
HETATM   12  N   UNL     1     -10.646  14.488  68.628  1.00  0.00    -0.248 NA 
HETATM   13  H   UNL     1     -10.026  13.977  69.256  1.00  0.00     0.000 HD 
BRANCH  12  14
HETATM   14  C   UNL     1     -11.835  13.691  68.300  1.00  0.00    -0.369 C  
BRANCH  14  15
HETATM   15  C   UNL     1     -11.906  13.263  66.810  1.00  0.00    -0.394 C  
HETATM   16  H   UNL     1     -11.286  13.981  65.090  1.00  0.00     0.000 HD 
HETATM   17  O   UNL     1     -11.242  14.243  66.002  1.00  0.00    -0.314 OA 
BRANCH  15  18
HETATM   18  C   UNL     1     -11.262  11.897  66.605  1.00  0.00    -0.384 A  
HETATM   19  C   UNL     1     -10.819  11.483  65.331  1.00  0.00    -0.318 A  
HETATM   20  C   UNL     1     -10.199  10.244  65.139  1.00  0.00    -0.224 A  
HETATM   21  H   UNL     1      -9.333   7.606  66.895  1.00  0.00     0.000 HD 
HETATM   22  C   UNL     1     -10.015   9.413  66.251  1.00  0.00    -0.283 A  
HETATM   23  C   UNL     1     -11.065  11.040  67.695  1.00  0.00    -0.363 A  
HETATM   24  C   UNL     1     -10.436   9.807  67.518  1.00  0.00    -0.309 A  
HETATM   25  O   UNL     1      -9.457   8.170  66.141  1.00  0.00    -0.201 OA 
BRANCH  20  26
HETATM   26  N   UNL     1      -9.727   9.825  63.882  1.00  0.00    -0.457 N  
HETATM   27  H   UNL     1     -10.408   9.811  63.123  1.00  0.00     0.000 HD 
HETATM   28  O   UNL     1      -8.152   9.055  62.441  1.00  0.00    -0.132 OA 
HETATM   29  C   UNL     1      -8.460   9.436  63.565  1.00  0.00    -0.201 C  
ENDBRANCH  20  26
ENDBRANCH  15  18
ENDBRANCH  14  15
ENDBRANCH  12  14
ENDBRANCH  10  12
ENDBRANCH   9  10
ENDBRANCH   6   9
ENDBRANCH   2   3
TORSDOF 8
ENDMDL
MODEL      167
REMARK 921   NORMALIZED FREE ENERGY PREDICTED BY IDOCK:   -4.55 KCAL/MOL
REMARK 922        TOTAL FREE ENERGY PREDICTED BY IDOCK:   -8.18 KCAL/MOL
REMARK 923 INTER-LIGAND FREE ENERGY PREDICTED BY IDOCK:   -6.86 KCAL/MOL
REMARK 924 INTRA-LIGAND FREE ENERGY PREDICTED BY IDOCK:   -1.32 KCAL/MOL
REMARK 927      BINDING AFFINITY PREDICTED BY RF-SCORE:    0.00 PKD
ROOT
HETATM    1  C   UNL     1     -14.169   8.746  72.097  1.00  0.00    -0.426 C  
HETATM    2  O   UNL     1     -12.793   8.779  72.461  1.00  0.00    -0.399 OA 
ENDROOT
BRANCH   2   3
HETATM    3  C   UNL     1     -11.949   8.188  71.562  1.00  0.00    -0.298 A  
HETATM    4  C   UNL     1     -12.243   6.867  71.229  1.00  0.00    -0.427 A  
HETATM    5  C   UNL     1     -11.417   6.158  70.353  1.00  0.00    -0.342 A  
HETATM    6  C   UNL     1     -10.302   6.777  69.776  1.00  0.00    -0.226 A  
HETATM    7  C   UNL     1     -10.862   8.820  70.963  1.00  0.00    -0.321 A  
HETATM    8  C   UNL     1     -10.042   8.119  70.078  1.00  0.00    -0.196 A  
BRANCH   6   9
HETATM    9  C   UNL     1      -9.314   6.001  68.938  1.00  0.00    -0.131 C  
BRANCH   9  10
HETATM   10  C   UNL     1      -9.409   6.200  67.406  1.00  0.00    -0.115 C  
HETATM   11  C   UNL     1     -10.873   6.293  66.965  1.00  0.00    -0.458 C  
BRANCH  10  12
HETATM   12  N   UNL     1      -8.716   7.419  66.936  1.00  0.00    -0.122 NA 
HETATM   13  H   UNL     1      -7.847   7.183  66.457  1.00  0.00     0.000 HD 
BRANCH  12  14
HETATM   14  C   UNL     1      -9.566   8.271  66.093  1.00  0.00    -0.147 C  
BRANCH  14  15
HETATM   15  C   UNL     1      -8.956   9.667  65.802  1.00  0.00    -0.169 C  
HETATM   16  H   UNL     1      -8.326  10.645  64.219  1.00  0.00     0.000 HD 
HETATM   17  O   UNL     1      -8.700   9.790  64.397  1.00  0.00    -0.174 OA 
BRANCH  15  18
HETATM   18  C   UNL     1      -9.895  10.776  66.259  1.00  0.00    -0.262 A  
HETATM   19  C   UNL     1     -10.682  10.634  67.422  1.00  0.00    -0.326 A  
HETATM   20  C   UNL     1     -11.524  11.660  67.864  1.00  0.00    -0.311 A  
HETATM   21  H   UNL     1     -12.424  14.691  66.971  1.00  0.00     0.000 HD 
HETATM   22  C   UNL     1     -11.566  12.851  67.129  1.00  0.00    -0.363 A  
HETATM   23  C   UNL     1      -9.965  11.979  65.545  1.00  0.00    -0.267 A  
HETATM   24  C   UNL     1     -10.791  13.015  65.985  1.00  0.00    -0.290 A  
HETATM   25  O   UNL     1     -12.395  13.883  67.470  1.00  0.00    -0.292 OA 
BRANCH  20  26
HETATM   26  N   UNL     1     -12.296  11.547  69.036  1.00  0.00    -0.101 N  
HETATM   27  H   UNL     1     -13.182  11.048  68.949  1.00  0.00     0.000 HD 
HETATM   28  O   UNL     1     -12.749  11.909  71.229  1.00  0.00    -0.382 OA 
HETATM   29  C   UNL     1     -11.992  12.030  70.273  1.00  0.00    -0.314 C  
ENDBRANCH  20  26
ENDBRANCH  15  18
ENDBRANCH  14  15
ENDBRANCH  12  14
ENDBRANCH  10  12
ENDBRANCH   9  10
ENDBRANCH   6   9
ENDBRANCH   2   3
TORSDOF 8
ENDMDL
MODEL      168
REMARK 921   NORMALIZED FREE ENERGY PREDICTED BY IDOCK:   -4.55 KCAL/MOL
REMARK 922        TOTAL FREE ENERGY PREDICTED BY IDOCK:   -8.17 KCAL/MOL
REMARK 923 INTER-LIGAND FREE ENERGY PREDICTED BY IDOCK:   -6.95 KCAL/MOL
REMARK 924 INTRA-LIGAND FREE ENERGY PREDICTED BY IDOCK:   -1.22 KCAL/MOL
REMARK 927      BINDING AFFINITY PREDICTED BY RF-SCORE:    0.00 PKD
ROOT
HETATM    1  C   UNL     1      -7.577   8.421  68.613  1.00  0.00    -0.102 C  
HETATM    2  O   UNL     1      -8.460   9.528  68.771  1.00  0.00    -0.118 OA 
ENDROOT
BRANCH   2   3
HETATM    3  C   UNL     1      -8.836  10.131  67.603  1.00  0.00    -0.125 A  
HETATM    4  C   UNL     1     -10.072   9.741  67.088  1.00  0.00    -0.267 A  
HETATM    5  C   UNL     1     -10.529  10.266  65.876  1.00  0.00    -0.167 A  
HETATM    6  C   UNL     1      -9.765  11.212  65.182  1.00  0.00    -0.296 A  
HETATM    7  C   UNL     1      -8.089  11.099  66.936  1.00  0.00    -0.150 A  
HETATM    8  C   UNL     1      -8.549  11.634  65.731  1.00  0.00     0.131 A  
BRANCH   6   9
HETATM    9  C   UNL     1     -10.163  11.692  63.806  1.00  0.00    -0.430 C  
BRANCH   9  10
HETATM   10  C   UNL     1     -11.322  12.717  63.747  1.00  0.00    -0.467 C  
HETATM   11  C   UNL     1     -12.659  12.004  63.520  1.00  0.00    -0.625 C  
BRANCH  10  12
HETATM   12  N   UNL     1     -11.444  13.526  64.978  1.00  0.00    -0.310 NA 
HETATM   13  H   UNL     1     -11.214  12.972  65.803  1.00  0.00     0.000 HD 
BRANCH  12  14
HETATM   14  C   UNL     1     -10.645  14.758  64.934  1.00  0.00    -0.406 C  
BRANCH  14  15
HETATM   15  C   UNL     1      -9.852  15.033  66.239  1.00  0.00    -0.285 C  
HETATM   16  H   UNL     1      -8.947  16.573  67.058  1.00  0.00     0.000 HD 
HETATM   17  O   UNL     1      -9.432  16.404  66.259  1.00  0.00    -0.276 OA 
BRANCH  15  18
HETATM   18  C   UNL     1     -10.703  14.732  67.466  1.00  0.00    -0.269 A  
HETATM   19  C   UNL     1     -11.033  13.406  67.818  1.00  0.00    -0.281 A  
HETATM   20  C   UNL     1     -11.788  13.119  68.961  1.00  0.00    -0.313 A  
HETATM   21  H   UNL     1     -13.271  14.714  71.419  1.00  0.00     0.000 HD 
HETATM   22  C   UNL     1     -12.208  14.184  69.765  1.00  0.00    -0.344 A  
HETATM   23  C   UNL     1     -11.143  15.774  68.292  1.00  0.00    -0.342 A  
HETATM   24  C   UNL     1     -11.885  15.499  69.442  1.00  0.00    -0.392 A  
HETATM   25  O   UNL     1     -12.985  13.991  70.873  1.00  0.00    -0.324 OA 
BRANCH  20  26
HETATM   26  N   UNL     1     -12.104  11.801  69.342  1.00  0.00    -0.273 N  
HETATM   27  H   UNL     1     -12.970  11.416  68.966  1.00  0.00     0.000 HD 
HETATM   28  O   UNL     1     -11.759   9.857  70.460  1.00  0.00    -0.272 OA 
HETATM   29  C   UNL     1     -11.382  10.984  70.159  1.00  0.00    -0.251 C  
ENDBRANCH  20  26
ENDBRANCH  15  18
ENDBRANCH  14  15
ENDBRANCH  12  14
ENDBRANCH  10  12
ENDBRANCH   9  10
ENDBRANCH   6   9
ENDBRANCH   2   3
TORSDOF 8
ENDMDL
MODEL      169
REMARK 921   NORMALIZED FREE ENERGY PREDICTED BY IDOCK:   -4.54 KCAL/MOL
REMARK 922        TOTAL FREE ENERGY PREDICTED BY IDOCK:   -8.16 KCAL/MOL
REMARK 923 INTER-LIGAND FREE ENERGY PREDICTED BY IDOCK:   -6.45 KCAL/MOL
REMARK 924 INTRA-LIGAND FREE ENERGY PREDICTED BY IDOCK:   -1.72 KCAL/MOL
REMARK 927      BINDING AFFINITY PREDICTED BY RF-SCORE:    0.00 PKD
ROOT
HETATM    1  C   UNL     1     -10.496   8.297  66.694  1.00  0.00    -0.147 C  
HETATM    2  O   UNL     1     -10.644   6.882  66.636  1.00  0.00    -0.233 OA 
ENDROOT
BRANCH   2   3
HETATM    3  C   UNL     1     -10.473   6.239  67.830  1.00  0.00    -0.230 A  
HETATM    4  C   UNL     1      -9.426   5.320  67.883  1.00  0.00    -0.146 A  
HETATM    5  C   UNL     1      -9.195   4.578  69.043  1.00  0.00    -0.192 A  
HETATM    6  C   UNL     1      -9.993   4.772  70.178  1.00  0.00    -0.321 A  
HETATM    7  C   UNL     1     -11.247   6.463  68.967  1.00  0.00    -0.402 A  
HETATM    8  C   UNL     1     -11.010   5.732  70.133  1.00  0.00    -0.368 A  
BRANCH   6   9
HETATM    9  C   UNL     1      -9.859   3.891  71.397  1.00  0.00    -0.243 C  
BRANCH   9  10
HETATM   10  C   UNL     1     -10.264   4.526  72.750  1.00  0.00    -0.179 C  
HETATM   11  C   UNL     1     -10.943   3.488  73.650  1.00  0.00    -0.329 C  
BRANCH  10  12
HETATM   12  N   UNL     1      -9.116   5.087  73.493  1.00  0.00    -0.123 NA 
HETATM   13  H   UNL     1      -8.450   4.356  73.743  1.00  0.00     0.000 HD 
BRANCH  12  14
HETATM   14  C   UNL     1      -8.449   6.181  72.775  1.00  0.00    -0.123 C  
BRANCH  14  15
HETATM   15  C   UNL     1      -8.746   7.585  73.362  1.00  0.00    -0.182 C  
HETATM   16  H   UNL     1      -7.742   9.248  73.658  1.00  0.00     0.000 HD 
HETATM   17  O   UNL     1      -7.560   8.388  73.298  1.00  0.00    -0.260 OA 
BRANCH  15  18
HETATM   18  C   UNL     1      -9.876   8.266  72.599  1.00  0.00    -0.357 A  
HETATM   19  C   UNL     1      -9.612   9.080  71.477  1.00  0.00    -0.340 A  
HETATM   20  C   UNL     1     -10.646   9.684  70.753  1.00  0.00    -0.322 A  
HETATM   21  H   UNL     1     -13.924   9.891  70.811  1.00  0.00     0.000 HD 
HETATM   22  C   UNL     1     -11.966   9.457  71.161  1.00  0.00    -0.337 A  
HETATM   23  C   UNL     1     -11.208   8.063  72.982  1.00  0.00    -0.279 A  
HETATM   24  C   UNL     1     -12.248   8.650  72.259  1.00  0.00    -0.447 A  
HETATM   25  O   UNL     1     -13.028  10.045  70.534  1.00  0.00    -0.235 OA 
BRANCH  20  26
HETATM   26  N   UNL     1     -10.404  10.476  69.615  1.00  0.00    -0.347 N  
HETATM   27  H   UNL     1     -11.220  10.908  69.181  1.00  0.00     0.000 HD 
HETATM   28  O   UNL     1      -9.096  11.412  68.015  1.00  0.00    -0.158 OA 
HETATM   29  C   UNL     1      -9.201  10.731  69.029  1.00  0.00    -0.146 C  
ENDBRANCH  20  26
ENDBRANCH  15  18
ENDBRANCH  14  15
ENDBRANCH  12  14
ENDBRANCH  10  12
ENDBRANCH   9  10
ENDBRANCH   6   9
ENDBRANCH   2   3
TORSDOF 8
ENDMDL
MODEL      170
REMARK 921   NORMALIZED FREE ENERGY PREDICTED BY IDOCK:   -4.54 KCAL/MOL
REMARK 922        TOTAL FREE ENERGY PREDICTED BY IDOCK:   -8.16 KCAL/MOL
REMARK 923 INTER-LIGAND FREE ENERGY PREDICTED BY IDOCK:   -6.91 KCAL/MOL
REMARK 924 INTRA-LIGAND FREE ENERGY PREDICTED BY IDOCK:   -1.25 KCAL/MOL
REMARK 927      BINDING AFFINITY PREDICTED BY RF-SCORE:    0.00 PKD
ROOT
HETATM    1  C   UNL     1     -10.201  19.914  67.652  1.00  0.00    -0.425 C  
HETATM    2  O   UNL     1      -9.084  19.083  67.351  1.00  0.00    -0.289 OA 
ENDROOT
BRANCH   2   3
HETATM    3  C   UNL     1      -9.395  17.922  66.698  1.00  0.00    -0.286 A  
HETATM    4  C   UNL     1     -10.488  17.984  65.834  1.00  0.00    -0.268 A  
HETATM    5  C   UNL     1     -10.915  16.841  65.153  1.00  0.00    -0.109 A  
HETATM    6  C   UNL     1     -10.229  15.629  65.304  1.00  0.00    -0.358 A  
HETATM    7  C   UNL     1      -8.687  16.729  66.825  1.00  0.00    -0.260 A  
HETATM    8  C   UNL     1      -9.103  15.589  66.135  1.00  0.00    -0.359 A  
BRANCH   6   9
HETATM    9  C   UNL     1     -10.746  14.349  64.694  1.00  0.00    -0.357 C  
BRANCH   9  10
HETATM   10  C   UNL     1     -12.147  13.884  65.161  1.00  0.00    -0.403 C  
HETATM   11  C   UNL     1     -12.508  12.538  64.523  1.00  0.00    -0.539 C  
BRANCH  10  12
HETATM   12  N   UNL     1     -12.248  13.731  66.629  1.00  0.00    -0.426 NA 
HETATM   13  H   UNL     1     -13.144  14.079  66.971  1.00  0.00     0.000 HD 
BRANCH  12  14
HETATM   14  C   UNL     1     -12.014  12.352  67.077  1.00  0.00    -0.186 C  
BRANCH  14  15
HETATM   15  C   UNL     1     -10.556  12.085  67.534  1.00  0.00    -0.221 C  
HETATM   16  H   UNL     1      -9.654  11.607  69.213  1.00  0.00     0.000 HD 
HETATM   17  O   UNL     1     -10.546  11.771  68.933  1.00  0.00    -0.212 OA 
BRANCH  15  18
HETATM   18  C   UNL     1      -9.938  10.940  66.740  1.00  0.00    -0.245 A  
HETATM   19  C   UNL     1     -10.279   9.598  67.010  1.00  0.00    -0.308 A  
HETATM   20  C   UNL     1      -9.740   8.543  66.265  1.00  0.00    -0.229 A  
HETATM   21  H   UNL     1      -7.643   8.078  63.780  1.00  0.00     0.000 HD 
HETATM   22  C   UNL     1      -8.850   8.847  65.228  1.00  0.00    -0.184 A  
HETATM   23  C   UNL     1      -9.042  11.208  65.698  1.00  0.00    -0.221 A  
HETATM   24  C   UNL     1      -8.508  10.165  64.940  1.00  0.00    -0.178 A  
HETATM   25  O   UNL     1      -8.247   7.872  64.484  1.00  0.00    -0.136 OA 
BRANCH  20  26
HETATM   26  N   UNL     1     -10.088   7.200  66.502  1.00  0.00    -0.442 N  
HETATM   27  H   UNL     1     -10.772   6.790  65.867  1.00  0.00     0.000 HD 
HETATM   28  O   UNL     1     -10.004   5.234  67.631  1.00  0.00    -0.147 OA 
HETATM   29  C   UNL     1      -9.612   6.386  67.486  1.00  0.00    -0.120 C  
ENDBRANCH  20  26
ENDBRANCH  15  18
ENDBRANCH  14  15
ENDBRANCH  12  14
ENDBRANCH  10  12
ENDBRANCH   9  10
ENDBRANCH   6   9
ENDBRANCH   2   3
TORSDOF 8
ENDMDL
MODEL      171
REMARK 921   NORMALIZED FREE ENERGY PREDICTED BY IDOCK:   -4.54 KCAL/MOL
REMARK 922        TOTAL FREE ENERGY PREDICTED BY IDOCK:   -8.16 KCAL/MOL
REMARK 923 INTER-LIGAND FREE ENERGY PREDICTED BY IDOCK:   -7.42 KCAL/MOL
REMARK 924 INTRA-LIGAND FREE ENERGY PREDICTED BY IDOCK:   -0.74 KCAL/MOL
REMARK 927      BINDING AFFINITY PREDICTED BY RF-SCORE:    0.00 PKD
ROOT
HETATM    1  C   UNL     1      -9.120   3.081  64.255  1.00  0.00    -0.114 C  
HETATM    2  O   UNL     1      -8.755   4.458  64.223  1.00  0.00    -0.129 OA 
ENDROOT
BRANCH   2   3
HETATM    3  C   UNL     1      -9.113   5.170  65.334  1.00  0.00    -0.140 A  
HETATM    4  C   UNL     1     -10.186   4.661  66.063  1.00  0.00    -0.306 A  
HETATM    5  C   UNL     1     -10.659   5.338  67.190  1.00  0.00    -0.227 A  
HETATM    6  C   UNL     1     -10.039   6.519  67.618  1.00  0.00    -0.180 A  
HETATM    7  C   UNL     1      -8.470   6.324  65.775  1.00  0.00    -0.148 A  
HETATM    8  C   UNL     1      -8.931   6.996  66.908  1.00  0.00    -0.135 A  
BRANCH   6   9
HETATM    9  C   UNL     1     -10.610   7.347  68.745  1.00  0.00    -0.189 C  
BRANCH   9  10
HETATM   10  C   UNL     1     -11.057   6.569  70.007  1.00  0.00    -0.363 C  
HETATM   11  C   UNL     1      -9.985   6.656  71.099  1.00  0.00    -0.198 C  
BRANCH  10  12
HETATM   12  N   UNL     1     -12.326   7.070  70.578  1.00  0.00    -0.614 NA 
HETATM   13  H   UNL     1     -12.828   6.325  71.059  1.00  0.00     0.000 HD 
BRANCH  12  14
HETATM   14  C   UNL     1     -12.139   8.231  71.458  1.00  0.00    -0.299 C  
BRANCH  14  15
HETATM   15  C   UNL     1     -13.349   9.201  71.476  1.00  0.00    -0.355 C  
HETATM   16  H   UNL     1     -14.700   9.770  72.784  1.00  0.00     0.000 HD 
HETATM   17  O   UNL     1     -13.959   9.176  72.773  1.00  0.00    -0.450 OA 
BRANCH  15  18
HETATM   18  C   UNL     1     -12.913  10.621  71.134  1.00  0.00    -0.483 A  
HETATM   19  C   UNL     1     -12.276  10.914  69.909  1.00  0.00    -0.408 A  
HETATM   20  C   UNL     1     -11.900  12.220  69.575  1.00  0.00    -0.315 A  
HETATM   21  H   UNL     1     -11.994  15.237  70.872  1.00  0.00     0.000 HD 
HETATM   22  C   UNL     1     -12.179  13.246  70.486  1.00  0.00    -0.340 A  
HETATM   23  C   UNL     1     -13.173  11.671  72.023  1.00  0.00    -0.443 A  
HETATM   24  C   UNL     1     -12.814  12.980  71.695  1.00  0.00    -0.376 A  
HETATM   25  O   UNL     1     -11.805  14.540  70.254  1.00  0.00    -0.275 OA 
BRANCH  20  26
HETATM   26  N   UNL     1     -11.289  12.536  68.348  1.00  0.00    -0.267 N  
HETATM   27  H   UNL     1     -10.329  12.215  68.223  1.00  0.00     0.000 HD 
HETATM   28  O   UNL     1     -11.209  13.479  66.285  1.00  0.00    -0.292 OA 
HETATM   29  C   UNL     1     -11.837  13.223  67.307  1.00  0.00    -0.372 C  
ENDBRANCH  20  26
ENDBRANCH  15  18
ENDBRANCH  14  15
ENDBRANCH  12  14
ENDBRANCH  10  12
ENDBRANCH   9  10
ENDBRANCH   6   9
ENDBRANCH   2   3
TORSDOF 8
ENDMDL
MODEL      172
REMARK 921   NORMALIZED FREE ENERGY PREDICTED BY IDOCK:   -4.52 KCAL/MOL
REMARK 922        TOTAL FREE ENERGY PREDICTED BY IDOCK:   -8.13 KCAL/MOL
REMARK 923 INTER-LIGAND FREE ENERGY PREDICTED BY IDOCK:   -6.48 KCAL/MOL
REMARK 924 INTRA-LIGAND FREE ENERGY PREDICTED BY IDOCK:   -1.65 KCAL/MOL
REMARK 927      BINDING AFFINITY PREDICTED BY RF-SCORE:    0.00 PKD
ROOT
HETATM    1  C   UNL     1      -9.934  19.910  66.432  1.00  0.00    -0.479 C  
HETATM    2  O   UNL     1     -10.517  18.611  66.379  1.00  0.00    -0.403 OA 
ENDROOT
BRANCH   2   3
HETATM    3  C   UNL     1      -9.703  17.600  66.810  1.00  0.00    -0.300 A  
HETATM    4  C   UNL     1      -9.576  17.468  68.192  1.00  0.00    -0.294 A  
HETATM    5  C   UNL     1      -8.733  16.494  68.734  1.00  0.00    -0.259 A  
HETATM    6  C   UNL     1      -8.030  15.620  67.895  1.00  0.00    -0.151 A  
HETATM    7  C   UNL     1      -9.035  16.711  65.971  1.00  0.00    -0.248 A  
HETATM    8  C   UNL     1      -8.201  15.729  66.510  1.00  0.00    -0.278 A  
BRANCH   6   9
HETATM    9  C   UNL     1      -7.008  14.653  68.442  1.00  0.00    -0.113 C  
BRANCH   9  10
HETATM   10  C   UNL     1      -6.995  13.240  67.811  1.00  0.00    -0.153 C  
HETATM   11  C   UNL     1      -5.790  12.437  68.314  1.00  0.00    -0.059 C  
BRANCH  10  12
HETATM   12  N   UNL     1      -8.216  12.460  68.110  1.00  0.00    -0.165 NA 
HETATM   13  H   UNL     1      -8.924  13.046  68.551  1.00  0.00     0.000 HD 
BRANCH  12  14
HETATM   14  C   UNL     1      -8.761  11.777  66.929  1.00  0.00    -0.189 C  
BRANCH  14  15
HETATM   15  C   UNL     1     -10.293  11.543  66.997  1.00  0.00    -0.220 C  
HETATM   16  H   UNL     1     -11.493  10.150  67.688  1.00  0.00     0.000 HD 
HETATM   17  O   UNL     1     -10.555  10.293  67.647  1.00  0.00    -0.223 OA 
BRANCH  15  18
HETATM   18  C   UNL     1     -10.983  12.675  67.749  1.00  0.00    -0.266 A  
HETATM   19  C   UNL     1     -11.267  12.568  69.127  1.00  0.00    -0.297 A  
HETATM   20  C   UNL     1     -11.873  13.615  69.831  1.00  0.00    -0.320 A  
HETATM   21  H   UNL     1     -13.034  16.637  69.273  1.00  0.00     0.000 HD 
HETATM   22  C   UNL     1     -12.188  14.789  69.138  1.00  0.00    -0.173 A  
HETATM   23  C   UNL     1     -11.315  13.863  67.086  1.00  0.00    -0.346 A  
HETATM   24  C   UNL     1     -11.907  14.918  67.781  1.00  0.00    -0.277 A  
HETATM   25  O   UNL     1     -12.820  15.840  69.743  1.00  0.00    -0.081 OA 
BRANCH  20  26
HETATM   26  N   UNL     1     -12.140  13.537  71.211  1.00  0.00    -0.370 N  
HETATM   27  H   UNL     1     -11.369  13.772  71.836  1.00  0.00     0.000 HD 
HETATM   28  O   UNL     1     -13.440  13.114  73.022  1.00  0.00    -0.430 OA 
HETATM   29  C   UNL     1     -13.315  13.184  71.804  1.00  0.00    -0.389 C  
ENDBRANCH  20  26
ENDBRANCH  15  18
ENDBRANCH  14  15
ENDBRANCH  12  14
ENDBRANCH  10  12
ENDBRANCH   9  10
ENDBRANCH   6   9
ENDBRANCH   2   3
TORSDOF 8
ENDMDL
MODEL      173
REMARK 921   NORMALIZED FREE ENERGY PREDICTED BY IDOCK:   -4.52 KCAL/MOL
REMARK 922        TOTAL FREE ENERGY PREDICTED BY IDOCK:   -8.13 KCAL/MOL
REMARK 923 INTER-LIGAND FREE ENERGY PREDICTED BY IDOCK:   -6.37 KCAL/MOL
REMARK 924 INTRA-LIGAND FREE ENERGY PREDICTED BY IDOCK:   -1.76 KCAL/MOL
REMARK 927      BINDING AFFINITY PREDICTED BY RF-SCORE:    0.00 PKD
ROOT
HETATM    1  C   UNL     1     -10.675  19.372  66.217  1.00  0.00    -0.411 C  
HETATM    2  O   UNL     1     -11.119  18.539  65.150  1.00  0.00    -0.475 OA 
ENDROOT
BRANCH   2   3
HETATM    3  C   UNL     1     -10.743  17.229  65.252  1.00  0.00    -0.010 A  
HETATM    4  C   UNL     1     -11.504  16.318  64.520  1.00  0.00    -0.171 A  
HETATM    5  C   UNL     1     -11.229  14.950  64.590  1.00  0.00    -0.349 A  
HETATM    6  C   UNL     1     -10.166  14.481  65.372  1.00  0.00    -0.415 A  
HETATM    7  C   UNL     1      -9.662  16.772  66.002  1.00  0.00    -0.287 A  
HETATM    8  C   UNL     1      -9.376  15.407  66.064  1.00  0.00    -0.364 A  
BRANCH   6   9
HETATM    9  C   UNL     1      -9.931  13.004  65.580  1.00  0.00    -0.226 C  
BRANCH   9  10
HETATM   10  C   UNL     1     -11.132  12.072  65.289  1.00  0.00    -0.317 C  
HETATM   11  C   UNL     1     -10.645  10.703  64.803  1.00  0.00    -0.184 C  
BRANCH  10  12
HETATM   12  N   UNL     1     -11.995  11.852  66.470  1.00  0.00    -0.545 NA 
HETATM   13  H   UNL     1     -12.825  11.315  66.220  1.00  0.00     0.000 HD 
BRANCH  12  14
HETATM   14  C   UNL     1     -11.281  11.226  67.591  1.00  0.00    -0.292 C  
BRANCH  14  15
HETATM   15  C   UNL     1     -11.679  11.794  68.978  1.00  0.00    -0.328 C  
HETATM   16  H   UNL     1     -11.208  11.438  70.852  1.00  0.00     0.000 HD 
HETATM   17  O   UNL     1     -10.964  11.090  70.002  1.00  0.00    -0.216 OA 
BRANCH  15  18
HETATM   18  C   UNL     1     -11.377  13.285  69.064  1.00  0.00    -0.334 A  
HETATM   19  C   UNL     1     -10.065  13.751  69.298  1.00  0.00     0.229 A  
HETATM   20  C   UNL     1      -9.773  15.119  69.347  1.00  0.00    -0.202 A  
HETATM   21  H   UNL     1     -11.332  17.999  69.090  1.00  0.00     0.000 HD 
HETATM   22  C   UNL     1     -10.818  16.029  69.148  1.00  0.00    -0.281 A  
HETATM   23  C   UNL     1     -12.398  14.224  68.873  1.00  0.00    -0.116 A  
HETATM   24  C   UNL     1     -12.116  15.590  68.906  1.00  0.00    -0.219 A  
HETATM   25  O   UNL     1     -10.624  17.380  69.224  1.00  0.00    -0.302 OA 
BRANCH  20  26
HETATM   26  N   UNL     1      -8.468  15.602  69.552  1.00  0.00    -0.237 N  
HETATM   27  H   UNL     1      -8.385  16.581  69.827  1.00  0.00     0.000 HD 
HETATM   28  O   UNL     1      -6.206  15.430  69.595  1.00  0.00    -0.135 OA 
HETATM   29  C   UNL     1      -7.302  14.908  69.425  1.00  0.00    -0.181 C  
ENDBRANCH  20  26
ENDBRANCH  15  18
ENDBRANCH  14  15
ENDBRANCH  12  14
ENDBRANCH  10  12
ENDBRANCH   9  10
ENDBRANCH   6   9
ENDBRANCH   2   3
TORSDOF 8
ENDMDL
MODEL      174
REMARK 921   NORMALIZED FREE ENERGY PREDICTED BY IDOCK:   -4.51 KCAL/MOL
REMARK 922        TOTAL FREE ENERGY PREDICTED BY IDOCK:   -8.12 KCAL/MOL
REMARK 923 INTER-LIGAND FREE ENERGY PREDICTED BY IDOCK:   -6.77 KCAL/MOL
REMARK 924 INTRA-LIGAND FREE ENERGY PREDICTED BY IDOCK:   -1.35 KCAL/MOL
REMARK 927      BINDING AFFINITY PREDICTED BY RF-SCORE:    0.00 PKD
ROOT
HETATM    1  C   UNL     1     -11.062  15.530  68.876  1.00  0.00    -0.282 C  
HETATM    2  O   UNL     1     -12.159  14.686  68.539  1.00  0.00    -0.284 OA 
ENDROOT
BRANCH   2   3
HETATM    3  C   UNL     1     -11.809  13.488  67.980  1.00  0.00    -0.365 A  
HETATM    4  C   UNL     1     -11.727  12.408  68.858  1.00  0.00    -0.372 A  
HETATM    5  C   UNL     1     -11.335  11.150  68.396  1.00  0.00    -0.357 A  
HETATM    6  C   UNL     1     -11.050  10.952  67.038  1.00  0.00    -0.271 A  
HETATM    7  C   UNL     1     -11.562  13.290  66.624  1.00  0.00    -0.408 A  
HETATM    8  C   UNL     1     -11.182  12.031  66.156  1.00  0.00    -0.394 A  
BRANCH   6   9
HETATM    9  C   UNL     1     -10.490   9.644  66.532  1.00  0.00    -0.213 C  
BRANCH   9  10
HETATM   10  C   UNL     1      -8.973   9.622  66.224  1.00  0.00    -0.155 C  
HETATM   11  C   UNL     1      -8.186  10.305  67.348  1.00  0.00    -0.114 C  
BRANCH  10  12
HETATM   12  N   UNL     1      -8.434   8.255  66.061  1.00  0.00    -0.130 NA 
HETATM   13  H   UNL     1      -7.508   8.175  66.481  1.00  0.00     0.000 HD 
BRANCH  12  14
HETATM   14  C   UNL     1      -9.337   7.219  66.578  1.00  0.00    -0.170 C  
BRANCH  14  15
HETATM   15  C   UNL     1      -8.713   6.354  67.704  1.00  0.00    -0.114 C  
HETATM   16  H   UNL     1      -7.045   6.352  68.741  1.00  0.00     0.000 HD 
HETATM   17  O   UNL     1      -7.427   6.882  68.052  1.00  0.00    -0.094 OA 
BRANCH  15  18
HETATM   18  C   UNL     1      -9.614   6.328  68.933  1.00  0.00    -0.135 A  
HETATM   19  C   UNL     1     -10.426   7.434  69.266  1.00  0.00    -0.222 A  
HETATM   20  C   UNL     1     -11.278   7.407  70.375  1.00  0.00    -0.262 A  
HETATM   21  H   UNL     1     -12.120   5.366  72.808  1.00  0.00     0.000 HD 
HETATM   22  C   UNL     1     -11.319   6.245  71.155  1.00  0.00    -0.303 A  
HETATM   23  C   UNL     1      -9.678   5.183  69.737  1.00  0.00    -0.263 A  
HETATM   24  C   UNL     1     -10.534   5.140  70.838  1.00  0.00    -0.258 A  
HETATM   25  O   UNL     1     -12.092   6.155  72.279  1.00  0.00    -0.311 OA 
BRANCH  20  26
HETATM   26  N   UNL     1     -12.114   8.489  70.708  1.00  0.00    -0.483 N  
HETATM   27  H   UNL     1     -12.988   8.564  70.187  1.00  0.00     0.000 HD 
HETATM   28  O   UNL     1     -12.665  10.375  71.844  1.00  0.00    -0.420 OA 
HETATM   29  C   UNL     1     -11.886   9.448  71.649  1.00  0.00    -0.394 C  
ENDBRANCH  20  26
ENDBRANCH  15  18
ENDBRANCH  14  15
ENDBRANCH  12  14
ENDBRANCH  10  12
ENDBRANCH   9  10
ENDBRANCH   6   9
ENDBRANCH   2   3
TORSDOF 8
ENDMDL
MODEL      175
REMARK 921   NORMALIZED FREE ENERGY PREDICTED BY IDOCK:   -4.51 KCAL/MOL
REMARK 922        TOTAL FREE ENERGY PREDICTED BY IDOCK:   -8.12 KCAL/MOL
REMARK 923 INTER-LIGAND FREE ENERGY PREDICTED BY IDOCK:   -7.63 KCAL/MOL
REMARK 924 INTRA-LIGAND FREE ENERGY PREDICTED BY IDOCK:   -0.49 KCAL/MOL
REMARK 927      BINDING AFFINITY PREDICTED BY RF-SCORE:    0.00 PKD
ROOT
HETATM    1  C   UNL     1      -7.392   7.512  62.367  1.00  0.00    -0.091 C  
HETATM    2  O   UNL     1      -7.560   8.688  63.153  1.00  0.00    -0.103 OA 
ENDROOT
BRANCH   2   3
HETATM    3  C   UNL     1      -8.246   8.503  64.321  1.00  0.00    -0.145 A  
HETATM    4  C   UNL     1      -9.009   9.585  64.757  1.00  0.00    -0.263 A  
HETATM    5  C   UNL     1      -9.713   9.514  65.962  1.00  0.00    -0.341 A  
HETATM    6  C   UNL     1      -9.685   8.342  66.729  1.00  0.00    -0.309 A  
HETATM    7  C   UNL     1      -8.244   7.323  65.061  1.00  0.00    -0.100 A  
HETATM    8  C   UNL     1      -8.956   7.243  66.259  1.00  0.00    -0.185 A  
BRANCH   6   9
HETATM    9  C   UNL     1     -10.318   8.281  68.098  1.00  0.00    -0.253 C  
BRANCH   9  10
HETATM   10  C   UNL     1      -9.435   8.744  69.283  1.00  0.00    -0.161 C  
HETATM   11  C   UNL     1      -7.955   8.739  68.884  1.00  0.00    -0.105 C  
BRANCH  10  12
HETATM   12  N   UNL     1      -9.770  10.103  69.760  1.00  0.00    -0.340 NA 
HETATM   13  H   UNL     1      -9.070  10.779  69.455  1.00  0.00     0.000 HD 
BRANCH  12  14
HETATM   14  C   UNL     1     -11.120  10.530  69.367  1.00  0.00    -0.258 C  
BRANCH  14  15
HETATM   15  C   UNL     1     -12.132  10.556  70.541  1.00  0.00    -0.345 C  
HETATM   16  H   UNL     1     -12.179   9.910  72.397  1.00  0.00     0.000 HD 
HETATM   17  O   UNL     1     -11.559   9.895  71.677  1.00  0.00    -0.360 OA 
BRANCH  15  18
HETATM   18  C   UNL     1     -12.505  11.987  70.907  1.00  0.00    -0.384 A  
HETATM   19  C   UNL     1     -12.143  13.070  70.077  1.00  0.00    -0.367 A  
HETATM   20  C   UNL     1     -12.508  14.384  70.390  1.00  0.00    -0.357 A  
HETATM   21  H   UNL     1     -14.123  16.019  72.738  1.00  0.00     0.000 HD 
HETATM   22  C   UNL     1     -13.256  14.609  71.551  1.00  0.00    -0.355 A  
HETATM   23  C   UNL     1     -13.251  12.248  72.063  1.00  0.00    -0.508 A  
HETATM   24  C   UNL     1     -13.632  13.554  72.378  1.00  0.00    -0.709 A  
HETATM   25  O   UNL     1     -13.615  15.866  71.950  1.00  0.00    -0.385 OA 
BRANCH  20  26
HETATM   26  N   UNL     1     -12.179  15.474  69.562  1.00  0.00    -0.548 N  
HETATM   27  H   UNL     1     -12.951  15.911  69.060  1.00  0.00     0.000 HD 
HETATM   28  O   UNL     1     -10.751  16.943  68.586  1.00  0.00    -0.333 OA 
HETATM   29  C   UNL     1     -10.942  16.009  69.357  1.00  0.00    -0.321 C  
ENDBRANCH  20  26
ENDBRANCH  15  18
ENDBRANCH  14  15
ENDBRANCH  12  14
ENDBRANCH  10  12
ENDBRANCH   9  10
ENDBRANCH   6   9
ENDBRANCH   2   3
TORSDOF 8
ENDMDL
MODEL      176
REMARK 921   NORMALIZED FREE ENERGY PREDICTED BY IDOCK:   -4.51 KCAL/MOL
REMARK 922        TOTAL FREE ENERGY PREDICTED BY IDOCK:   -8.11 KCAL/MOL
REMARK 923 INTER-LIGAND FREE ENERGY PREDICTED BY IDOCK:   -7.43 KCAL/MOL
REMARK 924 INTRA-LIGAND FREE ENERGY PREDICTED BY IDOCK:   -0.68 KCAL/MOL
REMARK 927      BINDING AFFINITY PREDICTED BY RF-SCORE:    0.00 PKD
ROOT
HETATM    1  C   UNL     1     -11.016  12.303  63.478  1.00  0.00    -0.459 C  
HETATM    2  O   UNL     1      -9.856  11.545  63.144  1.00  0.00    -0.367 OA 
ENDROOT
BRANCH   2   3
HETATM    3  C   UNL     1      -9.576  10.520  64.004  1.00  0.00    -0.311 A  
HETATM    4  C   UNL     1     -10.268  10.534  65.214  1.00  0.00    -0.352 A  
HETATM    5  C   UNL     1     -10.022   9.556  66.180  1.00  0.00    -0.342 A  
HETATM    6  C   UNL     1      -9.100   8.531  65.931  1.00  0.00    -0.237 A  
HETATM    7  C   UNL     1      -8.684   9.484  63.736  1.00  0.00    -0.237 A  
HETATM    8  C   UNL     1      -8.445   8.497  64.695  1.00  0.00    -0.127 A  
BRANCH   6   9
HETATM    9  C   UNL     1      -8.709   7.544  67.005  1.00  0.00    -0.127 C  
BRANCH   9  10
HETATM   10  C   UNL     1      -7.817   8.089  68.146  1.00  0.00    -0.126 C  
HETATM   11  C   UNL     1      -6.698   8.971  67.580  1.00  0.00    -0.069 C  
BRANCH  10  12
HETATM   12  N   UNL     1      -8.568   8.891  69.136  1.00  0.00    -0.132 NA 
HETATM   13  H   UNL     1      -9.296   9.443  68.682  1.00  0.00     0.000 HD 
BRANCH  12  14
HETATM   14  C   UNL     1      -9.127   8.079  70.224  1.00  0.00    -0.148 C  
BRANCH  14  15
HETATM   15  C   UNL     1     -10.654   7.840  70.103  1.00  0.00    -0.237 C  
HETATM   16  H   UNL     1     -11.944   6.505  70.748  1.00  0.00     0.000 HD 
HETATM   17  O   UNL     1     -11.008   6.652  70.822  1.00  0.00    -0.242 OA 
BRANCH  15  18
HETATM   18  C   UNL     1     -11.436   9.029  70.647  1.00  0.00    -0.291 A  
HETATM   19  C   UNL     1     -11.244  10.328  70.130  1.00  0.00    -0.387 A  
HETATM   20  C   UNL     1     -11.979  11.420  70.603  1.00  0.00    -0.314 A  
HETATM   21  H   UNL     1     -14.302  12.067  72.835  1.00  0.00     0.000 HD 
HETATM   22  C   UNL     1     -12.929  11.198  71.607  1.00  0.00    -0.443 A  
HETATM   23  C   UNL     1     -12.392   8.844  71.653  1.00  0.00    -0.405 A  
HETATM   24  C   UNL     1     -13.141   9.923  72.124  1.00  0.00    -0.497 A  
HETATM   25  O   UNL     1     -13.657  12.218  72.153  1.00  0.00    -0.461 OA 
BRANCH  20  26
HETATM   26  N   UNL     1     -11.820  12.718  70.081  1.00  0.00    -0.513 N  
HETATM   27  H   UNL     1     -11.803  13.480  70.758  1.00  0.00     0.000 HD 
HETATM   28  O   UNL     1     -11.586  14.236  68.411  1.00  0.00    -0.285 OA 
HETATM   29  C   UNL     1     -11.687  13.068  68.771  1.00  0.00    -0.324 C  
ENDBRANCH  20  26
ENDBRANCH  15  18
ENDBRANCH  14  15
ENDBRANCH  12  14
ENDBRANCH  10  12
ENDBRANCH   9  10
ENDBRANCH   6   9
ENDBRANCH   2   3
TORSDOF 8
ENDMDL
MODEL      177
REMARK 921   NORMALIZED FREE ENERGY PREDICTED BY IDOCK:   -4.51 KCAL/MOL
REMARK 922        TOTAL FREE ENERGY PREDICTED BY IDOCK:   -8.11 KCAL/MOL
REMARK 923 INTER-LIGAND FREE ENERGY PREDICTED BY IDOCK:   -7.60 KCAL/MOL
REMARK 924 INTRA-LIGAND FREE ENERGY PREDICTED BY IDOCK:   -0.51 KCAL/MOL
REMARK 927      BINDING AFFINITY PREDICTED BY RF-SCORE:    0.00 PKD
ROOT
HETATM    1  C   UNL     1      -8.433   3.454  66.639  1.00  0.00    -0.109 C  
HETATM    2  O   UNL     1      -7.998   4.550  67.438  1.00  0.00    -0.099 OA 
ENDROOT
BRANCH   2   3
HETATM    3  C   UNL     1      -8.926   5.010  68.330  1.00  0.00    -0.107 A  
HETATM    4  C   UNL     1      -9.895   5.869  67.812  1.00  0.00    -0.138 A  
HETATM    5  C   UNL     1     -10.863   6.430  68.649  1.00  0.00    -0.379 A  
HETATM    6  C   UNL     1     -10.890   6.111  70.012  1.00  0.00    -0.408 A  
HETATM    7  C   UNL     1      -8.971   4.661  69.678  1.00  0.00    -0.140 A  
HETATM    8  C   UNL     1      -9.944   5.209  70.515  1.00  0.00    -0.304 A  
BRANCH   6   9
HETATM    9  C   UNL     1     -11.832   6.806  70.966  1.00  0.00    -0.427 C  
BRANCH   9  10
HETATM   10  C   UNL     1     -11.578   8.315  71.202  1.00  0.00    -0.279 C  
HETATM   11  C   UNL     1     -10.108   8.563  71.560  1.00  0.00    -0.315 C  
BRANCH  10  12
HETATM   12  N   UNL     1     -11.904   9.149  70.025  1.00  0.00    -0.439 NA 
HETATM   13  H   UNL     1     -12.904   9.118  69.823  1.00  0.00     0.000 HD 
BRANCH  12  14
HETATM   14  C   UNL     1     -11.438  10.535  70.159  1.00  0.00    -0.325 C  
BRANCH  14  15
HETATM   15  C   UNL     1     -10.976  11.169  68.821  1.00  0.00    -0.219 C  
HETATM   16  H   UNL     1     -11.459  11.001  66.924  1.00  0.00     0.000 HD 
HETATM   17  O   UNL     1     -11.741  10.613  67.743  1.00  0.00    -0.503 OA 
BRANCH  15  18
HETATM   18  C   UNL     1     -11.144  12.683  68.850  1.00  0.00    -0.307 A  
HETATM   19  C   UNL     1     -11.798  13.324  69.925  1.00  0.00    -0.380 A  
HETATM   20  C   UNL     1     -11.930  14.716  69.974  1.00  0.00    -0.320 A  
HETATM   21  H   UNL     1     -11.142  17.348  68.173  1.00  0.00     0.000 HD 
HETATM   22  C   UNL     1     -11.386  15.474  68.930  1.00  0.00    -0.324 A  
HETATM   23  C   UNL     1     -10.616  13.471  67.821  1.00  0.00    -0.252 A  
HETATM   24  C   UNL     1     -10.729  14.862  67.866  1.00  0.00    -0.265 A  
HETATM   25  O   UNL     1     -11.510  16.834  68.882  1.00  0.00    -0.141 OA 
BRANCH  20  26
HETATM   26  N   UNL     1     -12.554  15.375  71.049  1.00  0.00    -0.397 N  
HETATM   27  H   UNL     1     -12.043  16.154  71.463  1.00  0.00     0.000 HD 
HETATM   28  O   UNL     1     -14.215  15.702  72.561  1.00  0.00    -0.557 OA 
HETATM   29  C   UNL     1     -13.768  15.087  71.599  1.00  0.00    -0.462 C  
ENDBRANCH  20  26
ENDBRANCH  15  18
ENDBRANCH  14  15
ENDBRANCH  12  14
ENDBRANCH  10  12
ENDBRANCH   9  10
ENDBRANCH   6   9
ENDBRANCH   2   3
TORSDOF 8
ENDMDL
MODEL      178
REMARK 921   NORMALIZED FREE ENERGY PREDICTED BY IDOCK:   -4.50 KCAL/MOL
REMARK 922        TOTAL FREE ENERGY PREDICTED BY IDOCK:   -8.10 KCAL/MOL
REMARK 923 INTER-LIGAND FREE ENERGY PREDICTED BY IDOCK:   -6.78 KCAL/MOL
REMARK 924 INTRA-LIGAND FREE ENERGY PREDICTED BY IDOCK:   -1.33 KCAL/MOL
REMARK 927      BINDING AFFINITY PREDICTED BY RF-SCORE:    0.00 PKD
ROOT
HETATM    1  C   UNL     1      -5.988  20.746  64.735  1.00  0.00    -0.273 C  
HETATM    2  O   UNL     1      -6.428  20.928  66.078  1.00  0.00    -0.242 OA 
ENDROOT
BRANCH   2   3
HETATM    3  C   UNL     1      -7.489  20.147  66.443  1.00  0.00    -0.279 A  
HETATM    4  C   UNL     1      -8.281  20.642  67.478  1.00  0.00    -0.254 A  
HETATM    5  C   UNL     1      -9.364  19.901  67.956  1.00  0.00    -0.431 A  
HETATM    6  C   UNL     1      -9.686  18.666  67.379  1.00  0.00    -0.330 A  
HETATM    7  C   UNL     1      -7.826  18.937  65.841  1.00  0.00    -0.114 A  
HETATM    8  C   UNL     1      -8.915  18.199  66.308  1.00  0.00    -0.196 A  
BRANCH   6   9
HETATM    9  C   UNL     1     -10.760  17.779  67.962  1.00  0.00    -0.317 C  
BRANCH   9  10
HETATM   10  C   UNL     1     -10.358  16.941  69.201  1.00  0.00    -0.319 C  
HETATM   11  C   UNL     1     -11.210  15.670  69.289  1.00  0.00    -0.320 C  
BRANCH  10  12
HETATM   12  N   UNL     1      -8.937  16.533  69.189  1.00  0.00    -0.219 NA 
HETATM   13  H   UNL     1      -8.488  16.753  70.078  1.00  0.00     0.000 HD 
BRANCH  12  14
HETATM   14  C   UNL     1      -8.750  15.119  68.842  1.00  0.00    -0.205 C  
BRANCH  14  15
HETATM   15  C   UNL     1      -8.185  14.897  67.414  1.00  0.00    -0.197 C  
HETATM   16  H   UNL     1      -6.595  14.055  66.626  1.00  0.00     0.000 HD 
HETATM   17  O   UNL     1      -6.941  14.190  67.500  1.00  0.00    -0.180 OA 
BRANCH  15  18
HETATM   18  C   UNL     1      -9.170  14.113  66.555  1.00  0.00    -0.247 A  
HETATM   19  C   UNL     1      -9.296  12.713  66.683  1.00  0.00    -0.236 A  
HETATM   20  C   UNL     1     -10.219  11.989  65.920  1.00  0.00    -0.232 A  
HETATM   21  H   UNL     1     -12.481  12.525  63.599  1.00  0.00     0.000 HD 
HETATM   22  C   UNL     1     -11.033  12.689  65.021  1.00  0.00    -0.289 A  
HETATM   23  C   UNL     1      -9.998  14.780  65.644  1.00  0.00    -0.390 A  
HETATM   24  C   UNL     1     -10.932  14.070  64.887  1.00  0.00    -0.398 A  
HETATM   25  O   UNL     1     -11.928  12.051  64.209  1.00  0.00    -0.366 OA 
BRANCH  20  26
HETATM   26  N   UNL     1     -10.377  10.597  66.052  1.00  0.00    -0.245 N  
HETATM   27  H   UNL     1     -10.324  10.051  65.193  1.00  0.00     0.000 HD 
HETATM   28  O   UNL     1     -10.752   8.682  67.210  1.00  0.00    -0.271 OA 
HETATM   29  C   UNL     1     -10.594   9.898  67.202  1.00  0.00    -0.228 C  
ENDBRANCH  20  26
ENDBRANCH  15  18
ENDBRANCH  14  15
ENDBRANCH  12  14
ENDBRANCH  10  12
ENDBRANCH   9  10
ENDBRANCH   6   9
ENDBRANCH   2   3
TORSDOF 8
ENDMDL
MODEL      179
REMARK 921   NORMALIZED FREE ENERGY PREDICTED BY IDOCK:   -4.50 KCAL/MOL
REMARK 922        TOTAL FREE ENERGY PREDICTED BY IDOCK:   -8.10 KCAL/MOL
REMARK 923 INTER-LIGAND FREE ENERGY PREDICTED BY IDOCK:   -7.45 KCAL/MOL
REMARK 924 INTRA-LIGAND FREE ENERGY PREDICTED BY IDOCK:   -0.65 KCAL/MOL
REMARK 927      BINDING AFFINITY PREDICTED BY RF-SCORE:    0.00 PKD
ROOT
HETATM    1  C   UNL     1      -7.509  19.585  69.141  1.00  0.00    -0.305 C  
HETATM    2  O   UNL     1      -8.874  19.413  68.771  1.00  0.00    -0.366 OA 
ENDROOT
BRANCH   2   3
HETATM    3  C   UNL     1      -9.146  18.244  68.117  1.00  0.00    -0.298 A  
HETATM    4  C   UNL     1      -8.241  17.877  67.122  1.00  0.00    -0.228 A  
HETATM    5  C   UNL     1      -8.452  16.723  66.365  1.00  0.00    -0.338 A  
HETATM    6  C   UNL     1      -9.560  15.903  66.618  1.00  0.00    -0.265 A  
HETATM    7  C   UNL     1     -10.230  17.415  68.397  1.00  0.00    -0.362 A  
HETATM    8  C   UNL     1     -10.437  16.253  67.651  1.00  0.00    -0.295 A  
BRANCH   6   9
HETATM    9  C   UNL     1      -9.892  14.729  65.729  1.00  0.00    -0.373 C  
BRANCH   9  10
HETATM   10  C   UNL     1     -11.264  14.779  65.012  1.00  0.00    -0.395 C  
HETATM   11  C   UNL     1     -11.452  16.124  64.303  1.00  0.00    -0.099 C  
BRANCH  10  12
HETATM   12  N   UNL     1     -11.431  13.709  64.005  1.00  0.00    -0.593 NA 
HETATM   13  H   UNL     1     -10.536  13.465  63.581  1.00  0.00     0.000 HD 
BRANCH  12  14
HETATM   14  C   UNL     1     -12.100  12.517  64.542  1.00  0.00    -0.425 C  
BRANCH  14  15
HETATM   15  C   UNL     1     -11.120  11.440  65.077  1.00  0.00    -0.145 C  
HETATM   16  H   UNL     1      -9.175  11.165  65.092  1.00  0.00     0.000 HD 
HETATM   17  O   UNL     1      -9.775  11.825  64.765  1.00  0.00    -0.233 OA 
BRANCH  15  18
HETATM   18  C   UNL     1     -11.275  11.264  66.583  1.00  0.00    -0.247 A  
HETATM   19  C   UNL     1     -10.903  10.059  67.218  1.00  0.00    -0.284 A  
HETATM   20  C   UNL     1     -11.013   9.900  68.604  1.00  0.00    -0.179 A  
HETATM   21  H   UNL     1     -12.002  11.613  71.227  1.00  0.00     0.000 HD 
HETATM   22  C   UNL     1     -11.496  10.974  69.361  1.00  0.00    -0.294 A  
HETATM   23  C   UNL     1     -11.757  12.316  67.370  1.00  0.00    -0.405 A  
HETATM   24  C   UNL     1     -11.859  12.173  68.755  1.00  0.00    -0.356 A  
HETATM   25  O   UNL     1     -11.675  10.884  70.713  1.00  0.00    -0.328 OA 
BRANCH  20  26
HETATM   26  N   UNL     1     -10.623   8.717  69.259  1.00  0.00    -0.283 N  
HETATM   27  H   UNL     1     -10.532   8.769  70.273  1.00  0.00     0.000 HD 
HETATM   28  O   UNL     1      -9.987   6.541  69.343  1.00  0.00    -0.154 OA 
HETATM   29  C   UNL     1     -10.354   7.510  68.687  1.00  0.00    -0.200 C  
ENDBRANCH  20  26
ENDBRANCH  15  18
ENDBRANCH  14  15
ENDBRANCH  12  14
ENDBRANCH  10  12
ENDBRANCH   9  10
ENDBRANCH   6   9
ENDBRANCH   2   3
TORSDOF 8
ENDMDL
MODEL      180
REMARK 921   NORMALIZED FREE ENERGY PREDICTED BY IDOCK:   -4.48 KCAL/MOL
REMARK 922        TOTAL FREE ENERGY PREDICTED BY IDOCK:   -8.07 KCAL/MOL
REMARK 923 INTER-LIGAND FREE ENERGY PREDICTED BY IDOCK:   -6.46 KCAL/MOL
REMARK 924 INTRA-LIGAND FREE ENERGY PREDICTED BY IDOCK:   -1.62 KCAL/MOL
REMARK 927      BINDING AFFINITY PREDICTED BY RF-SCORE:    0.00 PKD
ROOT
HETATM    1  C   UNL     1     -11.239   8.775  71.243  1.00  0.00    -0.284 C  
HETATM    2  O   UNL     1     -10.830   8.677  69.881  1.00  0.00    -0.236 OA 
ENDROOT
BRANCH   2   3
HETATM    3  C   UNL     1     -11.000   9.819  69.149  1.00  0.00    -0.175 A  
HETATM    4  C   UNL     1     -11.495  10.920  69.847  1.00  0.00    -0.402 A  
HETATM    5  C   UNL     1     -11.747  12.123  69.182  1.00  0.00    -0.384 A  
HETATM    6  C   UNL     1     -11.475  12.245  67.813  1.00  0.00    -0.392 A  
HETATM    7  C   UNL     1     -10.694   9.945  67.797  1.00  0.00    -0.332 A  
HETATM    8  C   UNL     1     -10.932  11.149  67.132  1.00  0.00    -0.350 A  
BRANCH   6   9
HETATM    9  C   UNL     1     -11.865  13.481  67.038  1.00  0.00    -0.447 C  
BRANCH   9  10
HETATM   10  C   UNL     1     -11.677  13.415  65.503  1.00  0.00    -0.340 C  
HETATM   11  C   UNL     1     -13.010  13.657  64.787  1.00  0.00    -0.032 C  
BRANCH  10  12
HETATM   12  N   UNL     1     -10.704  14.406  64.995  1.00  0.00    -0.398 NA 
HETATM   13  H   UNL     1     -11.008  14.790  64.101  1.00  0.00     0.000 HD 
BRANCH  12  14
HETATM   14  C   UNL     1     -10.424  15.478  65.959  1.00  0.00    -0.323 C  
BRANCH  14  15
HETATM   15  C   UNL     1      -8.943  15.939  65.965  1.00  0.00    -0.302 C  
HETATM   16  H   UNL     1      -7.984  17.653  66.044  1.00  0.00     0.000 HD 
HETATM   17  O   UNL     1      -8.891  17.370  66.041  1.00  0.00    -0.498 OA 
BRANCH  15  18
HETATM   18  C   UNL     1      -8.188  15.329  67.139  1.00  0.00    -0.250 A  
HETATM   19  C   UNL     1      -8.332  13.965  67.471  1.00  0.00    -0.202 A  
HETATM   20  C   UNL     1      -7.619  13.390  68.528  1.00  0.00    -0.127 A  
HETATM   21  H   UNL     1      -5.444  14.275  70.825  1.00  0.00     0.000 HD 
HETATM   22  C   UNL     1      -6.740  14.200  69.257  1.00  0.00    -0.122 A  
HETATM   23  C   UNL     1      -7.302  16.111  67.891  1.00  0.00    -0.142 A  
HETATM   24  C   UNL     1      -6.576  15.545  68.940  1.00  0.00    -0.113 A  
HETATM   25  O   UNL     1      -6.041  13.725  70.331  1.00  0.00    -0.158 OA 
BRANCH  20  26
HETATM   26  N   UNL     1      -7.730  12.025  68.856  1.00  0.00    -0.306 N  
HETATM   27  H   UNL     1      -8.408  11.787  69.580  1.00  0.00     0.000 HD 
HETATM   28  O   UNL     1      -7.177   9.831  68.693  1.00  0.00    -0.071 OA 
HETATM   29  C   UNL     1      -7.032  10.988  68.314  1.00  0.00    -0.069 C  
ENDBRANCH  20  26
ENDBRANCH  15  18
ENDBRANCH  14  15
ENDBRANCH  12  14
ENDBRANCH  10  12
ENDBRANCH   9  10
ENDBRANCH   6   9
ENDBRANCH   2   3
TORSDOF 8
ENDMDL
MODEL      181
REMARK 921   NORMALIZED FREE ENERGY PREDICTED BY IDOCK:   -4.47 KCAL/MOL
REMARK 922        TOTAL FREE ENERGY PREDICTED BY IDOCK:   -8.06 KCAL/MOL
REMARK 923 INTER-LIGAND FREE ENERGY PREDICTED BY IDOCK:   -7.41 KCAL/MOL
REMARK 924 INTRA-LIGAND FREE ENERGY PREDICTED BY IDOCK:   -0.65 KCAL/MOL
REMARK 927      BINDING AFFINITY PREDICTED BY RF-SCORE:    0.00 PKD
ROOT
HETATM    1  C   UNL     1     -10.365  19.946  68.106  1.00  0.00    -0.397 C  
HETATM    2  O   UNL     1     -10.764  18.984  67.133  1.00  0.00    -0.447 OA 
ENDROOT
BRANCH   2   3
HETATM    3  C   UNL     1     -10.062  17.812  67.167  1.00  0.00    -0.338 A  
HETATM    4  C   UNL     1      -9.346  17.565  68.337  1.00  0.00    -0.287 A  
HETATM    5  C   UNL     1      -8.560  16.416  68.456  1.00  0.00    -0.223 A  
HETATM    6  C   UNL     1      -8.510  15.482  67.413  1.00  0.00    -0.199 A  
HETATM    7  C   UNL     1     -10.045  16.870  66.141  1.00  0.00    -0.347 A  
HETATM    8  C   UNL     1      -9.271  15.714  66.261  1.00  0.00    -0.365 A  
BRANCH   6   9
HETATM    9  C   UNL     1      -7.565  14.305  67.453  1.00  0.00    -0.185 C  
BRANCH   9  10
HETATM   10  C   UNL     1      -8.220  12.903  67.489  1.00  0.00    -0.184 C  
HETATM   11  C   UNL     1      -7.149  11.812  67.599  1.00  0.00    -0.107 C  
BRANCH  10  12
HETATM   12  N   UNL     1      -9.158  12.730  68.619  1.00  0.00    -0.397 NA 
HETATM   13  H   UNL     1      -9.891  13.440  68.596  1.00  0.00     0.000 HD 
BRANCH  12  14
HETATM   14  C   UNL     1      -9.736  11.382  68.683  1.00  0.00    -0.176 C  
BRANCH  14  15
HETATM   15  C   UNL     1     -11.145  11.337  69.328  1.00  0.00    -0.255 C  
HETATM   16  H   UNL     1     -12.991  11.079  68.705  1.00  0.00     0.000 HD 
HETATM   17  O   UNL     1     -12.128  11.106  68.310  1.00  0.00    -0.620 OA 
BRANCH  15  18
HETATM   18  C   UNL     1     -11.225  10.241  70.385  1.00  0.00    -0.407 A  
HETATM   19  C   UNL     1     -10.080   9.510  70.766  1.00  0.00    -0.352 A  
HETATM   20  C   UNL     1     -10.139   8.524  71.756  1.00  0.00    -0.281 A  
HETATM   21  H   UNL     1     -12.353   7.134  73.745  1.00  0.00     0.000 HD 
HETATM   22  C   UNL     1     -11.369   8.277  72.378  1.00  0.00    -0.388 A  
HETATM   23  C   UNL     1     -12.440   9.967  71.025  1.00  0.00    -0.441 A  
HETATM   24  C   UNL     1     -12.508   8.994  72.024  1.00  0.00    -0.460 A  
HETATM   25  O   UNL     1     -11.519   7.301  73.323  1.00  0.00    -0.145 OA 
BRANCH  20  26
HETATM   26  N   UNL     1      -9.003   7.803  72.169  1.00  0.00    -0.129 N  
HETATM   27  H   UNL     1      -8.761   6.981  71.615  1.00  0.00     0.000 HD 
HETATM   28  O   UNL     1      -7.236   7.370  73.525  1.00  0.00    -0.080 OA 
HETATM   29  C   UNL     1      -8.189   8.081  73.225  1.00  0.00    -0.198 C  
ENDBRANCH  20  26
ENDBRANCH  15  18
ENDBRANCH  14  15
ENDBRANCH  12  14
ENDBRANCH  10  12
ENDBRANCH   9  10
ENDBRANCH   6   9
ENDBRANCH   2   3
TORSDOF 8
ENDMDL
MODEL      182
REMARK 921   NORMALIZED FREE ENERGY PREDICTED BY IDOCK:   -4.47 KCAL/MOL
REMARK 922        TOTAL FREE ENERGY PREDICTED BY IDOCK:   -8.05 KCAL/MOL
REMARK 923 INTER-LIGAND FREE ENERGY PREDICTED BY IDOCK:   -6.58 KCAL/MOL
REMARK 924 INTRA-LIGAND FREE ENERGY PREDICTED BY IDOCK:   -1.47 KCAL/MOL
REMARK 927      BINDING AFFINITY PREDICTED BY RF-SCORE:    0.00 PKD
ROOT
HETATM    1  C   UNL     1      -9.650   8.745  65.969  1.00  0.00    -0.226 C  
HETATM    2  O   UNL     1      -9.402   7.362  66.206  1.00  0.00    -0.169 OA 
ENDROOT
BRANCH   2   3
HETATM    3  C   UNL     1      -9.656   6.947  67.484  1.00  0.00    -0.128 A  
HETATM    4  C   UNL     1      -8.685   7.268  68.432  1.00  0.00    -0.122 A  
HETATM    5  C   UNL     1      -8.828   6.851  69.758  1.00  0.00    -0.141 A  
HETATM    6  C   UNL     1      -9.963   6.133  70.156  1.00  0.00    -0.218 A  
HETATM    7  C   UNL     1     -10.804   6.265  67.881  1.00  0.00    -0.417 A  
HETATM    8  C   UNL     1     -10.955   5.858  69.208  1.00  0.00    -0.397 A  
BRANCH   6   9
HETATM    9  C   UNL     1     -10.081   5.549  71.544  1.00  0.00    -0.260 C  
BRANCH   9  10
HETATM   10  C   UNL     1     -11.464   5.681  72.227  1.00  0.00    -0.217 C  
HETATM   11  C   UNL     1     -11.817   4.394  72.980  1.00  0.00     0.055 C  
BRANCH  10  12
HETATM   12  N   UNL     1     -11.529   6.802  73.191  1.00  0.00    -0.483 NA 
HETATM   13  H   UNL     1     -10.834   6.689  73.929  1.00  0.00     0.000 HD 
BRANCH  12  14
HETATM   14  C   UNL     1     -11.404   8.116  72.548  1.00  0.00    -0.401 C  
BRANCH  14  15
HETATM   15  C   UNL     1     -12.376   8.323  71.358  1.00  0.00    -0.299 C  
HETATM   16  H   UNL     1     -14.322   8.451  71.112  1.00  0.00     0.000 HD 
HETATM   17  O   UNL     1     -13.726   8.325  71.841  1.00  0.00    -0.353 OA 
BRANCH  15  18
HETATM   18  C   UNL     1     -12.081   9.631  70.635  1.00  0.00    -0.269 A  
HETATM   19  C   UNL     1     -12.381  10.877  71.228  1.00  0.00    -0.448 A  
HETATM   20  C   UNL     1     -12.085  12.083  70.584  1.00  0.00    -0.274 A  
HETATM   21  H   UNL     1     -10.770  13.132  67.762  1.00  0.00     0.000 HD 
HETATM   22  C   UNL     1     -11.470  12.034  69.328  1.00  0.00    -0.301 A  
HETATM   23  C   UNL     1     -11.469   9.619  69.375  1.00  0.00     0.048 A  
HETATM   24  C   UNL     1     -11.157  10.816  68.730  1.00  0.00    -0.312 A  
HETATM   25  O   UNL     1     -11.188  13.165  68.615  1.00  0.00    -0.245 OA 
BRANCH  20  26
HETATM   26  N   UNL     1     -12.351  13.334  71.171  1.00  0.00    -0.375 N  
HETATM   27  H   UNL     1     -12.174  14.154  70.592  1.00  0.00     0.000 HD 
HETATM   28  O   UNL     1     -12.991  14.705  72.862  1.00  0.00    -0.438 OA 
HETATM   29  C   UNL     1     -12.821  13.571  72.428  1.00  0.00    -0.190 C  
ENDBRANCH  20  26
ENDBRANCH  15  18
ENDBRANCH  14  15
ENDBRANCH  12  14
ENDBRANCH  10  12
ENDBRANCH   9  10
ENDBRANCH   6   9
ENDBRANCH   2   3
TORSDOF 8
ENDMDL
MODEL      183
REMARK 921   NORMALIZED FREE ENERGY PREDICTED BY IDOCK:   -4.47 KCAL/MOL
REMARK 922        TOTAL FREE ENERGY PREDICTED BY IDOCK:   -8.05 KCAL/MOL
REMARK 923 INTER-LIGAND FREE ENERGY PREDICTED BY IDOCK:   -7.51 KCAL/MOL
REMARK 924 INTRA-LIGAND FREE ENERGY PREDICTED BY IDOCK:   -0.54 KCAL/MOL
REMARK 927      BINDING AFFINITY PREDICTED BY RF-SCORE:    0.00 PKD
ROOT
HETATM    1  C   UNL     1     -10.291  19.768  68.260  1.00  0.00    -0.410 C  
HETATM    2  O   UNL     1      -9.495  18.920  67.437  1.00  0.00    -0.293 OA 
ENDROOT
BRANCH   2   3
HETATM    3  C   UNL     1     -10.042  17.693  67.182  1.00  0.00    -0.328 A  
HETATM    4  C   UNL     1     -10.529  17.002  68.290  1.00  0.00    -0.363 A  
HETATM    5  C   UNL     1     -11.067  15.721  68.144  1.00  0.00    -0.341 A  
HETATM    6  C   UNL     1     -11.153  15.131  66.877  1.00  0.00    -0.314 A  
HETATM    7  C   UNL     1     -10.157  17.126  65.915  1.00  0.00    -0.257 A  
HETATM    8  C   UNL     1     -10.706  15.852  65.763  1.00  0.00    -0.325 A  
BRANCH   6   9
HETATM    9  C   UNL     1     -11.598  13.698  66.703  1.00  0.00    -0.391 C  
BRANCH   9  10
HETATM   10  C   UNL     1     -10.474  12.638  66.604  1.00  0.00    -0.245 C  
HETATM   11  C   UNL     1      -9.154  13.202  67.142  1.00  0.00    -0.230 C  
BRANCH  10  12
HETATM   12  N   UNL     1     -10.777  11.401  67.355  1.00  0.00    -0.218 NA 
HETATM   13  H   UNL     1      -9.943  11.047  67.825  1.00  0.00     0.000 HD 
BRANCH  12  14
HETATM   14  C   UNL     1     -11.885  11.565  68.304  1.00  0.00    -0.256 C  
BRANCH  14  15
HETATM   15  C   UNL     1     -11.445  11.521  69.791  1.00  0.00    -0.286 C  
HETATM   16  H   UNL     1     -11.853  12.527  71.428  1.00  0.00     0.000 HD 
HETATM   17  O   UNL     1     -12.122  12.554  70.518  1.00  0.00    -0.365 OA 
BRANCH  15  18
HETATM   18  C   UNL     1     -11.753  10.163  70.410  1.00  0.00    -0.390 A  
HETATM   19  C   UNL     1     -10.908   9.053  70.192  1.00  0.00    -0.261 A  
HETATM   20  C   UNL     1     -11.167   7.811  70.782  1.00  0.00    -0.271 A  
HETATM   21  H   UNL     1     -13.398   6.414  72.748  1.00  0.00     0.000 HD 
HETATM   22  C   UNL     1     -12.290   7.688  71.609  1.00  0.00    -0.326 A  
HETATM   23  C   UNL     1     -12.869  10.003  71.241  1.00  0.00    -0.500 A  
HETATM   24  C   UNL     1     -13.130   8.772  71.844  1.00  0.00    -0.420 A  
HETATM   25  O   UNL     1     -12.636   6.498  72.187  1.00  0.00    -0.269 OA 
BRANCH  20  26
HETATM   26  N   UNL     1     -10.322   6.700  70.598  1.00  0.00    -0.200 N  
HETATM   27  H   UNL     1     -10.265   6.041  71.374  1.00  0.00     0.000 HD 
HETATM   28  O   UNL     1      -8.838   5.428  69.447  1.00  0.00    -0.104 OA 
HETATM   29  C   UNL     1      -9.573   6.408  69.499  1.00  0.00    -0.144 C  
ENDBRANCH  20  26
ENDBRANCH  15  18
ENDBRANCH  14  15
ENDBRANCH  12  14
ENDBRANCH  10  12
ENDBRANCH   9  10
ENDBRANCH   6   9
ENDBRANCH   2   3
TORSDOF 8
ENDMDL
MODEL      184
REMARK 921   NORMALIZED FREE ENERGY PREDICTED BY IDOCK:   -4.46 KCAL/MOL
REMARK 922        TOTAL FREE ENERGY PREDICTED BY IDOCK:   -8.04 KCAL/MOL
REMARK 923 INTER-LIGAND FREE ENERGY PREDICTED BY IDOCK:   -6.94 KCAL/MOL
REMARK 924 INTRA-LIGAND FREE ENERGY PREDICTED BY IDOCK:   -1.10 KCAL/MOL
REMARK 927      BINDING AFFINITY PREDICTED BY RF-SCORE:    0.00 PKD
ROOT
HETATM    1  C   UNL     1      -5.925   9.669  64.972  1.00  0.00    -0.075 C  
HETATM    2  O   UNL     1      -7.150   9.404  64.296  1.00  0.00    -0.096 OA 
ENDROOT
BRANCH   2   3
HETATM    3  C   UNL     1      -8.240  10.046  64.815  1.00  0.00    -0.155 A  
HETATM    4  C   UNL     1      -9.287  10.285  63.925  1.00  0.00    -0.337 A  
HETATM    5  C   UNL     1     -10.428  10.973  64.344  1.00  0.00    -0.422 A  
HETATM    6  C   UNL     1     -10.547  11.403  65.671  1.00  0.00    -0.314 A  
HETATM    7  C   UNL     1      -8.369  10.438  66.145  1.00  0.00    -0.149 A  
HETATM    8  C   UNL     1      -9.513  11.115  66.570  1.00  0.00    -0.215 A  
BRANCH   6   9
HETATM    9  C   UNL     1     -11.700  12.268  66.120  1.00  0.00    -0.440 C  
BRANCH   9  10
HETATM   10  C   UNL     1     -11.334  13.673  66.657  1.00  0.00    -0.326 C  
HETATM   11  C   UNL     1     -11.148  14.660  65.500  1.00  0.00    -0.345 C  
BRANCH  10  12
HETATM   12  N   UNL     1     -12.358  14.230  67.568  1.00  0.00    -0.587 NA 
HETATM   13  H   UNL     1     -13.213  13.675  67.538  1.00  0.00     0.000 HD 
BRANCH  12  14
HETATM   14  C   UNL     1     -11.876  14.379  68.947  1.00  0.00    -0.320 C  
BRANCH  14  15
HETATM   15  C   UNL     1     -11.785  15.854  69.420  1.00  0.00    -0.343 C  
HETATM   16  H   UNL     1     -11.883  16.809  71.134  1.00  0.00     0.000 HD 
HETATM   17  O   UNL     1     -11.938  15.906  70.845  1.00  0.00    -0.376 OA 
BRANCH  15  18
HETATM   18  C   UNL     1     -10.452  16.473  69.018  1.00  0.00    -0.303 A  
HETATM   19  C   UNL     1      -9.289  15.683  68.891  1.00  0.00    -0.223 A  
HETATM   20  C   UNL     1      -8.069  16.238  68.492  1.00  0.00    -0.193 A  
HETATM   21  H   UNL     1      -6.827  19.165  67.664  1.00  0.00     0.000 HD 
HETATM   22  C   UNL     1      -8.022  17.609  68.209  1.00  0.00    -0.272 A  
HETATM   23  C   UNL     1     -10.368  17.841  68.730  1.00  0.00    -0.332 A  
HETATM   24  C   UNL     1      -9.159  18.403  68.319  1.00  0.00    -0.330 A  
HETATM   25  O   UNL     1      -6.859  18.235  67.856  1.00  0.00    -0.206 OA 
BRANCH  20  26
HETATM   26  N   UNL     1      -6.905  15.463  68.334  1.00  0.00    -0.111 N  
HETATM   27  H   UNL     1      -6.094  15.743  68.885  1.00  0.00     0.000 HD 
HETATM   28  O   UNL     1      -5.673  13.784  67.432  1.00  0.00    -0.354 OA 
HETATM   29  C   UNL     1      -6.742  14.378  67.526  1.00  0.00    -0.108 C  
ENDBRANCH  20  26
ENDBRANCH  15  18
ENDBRANCH  14  15
ENDBRANCH  12  14
ENDBRANCH  10  12
ENDBRANCH   9  10
ENDBRANCH   6   9
ENDBRANCH   2   3
TORSDOF 8
ENDMDL
MODEL      185
REMARK 921   NORMALIZED FREE ENERGY PREDICTED BY IDOCK:   -4.45 KCAL/MOL
REMARK 922        TOTAL FREE ENERGY PREDICTED BY IDOCK:   -8.02 KCAL/MOL
REMARK 923 INTER-LIGAND FREE ENERGY PREDICTED BY IDOCK:   -7.30 KCAL/MOL
REMARK 924 INTRA-LIGAND FREE ENERGY PREDICTED BY IDOCK:   -0.72 KCAL/MOL
REMARK 927      BINDING AFFINITY PREDICTED BY RF-SCORE:    0.00 PKD
ROOT
HETATM    1  C   UNL     1     -10.133   3.858  64.609  1.00  0.00    -0.213 C  
HETATM    2  O   UNL     1      -9.035   4.269  65.418  1.00  0.00    -0.124 OA 
ENDROOT
BRANCH   2   3
HETATM    3  C   UNL     1      -9.386   4.900  66.580  1.00  0.00    -0.142 A  
HETATM    4  C   UNL     1     -10.576   5.625  66.543  1.00  0.00    -0.320 A  
HETATM    5  C   UNL     1     -11.001   6.343  67.664  1.00  0.00    -0.441 A  
HETATM    6  C   UNL     1     -10.252   6.314  68.848  1.00  0.00    -0.219 A  
HETATM    7  C   UNL     1      -8.656   4.839  67.765  1.00  0.00    -0.103 A  
HETATM    8  C   UNL     1      -9.085   5.544  68.891  1.00  0.00    -0.133 A  
BRANCH   6   9
HETATM    9  C   UNL     1     -10.609   7.187  70.027  1.00  0.00    -0.248 C  
BRANCH   9  10
HETATM   10  C   UNL     1     -11.839   6.747  70.858  1.00  0.00    -0.385 C  
HETATM   11  C   UNL     1     -11.395   6.098  72.174  1.00  0.00    -0.347 C  
BRANCH  10  12
HETATM   12  N   UNL     1     -12.746   7.867  71.189  1.00  0.00    -0.501 NA 
HETATM   13  H   UNL     1     -13.322   7.642  72.000  1.00  0.00     0.000 HD 
BRANCH  12  14
HETATM   14  C   UNL     1     -12.038   9.138  71.385  1.00  0.00    -0.337 C  
BRANCH  14  15
HETATM   15  C   UNL     1     -12.856  10.381  70.948  1.00  0.00    -0.392 C  
HETATM   16  H   UNL     1     -13.662  11.939  71.833  1.00  0.00     0.000 HD 
HETATM   17  O   UNL     1     -13.161  11.178  72.100  1.00  0.00    -0.481 OA 
BRANCH  15  18
HETATM   18  C   UNL     1     -12.081  11.213  69.932  1.00  0.00    -0.418 A  
HETATM   19  C   UNL     1     -11.962  12.612  70.074  1.00  0.00    -0.377 A  
HETATM   20  C   UNL     1     -11.227  13.379  69.163  1.00  0.00    -0.248 A  
HETATM   21  H   UNL     1      -9.469  12.961  66.420  1.00  0.00     0.000 HD 
HETATM   22  C   UNL     1     -10.596  12.724  68.099  1.00  0.00    -0.229 A  
HETATM   23  C   UNL     1     -11.440  10.591  68.854  1.00  0.00    -0.292 A  
HETATM   24  C   UNL     1     -10.694  11.344  67.946  1.00  0.00    -0.242 A  
HETATM   25  O   UNL     1      -9.897  13.405  67.142  1.00  0.00    -0.228 OA 
BRANCH  20  26
HETATM   26  N   UNL     1     -11.074  14.771  69.302  1.00  0.00    -0.255 N  
HETATM   27  H   UNL     1     -10.654  15.096  70.173  1.00  0.00     0.000 HD 
HETATM   28  O   UNL     1     -11.282  16.928  68.631  1.00  0.00    -0.258 OA 
HETATM   29  C   UNL     1     -11.426  15.732  68.403  1.00  0.00    -0.365 C  
ENDBRANCH  20  26
ENDBRANCH  15  18
ENDBRANCH  14  15
ENDBRANCH  12  14
ENDBRANCH  10  12
ENDBRANCH   9  10
ENDBRANCH   6   9
ENDBRANCH   2   3
TORSDOF 8
ENDMDL
MODEL      186
REMARK 921   NORMALIZED FREE ENERGY PREDICTED BY IDOCK:   -4.43 KCAL/MOL
REMARK 922        TOTAL FREE ENERGY PREDICTED BY IDOCK:   -8.00 KCAL/MOL
REMARK 923 INTER-LIGAND FREE ENERGY PREDICTED BY IDOCK:   -7.15 KCAL/MOL
REMARK 924 INTRA-LIGAND FREE ENERGY PREDICTED BY IDOCK:   -0.85 KCAL/MOL
REMARK 927      BINDING AFFINITY PREDICTED BY RF-SCORE:    0.00 PKD
ROOT
HETATM    1  C   UNL     1     -10.085  18.652  68.817  1.00  0.00    -0.353 C  
HETATM    2  O   UNL     1      -8.985  18.228  68.018  1.00  0.00    -0.277 OA 
ENDROOT
BRANCH   2   3
HETATM    3  C   UNL     1      -9.243  17.153  67.213  1.00  0.00    -0.230 A  
HETATM    4  C   UNL     1     -10.183  17.360  66.205  1.00  0.00    -0.334 A  
HETATM    5  C   UNL     1     -10.551  16.312  65.356  1.00  0.00    -0.371 A  
HETATM    6  C   UNL     1      -9.955  15.052  65.489  1.00  0.00    -0.390 A  
HETATM    7  C   UNL     1      -8.622  15.912  67.327  1.00  0.00    -0.205 A  
HETATM    8  C   UNL     1      -8.977  14.867  66.473  1.00  0.00    -0.288 A  
BRANCH   6   9
HETATM    9  C   UNL     1     -10.430  13.866  64.683  1.00  0.00    -0.419 C  
BRANCH   9  10
HETATM   10  C   UNL     1     -11.947  13.564  64.737  1.00  0.00    -0.390 C  
HETATM   11  C   UNL     1     -12.302  12.418  63.784  1.00  0.00    -0.625 C  
BRANCH  10  12
HETATM   12  N   UNL     1     -12.416  13.190  66.090  1.00  0.00    -0.423 NA 
HETATM   13  H   UNL     1     -13.435  13.181  66.132  1.00  0.00     0.000 HD 
BRANCH  12  14
HETATM   14  C   UNL     1     -11.859  11.914  66.555  1.00  0.00    -0.049 C  
BRANCH  14  15
HETATM   15  C   UNL     1     -11.150  12.008  67.931  1.00  0.00    -0.236 C  
HETATM   16  H   UNL     1     -11.578  12.729  69.708  1.00  0.00     0.000 HD 
HETATM   17  O   UNL     1     -12.012  12.671  68.866  1.00  0.00    -0.302 OA 
BRANCH  15  18
HETATM   18  C   UNL     1     -10.787  10.623  68.452  1.00  0.00    -0.282 A  
HETATM   19  C   UNL     1     -10.741   9.507  67.589  1.00  0.00    -0.314 A  
HETATM   20  C   UNL     1     -10.379   8.238  68.053  1.00  0.00    -0.213 A  
HETATM   21  H   UNL     1      -9.503   6.782  70.864  1.00  0.00     0.000 HD 
HETATM   22  C   UNL     1     -10.049   8.093  69.406  1.00  0.00    -0.194 A  
HETATM   23  C   UNL     1     -10.454  10.441  69.800  1.00  0.00    -0.284 A  
HETATM   24  C   UNL     1     -10.078   9.183  70.272  1.00  0.00    -0.244 A  
HETATM   25  O   UNL     1      -9.727   6.880  69.947  1.00  0.00    -0.163 OA 
BRANCH  20  26
HETATM   26  N   UNL     1     -10.302   7.120  67.203  1.00  0.00    -0.257 N  
HETATM   27  H   UNL     1     -11.186   6.677  66.954  1.00  0.00     0.000 HD 
HETATM   28  O   UNL     1      -9.210   5.562  65.966  1.00  0.00    -0.157 OA 
HETATM   29  C   UNL     1      -9.176   6.562  66.674  1.00  0.00    -0.153 C  
ENDBRANCH  20  26
ENDBRANCH  15  18
ENDBRANCH  14  15
ENDBRANCH  12  14
ENDBRANCH  10  12
ENDBRANCH   9  10
ENDBRANCH   6   9
ENDBRANCH   2   3
TORSDOF 8
ENDMDL
MODEL      187
REMARK 921   NORMALIZED FREE ENERGY PREDICTED BY IDOCK:   -4.43 KCAL/MOL
REMARK 922        TOTAL FREE ENERGY PREDICTED BY IDOCK:   -8.00 KCAL/MOL
REMARK 923 INTER-LIGAND FREE ENERGY PREDICTED BY IDOCK:   -7.20 KCAL/MOL
REMARK 924 INTRA-LIGAND FREE ENERGY PREDICTED BY IDOCK:   -0.79 KCAL/MOL
REMARK 927      BINDING AFFINITY PREDICTED BY RF-SCORE:    0.00 PKD
ROOT
HETATM    1  C   UNL     1     -12.845  12.005  63.235  1.00  0.00    -0.190 C  
HETATM    2  O   UNL     1     -13.146  12.475  64.546  1.00  0.00    -0.816 OA 
ENDROOT
BRANCH   2   3
HETATM    3  C   UNL     1     -12.056  12.679  65.345  1.00  0.00    -0.462 A  
HETATM    4  C   UNL     1     -12.128  13.774  66.205  1.00  0.00    -0.477 A  
HETATM    5  C   UNL     1     -11.049  14.095  67.032  1.00  0.00    -0.314 A  
HETATM    6  C   UNL     1      -9.895  13.301  67.030  1.00  0.00    -0.242 A  
HETATM    7  C   UNL     1     -10.926  11.865  65.365  1.00  0.00    -0.352 A  
HETATM    8  C   UNL     1      -9.851  12.175  66.199  1.00  0.00    -0.254 A  
BRANCH   6   9
HETATM    9  C   UNL     1      -8.662  13.700  67.805  1.00  0.00    -0.184 C  
BRANCH   9  10
HETATM   10  C   UNL     1      -7.590  12.600  67.999  1.00  0.00    -0.132 C  
HETATM   11  C   UNL     1      -6.182  13.192  67.871  1.00  0.00    -0.140 C  
BRANCH  10  12
HETATM   12  N   UNL     1      -7.680  11.927  69.313  1.00  0.00    -0.337 NA 
HETATM   13  H   UNL     1      -8.295  12.442  69.944  1.00  0.00     0.000 HD 
BRANCH  12  14
HETATM   14  C   UNL     1      -8.092  10.522  69.209  1.00  0.00    -0.148 C  
BRANCH  14  15
HETATM   15  C   UNL     1      -7.286   9.567  70.128  1.00  0.00    -0.114 C  
HETATM   16  H   UNL     1      -5.730   9.711  71.319  1.00  0.00     0.000 HD 
HETATM   17  O   UNL     1      -6.224  10.296  70.757  1.00  0.00    -0.181 OA 
BRANCH  15  18
HETATM   18  C   UNL     1      -8.186   8.943  71.188  1.00  0.00    -0.218 A  
HETATM   19  C   UNL     1      -9.586   9.123  71.155  1.00  0.00    -0.347 A  
HETATM   20  C   UNL     1     -10.422   8.529  72.106  1.00  0.00    -0.342 A  
HETATM   21  H   UNL     1     -10.187   6.616  74.766  1.00  0.00     0.000 HD 
HETATM   22  C   UNL     1      -9.839   7.734  73.100  1.00  0.00    -0.298 A  
HETATM   23  C   UNL     1      -7.637   8.145  72.199  1.00  0.00    -0.142 A  
HETATM   24  C   UNL     1      -8.462   7.536  73.145  1.00  0.00    -0.178 A  
HETATM   25  O   UNL     1     -10.582   7.155  74.091  1.00  0.00    -0.283 OA 
BRANCH  20  26
HETATM   26  N   UNL     1     -11.821   8.675  72.074  1.00  0.00    -0.347 N  
HETATM   27  H   UNL     1     -12.201   9.509  72.521  1.00  0.00     0.000 HD 
HETATM   28  O   UNL     1     -13.934   8.025  71.563  1.00  0.00    -0.371 OA 
HETATM   29  C   UNL     1     -12.725   7.825  71.510  1.00  0.00    -0.332 C  
ENDBRANCH  20  26
ENDBRANCH  15  18
ENDBRANCH  14  15
ENDBRANCH  12  14
ENDBRANCH  10  12
ENDBRANCH   9  10
ENDBRANCH   6   9
ENDBRANCH   2   3
TORSDOF 8
ENDMDL
MODEL      188
REMARK 921   NORMALIZED FREE ENERGY PREDICTED BY IDOCK:   -4.42 KCAL/MOL
REMARK 922        TOTAL FREE ENERGY PREDICTED BY IDOCK:   -7.98 KCAL/MOL
REMARK 923 INTER-LIGAND FREE ENERGY PREDICTED BY IDOCK:   -6.32 KCAL/MOL
REMARK 924 INTRA-LIGAND FREE ENERGY PREDICTED BY IDOCK:   -1.66 KCAL/MOL
REMARK 927      BINDING AFFINITY PREDICTED BY RF-SCORE:    0.00 PKD
ROOT
HETATM    1  C   UNL     1     -13.629   9.064  71.868  1.00  0.00    -0.431 C  
HETATM    2  O   UNL     1     -12.389   9.103  72.569  1.00  0.00    -0.290 OA 
ENDROOT
BRANCH   2   3
HETATM    3  C   UNL     1     -11.422   8.277  72.067  1.00  0.00    -0.334 A  
HETATM    4  C   UNL     1     -11.839   6.992  71.722  1.00  0.00    -0.347 A  
HETATM    5  C   UNL     1     -10.919   6.057  71.241  1.00  0.00    -0.340 A  
HETATM    6  C   UNL     1      -9.574   6.410  71.070  1.00  0.00    -0.188 A  
HETATM    7  C   UNL     1     -10.094   8.645  71.865  1.00  0.00    -0.398 A  
HETATM    8  C   UNL     1      -9.175   7.717  71.373  1.00  0.00    -0.152 A  
BRANCH   6   9
HETATM    9  C   UNL     1      -8.533   5.386  70.687  1.00  0.00    -0.119 C  
BRANCH   9  10
HETATM   10  C   UNL     1      -8.289   5.190  69.171  1.00  0.00    -0.087 C  
HETATM   11  C   UNL     1      -9.195   4.084  68.619  1.00  0.00    -0.209 C  
BRANCH  10  12
HETATM   12  N   UNL     1      -8.539   6.416  68.381  1.00  0.00    -0.115 NA 
HETATM   13  H   UNL     1      -7.669   6.916  68.200  1.00  0.00     0.000 HD 
BRANCH  12  14
HETATM   14  C   UNL     1      -9.263   6.152  67.131  1.00  0.00    -0.118 C  
BRANCH  14  15
HETATM   15  C   UNL     1     -10.571   6.973  66.984  1.00  0.00    -0.341 C  
HETATM   16  H   UNL     1     -12.297   7.083  67.917  1.00  0.00     0.000 HD 
HETATM   17  O   UNL     1     -11.496   6.580  68.007  1.00  0.00    -0.145 OA 
BRANCH  15  18
HETATM   18  C   UNL     1     -10.290   8.467  67.083  1.00  0.00    -0.377 A  
HETATM   19  C   UNL     1     -10.733   9.221  68.191  1.00  0.00    -0.205 A  
HETATM   20  C   UNL     1     -10.452  10.587  68.304  1.00  0.00    -0.183 A  
HETATM   21  H   UNL     1      -8.923  12.954  66.617  1.00  0.00     0.000 HD 
HETATM   22  C   UNL     1      -9.707  11.200  67.290  1.00  0.00    -0.166 A  
HETATM   23  C   UNL     1      -9.550   9.113  66.085  1.00  0.00    -0.333 A  
HETATM   24  C   UNL     1      -9.253  10.472  66.194  1.00  0.00    -0.197 A  
HETATM   25  O   UNL     1      -9.428  12.538  67.305  1.00  0.00    -0.185 OA 
BRANCH  20  26
HETATM   26  N   UNL     1     -10.863  11.350  69.414  1.00  0.00    -0.395 N  
HETATM   27  H   UNL     1     -10.121  11.746  69.991  1.00  0.00     0.000 HD 
HETATM   28  O   UNL     1     -12.398  12.268  70.809  1.00  0.00    -0.377 OA 
HETATM   29  C   UNL     1     -12.141  11.617  69.802  1.00  0.00    -0.289 C  
ENDBRANCH  20  26
ENDBRANCH  15  18
ENDBRANCH  14  15
ENDBRANCH  12  14
ENDBRANCH  10  12
ENDBRANCH   9  10
ENDBRANCH   6   9
ENDBRANCH   2   3
TORSDOF 8
ENDMDL
MODEL      189
REMARK 921   NORMALIZED FREE ENERGY PREDICTED BY IDOCK:   -4.42 KCAL/MOL
REMARK 922        TOTAL FREE ENERGY PREDICTED BY IDOCK:   -7.98 KCAL/MOL
REMARK 923 INTER-LIGAND FREE ENERGY PREDICTED BY IDOCK:   -7.03 KCAL/MOL
REMARK 924 INTRA-LIGAND FREE ENERGY PREDICTED BY IDOCK:   -0.95 KCAL/MOL
REMARK 927      BINDING AFFINITY PREDICTED BY RF-SCORE:    0.00 PKD
ROOT
HETATM    1  C   UNL     1      -7.283   7.727  63.874  1.00  0.00    -0.085 C  
HETATM    2  O   UNL     1      -8.408   8.210  63.146  1.00  0.00    -0.127 OA 
ENDROOT
BRANCH   2   3
HETATM    3  C   UNL     1      -8.879   9.425  63.560  1.00  0.00    -0.172 A  
HETATM    4  C   UNL     1      -9.249  10.311  62.549  1.00  0.00    -0.321 A  
HETATM    5  C   UNL     1      -9.701  11.594  62.865  1.00  0.00    -0.233 A  
HETATM    6  C   UNL     1      -9.819  11.994  64.202  1.00  0.00    -0.210 A  
HETATM    7  C   UNL     1      -9.028   9.804  64.892  1.00  0.00    -0.257 A  
HETATM    8  C   UNL     1      -9.492  11.081  65.212  1.00  0.00    -0.259 A  
BRANCH   6   9
HETATM    9  C   UNL     1     -10.169  13.415  64.573  1.00  0.00    -0.321 C  
BRANCH   9  10
HETATM   10  C   UNL     1     -11.635  13.670  65.002  1.00  0.00    -0.332 C  
HETATM   11  C   UNL     1     -12.383  12.343  65.175  1.00  0.00    -0.403 C  
BRANCH  10  12
HETATM   12  N   UNL     1     -11.745  14.420  66.272  1.00  0.00    -0.381 NA 
HETATM   13  H   UNL     1     -12.230  15.306  66.130  1.00  0.00     0.000 HD 
BRANCH  12  14
HETATM   14  C   UNL     1     -12.377  13.640  67.344  1.00  0.00    -0.107 C  
BRANCH  14  15
HETATM   15  C   UNL     1     -11.594  13.672  68.682  1.00  0.00    -0.329 C  
HETATM   16  H   UNL     1     -11.929  14.297  70.514  1.00  0.00     0.000 HD 
HETATM   17  O   UNL     1     -12.409  14.277  69.695  1.00  0.00    -0.329 OA 
BRANCH  15  18
HETATM   18  C   UNL     1     -11.193  12.266  69.111  1.00  0.00    -0.300 A  
HETATM   19  C   UNL     1     -11.919  11.569  70.101  1.00  0.00    -0.452 A  
HETATM   20  C   UNL     1     -11.575  10.266  70.478  1.00  0.00    -0.338 A  
HETATM   21  H   UNL     1      -9.326   7.985  69.753  1.00  0.00     0.000 HD 
HETATM   22  C   UNL     1     -10.489   9.654  69.842  1.00  0.00    -0.253 A  
HETATM   23  C   UNL     1     -10.110  11.624  68.498  1.00  0.00    -0.210 A  
HETATM   24  C   UNL     1      -9.766  10.320  68.857  1.00  0.00    -0.193 A  
HETATM   25  O   UNL     1     -10.063   8.401  70.184  1.00  0.00    -0.186 OA 
BRANCH  20  26
HETATM   26  N   UNL     1     -12.303   9.546  71.444  1.00  0.00    -0.341 N  
HETATM   27  H   UNL     1     -11.863   8.701  71.806  1.00  0.00     0.000 HD 
HETATM   28  O   UNL     1     -14.101   9.141  72.767  1.00  0.00    -0.518 OA 
HETATM   29  C   UNL     1     -13.531   9.853  71.948  1.00  0.00    -0.372 C  
ENDBRANCH  20  26
ENDBRANCH  15  18
ENDBRANCH  14  15
ENDBRANCH  12  14
ENDBRANCH  10  12
ENDBRANCH   9  10
ENDBRANCH   6   9
ENDBRANCH   2   3
TORSDOF 8
ENDMDL
MODEL      190
REMARK 921   NORMALIZED FREE ENERGY PREDICTED BY IDOCK:   -4.41 KCAL/MOL
REMARK 922        TOTAL FREE ENERGY PREDICTED BY IDOCK:   -7.96 KCAL/MOL
REMARK 923 INTER-LIGAND FREE ENERGY PREDICTED BY IDOCK:   -6.96 KCAL/MOL
REMARK 924 INTRA-LIGAND FREE ENERGY PREDICTED BY IDOCK:   -1.00 KCAL/MOL
REMARK 927      BINDING AFFINITY PREDICTED BY RF-SCORE:    0.00 PKD
ROOT
HETATM    1  C   UNL     1      -5.565  12.463  70.304  1.00  0.00    -0.156 C  
HETATM    2  O   UNL     1      -5.302  13.210  69.120  1.00  0.00    -0.069 OA 
ENDROOT
BRANCH   2   3
HETATM    3  C   UNL     1      -5.972  14.399  69.033  1.00  0.00    -0.089 A  
HETATM    4  C   UNL     1      -7.363  14.312  68.996  1.00  0.00    -0.117 A  
HETATM    5  C   UNL     1      -8.139  15.466  68.863  1.00  0.00    -0.185 A  
HETATM    6  C   UNL     1      -7.529  16.726  68.798  1.00  0.00    -0.231 A  
HETATM    7  C   UNL     1      -5.361  15.650  69.005  1.00  0.00    -0.103 A  
HETATM    8  C   UNL     1      -6.134  16.807  68.885  1.00  0.00    -0.157 A  
BRANCH   6   9
HETATM    9  C   UNL     1      -8.328  17.975  68.514  1.00  0.00    -0.313 C  
BRANCH   9  10
HETATM   10  C   UNL     1      -8.668  18.249  67.029  1.00  0.00    -0.263 C  
HETATM   11  C   UNL     1      -7.592  17.656  66.113  1.00  0.00    -0.315 C  
BRANCH  10  12
HETATM   12  N   UNL     1      -9.972  17.684  66.619  1.00  0.00    -0.313 NA 
HETATM   13  H   UNL     1     -10.473  18.329  66.008  1.00  0.00     0.000 HD 
BRANCH  12  14
HETATM   14  C   UNL     1      -9.851  16.358  65.999  1.00  0.00    -0.335 C  
BRANCH  14  15
HETATM   15  C   UNL     1     -11.193  15.585  65.914  1.00  0.00    -0.120 C  
HETATM   16  H   UNL     1     -11.992  14.244  64.722  1.00  0.00     0.000 HD 
HETATM   17  O   UNL     1     -11.170  14.717  64.773  1.00  0.00    -0.379 OA 
BRANCH  15  18
HETATM   18  C   UNL     1     -11.434  14.773  67.181  1.00  0.00    -0.375 A  
HETATM   19  C   UNL     1     -11.770  15.403  68.399  1.00  0.00    -0.332 A  
HETATM   20  C   UNL     1     -12.023  14.662  69.559  1.00  0.00    -0.319 A  
HETATM   21  H   UNL     1     -12.080  11.527  70.537  1.00  0.00     0.000 HD 
HETATM   22  C   UNL     1     -11.944  13.266  69.488  1.00  0.00    -0.307 A  
HETATM   23  C   UNL     1     -11.361  13.375  67.147  1.00  0.00    -0.344 A  
HETATM   24  C   UNL     1     -11.624  12.626  68.294  1.00  0.00    -0.377 A  
HETATM   25  O   UNL     1     -12.134  12.474  70.585  1.00  0.00    -0.356 OA 
BRANCH  20  26
HETATM   26  N   UNL     1     -12.386  15.270  70.775  1.00  0.00    -0.348 N  
HETATM   27  H   UNL     1     -11.653  15.789  71.259  1.00  0.00     0.000 HD 
HETATM   28  O   UNL     1     -13.817  15.778  72.460  1.00  0.00    -0.542 OA 
HETATM   29  C   UNL     1     -13.607  15.242  71.378  1.00  0.00    -0.514 C  
ENDBRANCH  20  26
ENDBRANCH  15  18
ENDBRANCH  14  15
ENDBRANCH  12  14
ENDBRANCH  10  12
ENDBRANCH   9  10
ENDBRANCH   6   9
ENDBRANCH   2   3
TORSDOF 8
ENDMDL
MODEL      191
REMARK 921   NORMALIZED FREE ENERGY PREDICTED BY IDOCK:   -4.41 KCAL/MOL
REMARK 922        TOTAL FREE ENERGY PREDICTED BY IDOCK:   -7.96 KCAL/MOL
REMARK 923 INTER-LIGAND FREE ENERGY PREDICTED BY IDOCK:   -6.76 KCAL/MOL
REMARK 924 INTRA-LIGAND FREE ENERGY PREDICTED BY IDOCK:   -1.20 KCAL/MOL
REMARK 927      BINDING AFFINITY PREDICTED BY RF-SCORE:    0.00 PKD
ROOT
HETATM    1  C   UNL     1     -10.641  19.608  66.108  1.00  0.00    -0.483 C  
HETATM    2  O   UNL     1      -9.274  19.252  65.923  1.00  0.00    -0.424 OA 
ENDROOT
BRANCH   2   3
HETATM    3  C   UNL     1      -8.904  18.076  66.515  1.00  0.00    -0.258 A  
HETATM    4  C   UNL     1      -8.297  18.188  67.764  1.00  0.00    -0.253 A  
HETATM    5  C   UNL     1      -7.842  17.050  68.434  1.00  0.00    -0.233 A  
HETATM    6  C   UNL     1      -8.020  15.779  67.871  1.00  0.00    -0.147 A  
HETATM    7  C   UNL     1      -9.117  16.813  65.967  1.00  0.00    -0.226 A  
HETATM    8  C   UNL     1      -8.675  15.672  66.639  1.00  0.00    -0.333 A  
BRANCH   6   9
HETATM    9  C   UNL     1      -7.418  14.546  68.500  1.00  0.00    -0.123 C  
BRANCH   9  10
HETATM   10  C   UNL     1      -7.811  13.191  67.863  1.00  0.00    -0.151 C  
HETATM   11  C   UNL     1      -6.565  12.447  67.370  1.00  0.00    -0.157 C  
BRANCH  10  12
HETATM   12  N   UNL     1      -8.530  12.298  68.797  1.00  0.00    -0.361 NA 
HETATM   13  H   UNL     1      -8.171  12.398  69.747  1.00  0.00     0.000 HD 
BRANCH  12  14
HETATM   14  C   UNL     1      -9.986  12.489  68.763  1.00  0.00    -0.015 C  
BRANCH  14  15
HETATM   15  C   UNL     1     -10.749  11.338  68.057  1.00  0.00    -0.203 C  
HETATM   16  H   UNL     1     -12.627  10.814  67.811  1.00  0.00     0.000 HD 
HETATM   17  O   UNL     1     -12.159  11.519  68.243  1.00  0.00    -0.580 OA 
BRANCH  15  18
HETATM   18  C   UNL     1     -10.421  11.300  66.570  1.00  0.00    -0.299 A  
HETATM   19  C   UNL     1      -9.847  10.155  65.978  1.00  0.00    -0.308 A  
HETATM   20  C   UNL     1      -9.571  10.101  64.607  1.00  0.00    -0.315 A  
HETATM   21  H   UNL     1      -9.825  12.013  61.948  1.00  0.00     0.000 HD 
HETATM   22  C   UNL     1      -9.888  11.214  63.820  1.00  0.00    -0.331 A  
HETATM   23  C   UNL     1     -10.722  12.397  65.753  1.00  0.00    -0.301 A  
HETATM   24  C   UNL     1     -10.464  12.350  64.382  1.00  0.00    -0.371 A  
HETATM   25  O   UNL     1      -9.610  11.257  62.482  1.00  0.00    -0.263 OA 
BRANCH  20  26
HETATM   26  N   UNL     1      -9.023   8.958  63.995  1.00  0.00    -0.410 N  
HETATM   27  H   UNL     1      -9.685   8.247  63.686  1.00  0.00     0.000 HD 
HETATM   28  O   UNL     1      -7.322   7.652  63.254  1.00  0.00    -0.078 OA 
HETATM   29  C   UNL     1      -7.705   8.697  63.768  1.00  0.00    -0.136 C  
ENDBRANCH  20  26
ENDBRANCH  15  18
ENDBRANCH  14  15
ENDBRANCH  12  14
ENDBRANCH  10  12
ENDBRANCH   9  10
ENDBRANCH   6   9
ENDBRANCH   2   3
TORSDOF 8
ENDMDL
MODEL      192
REMARK 921   NORMALIZED FREE ENERGY PREDICTED BY IDOCK:   -4.40 KCAL/MOL
REMARK 922        TOTAL FREE ENERGY PREDICTED BY IDOCK:   -7.95 KCAL/MOL
REMARK 923 INTER-LIGAND FREE ENERGY PREDICTED BY IDOCK:   -6.72 KCAL/MOL
REMARK 924 INTRA-LIGAND FREE ENERGY PREDICTED BY IDOCK:   -1.24 KCAL/MOL
REMARK 927      BINDING AFFINITY PREDICTED BY RF-SCORE:    0.00 PKD
ROOT
HETATM    1  C   UNL     1     -10.173  19.831  67.918  1.00  0.00    -0.444 C  
HETATM    2  O   UNL     1      -9.101  19.281  67.158  1.00  0.00    -0.289 OA 
ENDROOT
BRANCH   2   3
HETATM    3  C   UNL     1      -9.365  18.064  66.593  1.00  0.00    -0.291 A  
HETATM    4  C   UNL     1     -10.486  18.009  65.766  1.00  0.00    -0.202 A  
HETATM    5  C   UNL     1     -10.869  16.802  65.174  1.00  0.00    -0.150 A  
HETATM    6  C   UNL     1     -10.111  15.642  65.380  1.00  0.00    -0.370 A  
HETATM    7  C   UNL     1      -8.588  16.923  66.772  1.00  0.00    -0.256 A  
HETATM    8  C   UNL     1      -8.960  15.718  66.172  1.00  0.00    -0.372 A  
BRANCH   6   9
HETATM    9  C   UNL     1     -10.574  14.297  64.871  1.00  0.00    -0.452 C  
BRANCH   9  10
HETATM   10  C   UNL     1     -12.073  13.967  65.075  1.00  0.00    -0.415 C  
HETATM   11  C   UNL     1     -12.367  12.523  64.654  1.00  0.00    -0.547 C  
BRANCH  10  12
HETATM   12  N   UNL     1     -12.518  14.130  66.476  1.00  0.00    -0.534 NA 
HETATM   13  H   UNL     1     -13.527  14.273  66.523  1.00  0.00     0.000 HD 
BRANCH  12  14
HETATM   14  C   UNL     1     -12.103  13.018  67.340  1.00  0.00    -0.233 C  
BRANCH  14  15
HETATM   15  C   UNL     1     -11.025  13.408  68.384  1.00  0.00    -0.267 C  
HETATM   16  H   UNL     1     -10.979  13.786  70.312  1.00  0.00     0.000 HD 
HETATM   17  O   UNL     1     -11.639  13.546  69.673  1.00  0.00    -0.283 OA 
BRANCH  15  18
HETATM   18  C   UNL     1      -9.921  12.359  68.445  1.00  0.00    -0.210 A  
HETATM   19  C   UNL     1     -10.194  11.035  68.848  1.00  0.00    -0.218 A  
HETATM   20  C   UNL     1      -9.193  10.058  68.876  1.00  0.00    -0.169 A  
HETATM   21  H   UNL     1      -5.978   9.783  68.260  1.00  0.00     0.000 HD 
HETATM   22  C   UNL     1      -7.899  10.420  68.485  1.00  0.00    -0.107 A  
HETATM   23  C   UNL     1      -8.615  12.688  68.062  1.00  0.00    -0.189 A  
HETATM   24  C   UNL     1      -7.610  11.719  68.074  1.00  0.00    -0.116 A  
HETATM   25  O   UNL     1      -6.856   9.537  68.526  1.00  0.00    -0.060 OA 
BRANCH  20  26
HETATM   26  N   UNL     1      -9.451   8.726  69.250  1.00  0.00    -0.160 N  
HETATM   27  H   UNL     1      -8.691   8.229  69.713  1.00  0.00     0.000 HD 
HETATM   28  O   UNL     1     -10.723   6.852  69.393  1.00  0.00    -0.225 OA 
HETATM   29  C   UNL     1     -10.605   8.026  69.060  1.00  0.00    -0.154 C  
ENDBRANCH  20  26
ENDBRANCH  15  18
ENDBRANCH  14  15
ENDBRANCH  12  14
ENDBRANCH  10  12
ENDBRANCH   9  10
ENDBRANCH   6   9
ENDBRANCH   2   3
TORSDOF 8
ENDMDL
MODEL      193
REMARK 921   NORMALIZED FREE ENERGY PREDICTED BY IDOCK:   -4.39 KCAL/MOL
REMARK 922        TOTAL FREE ENERGY PREDICTED BY IDOCK:   -7.94 KCAL/MOL
REMARK 923 INTER-LIGAND FREE ENERGY PREDICTED BY IDOCK:   -6.80 KCAL/MOL
REMARK 924 INTRA-LIGAND FREE ENERGY PREDICTED BY IDOCK:   -1.14 KCAL/MOL
REMARK 927      BINDING AFFINITY PREDICTED BY RF-SCORE:    0.00 PKD
ROOT
HETATM    1  C   UNL     1     -10.959   1.641  73.080  1.00  0.00    -0.150 C  
HETATM    2  O   UNL     1      -9.975   2.667  73.178  1.00  0.00    -0.103 OA 
ENDROOT
BRANCH   2   3
HETATM    3  C   UNL     1     -10.262   3.805  72.477  1.00  0.00    -0.161 A  
HETATM    4  C   UNL     1     -11.079   4.729  73.127  1.00  0.00    -0.388 A  
HETATM    5  C   UNL     1     -11.468   5.905  72.481  1.00  0.00    -0.347 A  
HETATM    6  C   UNL     1     -11.016   6.183  71.184  1.00  0.00    -0.343 A  
HETATM    7  C   UNL     1      -9.780   4.092  71.203  1.00  0.00    -0.258 A  
HETATM    8  C   UNL     1     -10.157   5.272  70.559  1.00  0.00    -0.315 A  
BRANCH   6   9
HETATM    9  C   UNL     1     -11.529   7.372  70.408  1.00  0.00    -0.250 C  
BRANCH   9  10
HETATM   10  C   UNL     1     -11.380   8.753  71.093  1.00  0.00    -0.285 C  
HETATM   11  C   UNL     1      -9.946   9.274  70.947  1.00  0.00    -0.367 C  
BRANCH  10  12
HETATM   12  N   UNL     1     -12.292   9.777  70.538  1.00  0.00    -0.481 NA 
HETATM   13  H   UNL     1     -13.017  10.022  71.212  1.00  0.00     0.000 HD 
BRANCH  12  14
HETATM   14  C   UNL     1     -11.587  10.975  70.065  1.00  0.00    -0.344 C  
BRANCH  14  15
HETATM   15  C   UNL     1     -12.032  11.444  68.655  1.00  0.00    -0.249 C  
HETATM   16  H   UNL     1     -12.380  13.162  67.769  1.00  0.00     0.000 HD 
HETATM   17  O   UNL     1     -12.107  12.875  68.632  1.00  0.00    -0.286 OA 
BRANCH  15  18
HETATM   18  C   UNL     1     -11.060  10.957  67.587  1.00  0.00    -0.376 A  
HETATM   19  C   UNL     1     -10.853   9.579  67.362  1.00  0.00    -0.215 A  
HETATM   20  C   UNL     1      -9.985   9.124  66.363  1.00  0.00    -0.288 A  
HETATM   21  H   UNL     1      -7.976  10.354  64.073  1.00  0.00     0.000 HD 
HETATM   22  C   UNL     1      -9.322  10.072  65.575  1.00  0.00    -0.216 A  
HETATM   23  C   UNL     1     -10.378  11.878  66.782  1.00  0.00    -0.238 A  
HETATM   24  C   UNL     1      -9.520  11.435  65.774  1.00  0.00    -0.256 A  
HETATM   25  O   UNL     1      -8.426   9.710  64.608  1.00  0.00    -0.150 OA 
BRANCH  20  26
HETATM   26  N   UNL     1      -9.786   7.755  66.106  1.00  0.00    -0.460 N  
HETATM   27  H   UNL     1      -9.964   7.442  65.151  1.00  0.00     0.000 HD 
HETATM   28  O   UNL     1      -9.270   5.620  66.677  1.00  0.00    -0.127 OA 
HETATM   29  C   UNL     1      -9.383   6.800  66.991  1.00  0.00    -0.143 C  
ENDBRANCH  20  26
ENDBRANCH  15  18
ENDBRANCH  14  15
ENDBRANCH  12  14
ENDBRANCH  10  12
ENDBRANCH   9  10
ENDBRANCH   6   9
ENDBRANCH   2   3
TORSDOF 8
ENDMDL
MODEL      194
REMARK 921   NORMALIZED FREE ENERGY PREDICTED BY IDOCK:   -4.38 KCAL/MOL
REMARK 922        TOTAL FREE ENERGY PREDICTED BY IDOCK:   -7.93 KCAL/MOL
REMARK 923 INTER-LIGAND FREE ENERGY PREDICTED BY IDOCK:   -6.60 KCAL/MOL
REMARK 924 INTRA-LIGAND FREE ENERGY PREDICTED BY IDOCK:   -1.33 KCAL/MOL
REMARK 927      BINDING AFFINITY PREDICTED BY RF-SCORE:    0.00 PKD
ROOT
HETATM    1  C   UNL     1      -7.946   9.346  66.829  1.00  0.00    -0.108 C  
HETATM    2  O   UNL     1      -6.969   9.934  67.682  1.00  0.00    -0.084 OA 
ENDROOT
BRANCH   2   3
HETATM    3  C   UNL     1      -7.135  11.272  67.906  1.00  0.00    -0.078 A  
HETATM    4  C   UNL     1      -6.278  11.844  68.844  1.00  0.00    -0.064 A  
HETATM    5  C   UNL     1      -6.394  13.195  69.178  1.00  0.00    -0.104 A  
HETATM    6  C   UNL     1      -7.354  13.999  68.549  1.00  0.00    -0.114 A  
HETATM    7  C   UNL     1      -8.067  12.074  67.251  1.00  0.00    -0.174 A  
HETATM    8  C   UNL     1      -8.178  13.428  67.572  1.00  0.00    -0.186 A  
BRANCH   6   9
HETATM    9  C   UNL     1      -7.599  15.423  68.986  1.00  0.00    -0.177 C  
BRANCH   9  10
HETATM   10  C   UNL     1      -7.117  16.530  68.015  1.00  0.00    -0.143 C  
HETATM   11  C   UNL     1      -5.586  16.592  67.988  1.00  0.00    -0.127 C  
BRANCH  10  12
HETATM   12  N   UNL     1      -7.586  16.328  66.628  1.00  0.00    -0.246 NA 
HETATM   13  H   UNL     1      -8.170  15.494  66.558  1.00  0.00     0.000 HD 
BRANCH  12  14
HETATM   14  C   UNL     1      -8.280  17.502  66.082  1.00  0.00    -0.187 C  
BRANCH  14  15
HETATM   15  C   UNL     1      -9.759  17.618  66.536  1.00  0.00    -0.304 C  
HETATM   16  H   UNL     1     -11.328  18.684  66.022  1.00  0.00     0.000 HD 
HETATM   17  O   UNL     1     -10.422  18.613  65.744  1.00  0.00    -0.586 OA 
BRANCH  15  18
HETATM   18  C   UNL     1     -10.477  16.281  66.398  1.00  0.00    -0.297 A  
HETATM   19  C   UNL     1     -10.989  15.607  67.527  1.00  0.00    -0.309 A  
HETATM   20  C   UNL     1     -11.676  14.395  67.406  1.00  0.00    -0.397 A  
HETATM   21  H   UNL     1     -12.602  12.292  65.057  1.00  0.00     0.000 HD 
HETATM   22  C   UNL     1     -11.858  13.858  66.126  1.00  0.00    -0.400 A  
HETATM   23  C   UNL     1     -10.674  15.714  65.132  1.00  0.00    -0.463 A  
HETATM   24  C   UNL     1     -11.369  14.511  64.998  1.00  0.00    -0.377 A  
HETATM   25  O   UNL     1     -12.479  12.657  65.926  1.00  0.00    -0.584 OA 
BRANCH  20  26
HETATM   26  N   UNL     1     -12.217  13.722  68.517  1.00  0.00    -0.444 N  
HETATM   27  H   UNL     1     -12.671  12.828  68.330  1.00  0.00     0.000 HD 
HETATM   28  O   UNL     1     -12.731  13.487  70.715  1.00  0.00    -0.304 OA 
HETATM   29  C   UNL     1     -12.201  14.132  69.817  1.00  0.00    -0.344 C  
ENDBRANCH  20  26
ENDBRANCH  15  18
ENDBRANCH  14  15
ENDBRANCH  12  14
ENDBRANCH  10  12
ENDBRANCH   9  10
ENDBRANCH   6   9
ENDBRANCH   2   3
TORSDOF 8
ENDMDL
MODEL      195
REMARK 921   NORMALIZED FREE ENERGY PREDICTED BY IDOCK:   -4.38 KCAL/MOL
REMARK 922        TOTAL FREE ENERGY PREDICTED BY IDOCK:   -7.92 KCAL/MOL
REMARK 923 INTER-LIGAND FREE ENERGY PREDICTED BY IDOCK:   -6.46 KCAL/MOL
REMARK 924 INTRA-LIGAND FREE ENERGY PREDICTED BY IDOCK:   -1.46 KCAL/MOL
REMARK 927      BINDING AFFINITY PREDICTED BY RF-SCORE:    0.00 PKD
ROOT
HETATM    1  C   UNL     1     -10.550  11.795  63.007  1.00  0.00    -0.138 C  
HETATM    2  O   UNL     1      -9.774  10.601  62.996  1.00  0.00    -0.314 OA 
ENDROOT
BRANCH   2   3
HETATM    3  C   UNL     1      -9.314  10.205  64.221  1.00  0.00    -0.295 A  
HETATM    4  C   UNL     1     -10.249  10.218  65.255  1.00  0.00    -0.308 A  
HETATM    5  C   UNL     1      -9.870   9.873  66.555  1.00  0.00    -0.274 A  
HETATM    6  C   UNL     1      -8.553   9.481  66.827  1.00  0.00    -0.133 A  
HETATM    7  C   UNL     1      -8.013   9.780  64.478  1.00  0.00    -0.144 A  
HETATM    8  C   UNL     1      -7.634   9.423  65.773  1.00  0.00    -0.099 A  
BRANCH   6   9
HETATM    9  C   UNL     1      -8.079   9.238  68.240  1.00  0.00    -0.107 C  
BRANCH   9  10
HETATM   10  C   UNL     1      -8.607  10.217  69.317  1.00  0.00    -0.174 C  
HETATM   11  C   UNL     1      -8.945   9.464  70.608  1.00  0.00    -0.285 C  
BRANCH  10  12
HETATM   12  N   UNL     1      -7.640  11.284  69.655  1.00  0.00    -0.353 NA 
HETATM   13  H   UNL     1      -6.846  10.906  70.172  1.00  0.00     0.000 HD 
BRANCH  12  14
HETATM   14  C   UNL     1      -7.190  12.041  68.480  1.00  0.00    -0.101 C  
BRANCH  14  15
HETATM   15  C   UNL     1      -7.617  13.532  68.498  1.00  0.00    -0.129 C  
HETATM   16  H   UNL     1      -6.927  15.220  67.767  1.00  0.00     0.000 HD 
HETATM   17  O   UNL     1      -6.666  14.307  67.756  1.00  0.00    -0.151 OA 
BRANCH  15  18
HETATM   18  C   UNL     1      -9.008  13.706  67.901  1.00  0.00    -0.195 A  
HETATM   19  C   UNL     1     -10.098  14.118  68.698  1.00  0.00    -0.229 A  
HETATM   20  C   UNL     1     -11.371  14.310  68.151  1.00  0.00    -0.288 A  
HETATM   21  H   UNL     1     -12.887  14.069  65.247  1.00  0.00     0.000 HD 
HETATM   22  C   UNL     1     -11.547  14.093  66.780  1.00  0.00    -0.391 A  
HETATM   23  C   UNL     1      -9.220  13.495  66.533  1.00  0.00    -0.187 A  
HETATM   24  C   UNL     1     -10.483  13.696  65.975  1.00  0.00    -0.300 A  
HETATM   25  O   UNL     1     -12.768  14.216  66.178  1.00  0.00    -0.442 OA 
BRANCH  20  26
HETATM   26  N   UNL     1     -12.464  14.746  68.925  1.00  0.00    -0.569 N  
HETATM   27  H   UNL     1     -13.380  14.705  68.479  1.00  0.00     0.000 HD 
HETATM   28  O   UNL     1     -13.440  15.605  70.784  1.00  0.00    -0.536 OA 
HETATM   29  C   UNL     1     -12.433  15.216  70.203  1.00  0.00    -0.318 C  
ENDBRANCH  20  26
ENDBRANCH  15  18
ENDBRANCH  14  15
ENDBRANCH  12  14
ENDBRANCH  10  12
ENDBRANCH   9  10
ENDBRANCH   6   9
ENDBRANCH   2   3
TORSDOF 8
ENDMDL
MODEL      196
REMARK 921   NORMALIZED FREE ENERGY PREDICTED BY IDOCK:   -4.38 KCAL/MOL
REMARK 922        TOTAL FREE ENERGY PREDICTED BY IDOCK:   -7.92 KCAL/MOL
REMARK 923 INTER-LIGAND FREE ENERGY PREDICTED BY IDOCK:   -6.45 KCAL/MOL
REMARK 924 INTRA-LIGAND FREE ENERGY PREDICTED BY IDOCK:   -1.47 KCAL/MOL
REMARK 927      BINDING AFFINITY PREDICTED BY RF-SCORE:    0.00 PKD
ROOT
HETATM    1  C   UNL     1     -11.810  16.077  64.209  1.00  0.00     0.005 C  
HETATM    2  O   UNL     1     -12.615  14.933  63.934  1.00  0.00    -0.831 OA 
ENDROOT
BRANCH   2   3
HETATM    3  C   UNL     1     -11.952  13.739  63.998  1.00  0.00    -0.408 A  
HETATM    4  C   UNL     1     -10.754  13.745  64.710  1.00  0.00    -0.429 A  
HETATM    5  C   UNL     1      -9.978  12.587  64.798  1.00  0.00    -0.177 A  
HETATM    6  C   UNL     1     -10.412  11.398  64.198  1.00  0.00    -0.421 A  
HETATM    7  C   UNL     1     -12.406  12.551  63.429  1.00  0.00    -0.577 A  
HETATM    8  C   UNL     1     -11.639  11.388  63.526  1.00  0.00    -0.127 A  
BRANCH   6   9
HETATM    9  C   UNL     1      -9.533  10.170  64.155  1.00  0.00    -0.353 C  
BRANCH   9  10
HETATM   10  C   UNL     1      -9.321   9.433  65.500  1.00  0.00    -0.251 C  
HETATM   11  C   UNL     1      -7.980   9.832  66.126  1.00  0.00    -0.110 C  
BRANCH  10  12
HETATM   12  N   UNL     1     -10.383   9.713  66.489  1.00  0.00    -0.222 NA 
HETATM   13  H   UNL     1     -10.988   8.902  66.614  1.00  0.00     0.000 HD 
BRANCH  12  14
HETATM   14  C   UNL     1      -9.856  10.179  67.778  1.00  0.00    -0.163 C  
BRANCH  14  15
HETATM   15  C   UNL     1     -10.516  11.487  68.286  1.00  0.00    -0.197 C  
HETATM   16  H   UNL     1     -11.400  12.091  69.934  1.00  0.00     0.000 HD 
HETATM   17  O   UNL     1     -10.996  11.290  69.623  1.00  0.00    -0.227 OA 
BRANCH  15  18
HETATM   18  C   UNL     1      -9.526  12.645  68.255  1.00  0.00    -0.203 A  
HETATM   19  C   UNL     1      -9.966  13.984  68.313  1.00  0.00    -0.236 A  
HETATM   20  C   UNL     1      -9.061  15.052  68.316  1.00  0.00    -0.182 A  
HETATM   21  H   UNL     1      -5.818  15.555  68.191  1.00  0.00     0.000 HD 
HETATM   22  C   UNL     1      -7.692  14.764  68.268  1.00  0.00    -0.120 A  
HETATM   23  C   UNL     1      -8.149  12.393  68.205  1.00  0.00    -0.163 A  
HETATM   24  C   UNL     1      -7.237  13.450  68.220  1.00  0.00    -0.111 A  
HETATM   25  O   UNL     1      -6.747  15.750  68.224  1.00  0.00    -0.111 OA 
BRANCH  20  26
HETATM   26  N   UNL     1      -9.480  16.393  68.400  1.00  0.00    -0.214 N  
HETATM   27  H   UNL     1      -8.853  17.034  68.884  1.00  0.00     0.000 HD 
HETATM   28  O   UNL     1     -10.925  18.109  68.060  1.00  0.00    -0.265 OA 
HETATM   29  C   UNL     1     -10.632  16.929  67.906  1.00  0.00    -0.361 C  
ENDBRANCH  20  26
ENDBRANCH  15  18
ENDBRANCH  14  15
ENDBRANCH  12  14
ENDBRANCH  10  12
ENDBRANCH   9  10
ENDBRANCH   6   9
ENDBRANCH   2   3
TORSDOF 8
ENDMDL
MODEL      197
REMARK 921   NORMALIZED FREE ENERGY PREDICTED BY IDOCK:   -4.38 KCAL/MOL
REMARK 922        TOTAL FREE ENERGY PREDICTED BY IDOCK:   -7.92 KCAL/MOL
REMARK 923 INTER-LIGAND FREE ENERGY PREDICTED BY IDOCK:   -6.64 KCAL/MOL
REMARK 924 INTRA-LIGAND FREE ENERGY PREDICTED BY IDOCK:   -1.28 KCAL/MOL
REMARK 927      BINDING AFFINITY PREDICTED BY RF-SCORE:    0.00 PKD
ROOT
HETATM    1  C   UNL     1      -6.718   9.381  63.627  1.00  0.00    -0.095 C  
HETATM    2  O   UNL     1      -7.734  10.346  63.885  1.00  0.00    -0.129 OA 
ENDROOT
BRANCH   2   3
HETATM    3  C   UNL     1      -8.296  10.266  65.128  1.00  0.00    -0.161 A  
HETATM    4  C   UNL     1      -7.459  10.590  66.196  1.00  0.00    -0.136 A  
HETATM    5  C   UNL     1      -7.924  10.499  67.510  1.00  0.00    -0.107 A  
HETATM    6  C   UNL     1      -9.245  10.111  67.769  1.00  0.00    -0.146 A  
HETATM    7  C   UNL     1      -9.621   9.916  65.377  1.00  0.00    -0.350 A  
HETATM    8  C   UNL     1     -10.092   9.836  66.689  1.00  0.00    -0.303 A  
BRANCH   6   9
HETATM    9  C   UNL     1      -9.734   9.868  69.176  1.00  0.00    -0.204 C  
BRANCH   9  10
HETATM   10  C   UNL     1     -10.920   8.884  69.329  1.00  0.00    -0.006 C  
HETATM   11  C   UNL     1     -10.411   7.467  69.614  1.00  0.00    -0.225 C  
BRANCH  10  12
HETATM   12  N   UNL     1     -11.848   9.260  70.418  1.00  0.00    -0.461 NA 
HETATM   13  H   UNL     1     -11.832   8.566  71.165  1.00  0.00     0.000 HD 
BRANCH  12  14
HETATM   14  C   UNL     1     -11.595  10.606  70.946  1.00  0.00    -0.217 C  
BRANCH  14  15
HETATM   15  C   UNL     1     -12.806  11.566  70.811  1.00  0.00    -0.134 C  
HETATM   16  H   UNL     1     -14.073  12.442  72.031  1.00  0.00     0.000 HD 
HETATM   17  O   UNL     1     -13.331  11.854  72.113  1.00  0.00    -0.503 OA 
BRANCH  15  18
HETATM   18  C   UNL     1     -12.399  12.860  70.117  1.00  0.00    -0.249 A  
HETATM   19  C   UNL     1     -12.077  12.882  68.743  1.00  0.00    -0.175 A  
HETATM   20  C   UNL     1     -11.733  14.071  68.091  1.00  0.00    -0.352 A  
HETATM   21  H   UNL     1     -11.346  17.258  68.786  1.00  0.00     0.000 HD 
HETATM   22  C   UNL     1     -11.721  15.258  68.833  1.00  0.00    -0.342 A  
HETATM   23  C   UNL     1     -12.374  14.065  70.830  1.00  0.00    -0.443 A  
HETATM   24  C   UNL     1     -12.045  15.260  70.187  1.00  0.00    -0.394 A  
HETATM   25  O   UNL     1     -11.354  16.453  68.282  1.00  0.00    -0.350 OA 
BRANCH  20  26
HETATM   26  N   UNL     1     -11.434  14.116  66.716  1.00  0.00    -0.352 N  
HETATM   27  H   UNL     1     -10.638  14.691  66.444  1.00  0.00     0.000 HD 
HETATM   28  O   UNL     1     -11.775  13.606  64.532  1.00  0.00    -0.367 OA 
HETATM   29  C   UNL     1     -12.093  13.477  65.709  1.00  0.00    -0.433 C  
ENDBRANCH  20  26
ENDBRANCH  15  18
ENDBRANCH  14  15
ENDBRANCH  12  14
ENDBRANCH  10  12
ENDBRANCH   9  10
ENDBRANCH   6   9
ENDBRANCH   2   3
TORSDOF 8
ENDMDL
MODEL      198
REMARK 921   NORMALIZED FREE ENERGY PREDICTED BY IDOCK:   -4.37 KCAL/MOL
REMARK 922        TOTAL FREE ENERGY PREDICTED BY IDOCK:   -7.91 KCAL/MOL
REMARK 923 INTER-LIGAND FREE ENERGY PREDICTED BY IDOCK:   -6.11 KCAL/MOL
REMARK 924 INTRA-LIGAND FREE ENERGY PREDICTED BY IDOCK:   -1.80 KCAL/MOL
REMARK 927      BINDING AFFINITY PREDICTED BY RF-SCORE:    0.00 PKD
ROOT
HETATM    1  C   UNL     1     -11.367  15.116  69.299  1.00  0.00    -0.300 C  
HETATM    2  O   UNL     1     -10.338  15.430  68.365  1.00  0.00    -0.224 OA 
ENDROOT
BRANCH   2   3
HETATM    3  C   UNL     1      -9.438  14.425  68.146  1.00  0.00    -0.204 A  
HETATM    4  C   UNL     1      -9.936  13.127  68.256  1.00  0.00    -0.236 A  
HETATM    5  C   UNL     1      -9.089  12.028  68.094  1.00  0.00    -0.191 A  
HETATM    6  C   UNL     1      -7.735  12.218  67.788  1.00  0.00    -0.139 A  
HETATM    7  C   UNL     1      -8.101  14.619  67.806  1.00  0.00    -0.160 A  
HETATM    8  C   UNL     1      -7.254  13.523  67.631  1.00  0.00    -0.175 A  
BRANCH   6   9
HETATM    9  C   UNL     1      -6.767  11.060  67.745  1.00  0.00    -0.064 C  
BRANCH   9  10
HETATM   10  C   UNL     1      -6.829  10.161  66.487  1.00  0.00    -0.090 C  
HETATM   11  C   UNL     1      -7.720   8.941  66.741  1.00  0.00    -0.097 C  
BRANCH  10  12
HETATM   12  N   UNL     1      -7.354  10.865  65.297  1.00  0.00    -0.357 NA 
HETATM   13  H   UNL     1      -6.605  11.342  64.795  1.00  0.00     0.000 HD 
BRANCH  12  14
HETATM   14  C   UNL     1      -8.110   9.983  64.398  1.00  0.00    -0.156 C  
BRANCH  14  15
HETATM   15  C   UNL     1      -9.029  10.742  63.407  1.00  0.00    -0.203 C  
HETATM   16  H   UNL     1     -10.206  10.269  61.906  1.00  0.00     0.000 HD 
HETATM   17  O   UNL     1      -9.643   9.804  62.513  1.00  0.00    -0.171 OA 
BRANCH  15  18
HETATM   18  C   UNL     1     -10.102  11.527  64.152  1.00  0.00    -0.354 A  
HETATM   19  C   UNL     1     -10.332  12.892  63.876  1.00  0.00    -0.264 A  
HETATM   20  C   UNL     1     -11.335  13.612  64.534  1.00  0.00    -0.375 A  
HETATM   21  H   UNL     1     -13.628  13.133  66.836  1.00  0.00     0.000 HD 
HETATM   22  C   UNL     1     -12.123  12.944  65.478  1.00  0.00    -0.458 A  
HETATM   23  C   UNL     1     -10.907  10.892  65.105  1.00  0.00    -0.133 A  
HETATM   24  C   UNL     1     -11.919  11.596  65.758  1.00  0.00     0.389 A  
HETATM   25  O   UNL     1     -13.094  13.587  66.195  1.00  0.00    -0.094 OA 
BRANCH  20  26
HETATM   26  N   UNL     1     -11.597  14.966  64.252  1.00  0.00    -0.662 N  
HETATM   27  H   UNL     1     -12.302  15.153  63.539  1.00  0.00     0.000 HD 
HETATM   28  O   UNL     1     -11.287  17.201  64.490  1.00  0.00    -1.034 OA 
HETATM   29  C   UNL     1     -11.014  16.055  64.828  1.00  0.00    -0.356 C  
ENDBRANCH  20  26
ENDBRANCH  15  18
ENDBRANCH  14  15
ENDBRANCH  12  14
ENDBRANCH  10  12
ENDBRANCH   9  10
ENDBRANCH   6   9
ENDBRANCH   2   3
TORSDOF 8
ENDMDL
MODEL      199
REMARK 921   NORMALIZED FREE ENERGY PREDICTED BY IDOCK:   -4.37 KCAL/MOL
REMARK 922        TOTAL FREE ENERGY PREDICTED BY IDOCK:   -7.91 KCAL/MOL
REMARK 923 INTER-LIGAND FREE ENERGY PREDICTED BY IDOCK:   -7.59 KCAL/MOL
REMARK 924 INTRA-LIGAND FREE ENERGY PREDICTED BY IDOCK:   -0.33 KCAL/MOL
REMARK 927      BINDING AFFINITY PREDICTED BY RF-SCORE:    0.00 PKD
ROOT
HETATM    1  C   UNL     1     -11.123   7.061  72.143  1.00  0.00    -0.245 C  
HETATM    2  O   UNL     1     -12.411   7.556  71.790  1.00  0.00    -0.310 OA 
ENDROOT
BRANCH   2   3
HETATM    3  C   UNL     1     -12.455   8.895  71.518  1.00  0.00    -0.324 A  
HETATM    4  C   UNL     1     -11.502   9.363  70.614  1.00  0.00    -0.344 A  
HETATM    5  C   UNL     1     -11.433  10.723  70.302  1.00  0.00    -0.406 A  
HETATM    6  C   UNL     1     -12.341  11.626  70.868  1.00  0.00    -0.436 A  
HETATM    7  C   UNL     1     -13.384   9.782  72.056  1.00  0.00    -0.547 A  
HETATM    8  C   UNL     1     -13.326  11.140  71.736  1.00  0.00    -0.378 A  
BRANCH   6   9
HETATM    9  C   UNL     1     -12.206  13.116  70.661  1.00  0.00    -0.402 C  
BRANCH   9  10
HETATM   10  C   UNL     1     -11.831  13.577  69.232  1.00  0.00    -0.341 C  
HETATM   11  C   UNL     1     -12.209  15.048  69.025  1.00  0.00    -0.160 C  
BRANCH  10  12
HETATM   12  N   UNL     1     -10.389  13.435  68.936  1.00  0.00    -0.411 NA 
HETATM   13  H   UNL     1      -9.888  13.053  69.739  1.00  0.00     0.000 HD 
BRANCH  12  14
HETATM   14  C   UNL     1     -10.129  12.641  67.729  1.00  0.00    -0.220 C  
BRANCH  14  15
HETATM   15  C   UNL     1      -9.317  13.400  66.646  1.00  0.00    -0.241 C  
HETATM   16  H   UNL     1      -9.687  14.210  64.895  1.00  0.00     0.000 HD 
HETATM   17  O   UNL     1     -10.184  13.746  65.558  1.00  0.00    -0.302 OA 
BRANCH  15  18
HETATM   18  C   UNL     1      -8.682  14.658  67.225  1.00  0.00    -0.224 A  
HETATM   19  C   UNL     1      -9.178  15.940  66.904  1.00  0.00    -0.247 A  
HETATM   20  C   UNL     1      -8.620  17.099  67.456  1.00  0.00    -0.203 A  
HETATM   21  H   UNL     1      -6.200  17.954  69.506  1.00  0.00     0.000 HD 
HETATM   22  C   UNL     1      -7.553  16.963  68.351  1.00  0.00    -0.209 A  
HETATM   23  C   UNL     1      -7.611  14.559  68.122  1.00  0.00    -0.125 A  
HETATM   24  C   UNL     1      -7.055  15.707  68.688  1.00  0.00    -0.127 A  
HETATM   25  O   UNL     1      -6.925  18.046  68.898  1.00  0.00    -0.250 OA 
BRANCH  20  26
HETATM   26  N   UNL     1      -9.118  18.383  67.168  1.00  0.00    -0.263 N  
HETATM   27  H   UNL     1      -8.452  19.152  67.231  1.00  0.00     0.000 HD 
HETATM   28  O   UNL     1     -10.738  19.872  66.615  1.00  0.00    -0.464 OA 
HETATM   29  C   UNL     1     -10.392  18.713  66.815  1.00  0.00    -0.407 C  
ENDBRANCH  20  26
ENDBRANCH  15  18
ENDBRANCH  14  15
ENDBRANCH  12  14
ENDBRANCH  10  12
ENDBRANCH   9  10
ENDBRANCH   6   9
ENDBRANCH   2   3
TORSDOF 8
ENDMDL
MODEL      200
REMARK 921   NORMALIZED FREE ENERGY PREDICTED BY IDOCK:   -4.36 KCAL/MOL
REMARK 922        TOTAL FREE ENERGY PREDICTED BY IDOCK:   -7.90 KCAL/MOL
REMARK 923 INTER-LIGAND FREE ENERGY PREDICTED BY IDOCK:   -5.42 KCAL/MOL
REMARK 924 INTRA-LIGAND FREE ENERGY PREDICTED BY IDOCK:   -2.48 KCAL/MOL
REMARK 927      BINDING AFFINITY PREDICTED BY RF-SCORE:    0.00 PKD
ROOT
HETATM    1  C   UNL     1      -6.245  11.351  67.029  1.00  0.00    -0.123 C  
HETATM    2  O   UNL     1      -7.155  10.278  66.807  1.00  0.00    -0.088 OA 
ENDROOT
BRANCH   2   3
HETATM    3  C   UNL     1      -8.419  10.492  67.281  1.00  0.00    -0.122 A  
HETATM    4  C   UNL     1      -8.507  11.190  68.485  1.00  0.00    -0.156 A  
HETATM    5  C   UNL     1      -9.751  11.424  69.077  1.00  0.00    -0.031 A  
HETATM    6  C   UNL     1     -10.925  10.986  68.452  1.00  0.00    -0.281 A  
HETATM    7  C   UNL     1      -9.586  10.087  66.637  1.00  0.00    -0.234 A  
HETATM    8  C   UNL     1     -10.831  10.330  67.220  1.00  0.00    -0.312 A  
BRANCH   6   9
HETATM    9  C   UNL     1     -12.269  11.098  69.132  1.00  0.00    -0.244 C  
BRANCH   9  10
HETATM   10  C   UNL     1     -12.259  11.063  70.680  1.00  0.00    -0.385 C  
HETATM   11  C   UNL     1     -12.762  12.393  71.251  1.00  0.00    -0.347 C  
BRANCH  10  12
HETATM   12  N   UNL     1     -13.099   9.983  71.241  1.00  0.00    -0.386 NA 
HETATM   13  H   UNL     1     -13.995   9.929  70.755  1.00  0.00     0.000 HD 
BRANCH  12  14
HETATM   14  C   UNL     1     -12.424   8.679  71.246  1.00  0.00    -0.252 C  
BRANCH  14  15
HETATM   15  C   UNL     1     -11.072   8.680  72.005  1.00  0.00    -0.367 C  
HETATM   16  H   UNL     1     -10.324   7.786  73.587  1.00  0.00     0.000 HD 
HETATM   17  O   UNL     1     -11.153   7.785  73.122  1.00  0.00    -0.409 OA 
BRANCH  15  18
HETATM   18  C   UNL     1      -9.932   8.260  71.085  1.00  0.00    -0.230 A  
HETATM   19  C   UNL     1     -10.184   7.596  69.866  1.00  0.00    -0.215 A  
HETATM   20  C   UNL     1      -9.145   7.235  69.001  1.00  0.00    -0.133 A  
HETATM   21  H   UNL     1      -5.869   7.417  68.847  1.00  0.00     0.000 HD 
HETATM   22  C   UNL     1      -7.833   7.556  69.367  1.00  0.00    -0.121 A  
HETATM   23  C   UNL     1      -8.606   8.563  71.421  1.00  0.00    -0.224 A  
HETATM   24  C   UNL     1      -7.563   8.219  70.560  1.00  0.00    -0.076 A  
HETATM   25  O   UNL     1      -6.760   7.199  68.599  1.00  0.00    -0.058 OA 
BRANCH  20  26
HETATM   26  N   UNL     1      -9.380   6.596  67.769  1.00  0.00    -0.120 N  
HETATM   27  H   UNL     1      -8.655   6.699  67.059  1.00  0.00     0.000 HD 
HETATM   28  O   UNL     1     -10.596   5.362  66.304  1.00  0.00    -0.260 OA 
HETATM   29  C   UNL     1     -10.468   5.854  67.419  1.00  0.00    -0.248 C  
ENDBRANCH  20  26
ENDBRANCH  15  18
ENDBRANCH  14  15
ENDBRANCH  12  14
ENDBRANCH  10  12
ENDBRANCH   9  10
ENDBRANCH   6   9
ENDBRANCH   2   3
TORSDOF 8
ENDMDL
MODEL      201
REMARK 921   NORMALIZED FREE ENERGY PREDICTED BY IDOCK:   -4.36 KCAL/MOL
REMARK 922        TOTAL FREE ENERGY PREDICTED BY IDOCK:   -7.90 KCAL/MOL
REMARK 923 INTER-LIGAND FREE ENERGY PREDICTED BY IDOCK:   -6.72 KCAL/MOL
REMARK 924 INTRA-LIGAND FREE ENERGY PREDICTED BY IDOCK:   -1.17 KCAL/MOL
REMARK 927      BINDING AFFINITY PREDICTED BY RF-SCORE:    0.00 PKD
ROOT
HETATM    1  C   UNL     1      -5.266  14.569  71.561  1.00  0.00    -0.156 C  
HETATM    2  O   UNL     1      -5.172  14.923  70.184  1.00  0.00    -0.099 OA 
ENDROOT
BRANCH   2   3
HETATM    3  C   UNL     1      -6.208  15.684  69.717  1.00  0.00    -0.166 A  
HETATM    4  C   UNL     1      -7.415  15.014  69.523  1.00  0.00    -0.194 A  
HETATM    5  C   UNL     1      -8.524  15.690  69.008  1.00  0.00    -0.231 A  
HETATM    6  C   UNL     1      -8.443  17.057  68.710  1.00  0.00    -0.237 A  
HETATM    7  C   UNL     1      -6.133  17.050  69.457  1.00  0.00    -0.233 A  
HETATM    8  C   UNL     1      -7.242  17.732  68.954  1.00  0.00    -0.256 A  
BRANCH   6   9
HETATM    9  C   UNL     1      -9.576  17.782  68.023  1.00  0.00    -0.291 C  
BRANCH   9  10
HETATM   10  C   UNL     1      -9.499  17.866  66.479  1.00  0.00    -0.299 C  
HETATM   11  C   UNL     1      -8.178  17.275  65.973  1.00  0.00    -0.175 C  
BRANCH  10  12
HETATM   12  N   UNL     1     -10.603  17.151  65.804  1.00  0.00    -0.436 NA 
HETATM   13  H   UNL     1     -10.870  17.625  64.941  1.00  0.00     0.000 HD 
BRANCH  12  14
HETATM   14  C   UNL     1     -10.300  15.736  65.554  1.00  0.00    -0.404 C  
BRANCH  14  15
HETATM   15  C   UNL     1     -11.439  14.771  65.975  1.00  0.00    -0.316 C  
HETATM   16  H   UNL     1     -12.801  13.690  65.061  1.00  0.00     0.000 HD 
HETATM   17  O   UNL     1     -12.104  14.281  64.803  1.00  0.00    -0.403 OA 
BRANCH  15  18
HETATM   18  C   UNL     1     -10.890  13.604  66.787  1.00  0.00    -0.291 A  
HETATM   19  C   UNL     1     -11.680  12.959  67.763  1.00  0.00    -0.412 A  
HETATM   20  C   UNL     1     -11.194  11.868  68.491  1.00  0.00    -0.256 A  
HETATM   21  H   UNL     1      -8.453  10.074  68.743  1.00  0.00     0.000 HD 
HETATM   22  C   UNL     1      -9.897  11.414  68.225  1.00  0.00    -0.200 A  
HETATM   23  C   UNL     1      -9.596  13.126  66.549  1.00  0.00    -0.268 A  
HETATM   24  C   UNL     1      -9.106  12.029  67.260  1.00  0.00    -0.178 A  
HETATM   25  O   UNL     1      -9.334  10.382  68.923  1.00  0.00    -0.168 OA 
BRANCH  20  26
HETATM   26  N   UNL     1     -11.976  11.195  69.450  1.00  0.00    -0.337 N  
HETATM   27  H   UNL     1     -12.504  10.389  69.119  1.00  0.00     0.000 HD 
HETATM   28  O   UNL     1     -12.839  10.873  71.523  1.00  0.00    -0.411 OA 
HETATM   29  C   UNL     1     -12.104  11.503  70.771  1.00  0.00    -0.309 C  
ENDBRANCH  20  26
ENDBRANCH  15  18
ENDBRANCH  14  15
ENDBRANCH  12  14
ENDBRANCH  10  12
ENDBRANCH   9  10
ENDBRANCH   6   9
ENDBRANCH   2   3
TORSDOF 8
ENDMDL
MODEL      202
REMARK 921   NORMALIZED FREE ENERGY PREDICTED BY IDOCK:   -4.36 KCAL/MOL
REMARK 922        TOTAL FREE ENERGY PREDICTED BY IDOCK:   -7.89 KCAL/MOL
REMARK 923 INTER-LIGAND FREE ENERGY PREDICTED BY IDOCK:   -6.87 KCAL/MOL
REMARK 924 INTRA-LIGAND FREE ENERGY PREDICTED BY IDOCK:   -1.02 KCAL/MOL
REMARK 927      BINDING AFFINITY PREDICTED BY RF-SCORE:    0.00 PKD
ROOT
HETATM    1  C   UNL     1      -7.328   8.138  65.173  1.00  0.00    -0.078 C  
HETATM    2  O   UNL     1      -8.265   8.451  64.146  1.00  0.00    -0.159 OA 
ENDROOT
BRANCH   2   3
HETATM    3  C   UNL     1      -8.863   9.673  64.271  1.00  0.00    -0.228 A  
HETATM    4  C   UNL     1      -9.245  10.288  63.079  1.00  0.00    -0.312 A  
HETATM    5  C   UNL     1      -9.825  11.559  63.093  1.00  0.00    -0.413 A  
HETATM    6  C   UNL     1     -10.059  12.216  64.308  1.00  0.00    -0.317 A  
HETATM    7  C   UNL     1      -9.126  10.306  65.483  1.00  0.00    -0.211 A  
HETATM    8  C   UNL     1      -9.717  11.571  65.502  1.00  0.00    -0.259 A  
BRANCH   6   9
HETATM    9  C   UNL     1     -10.553  13.642  64.351  1.00  0.00    -0.360 C  
BRANCH   9  10
HETATM   10  C   UNL     1     -12.058  13.837  64.660  1.00  0.00    -0.421 C  
HETATM   11  C   UNL     1     -12.784  12.487  64.670  1.00  0.00    -0.434 C  
BRANCH  10  12
HETATM   12  N   UNL     1     -12.302  14.491  65.964  1.00  0.00    -0.283 NA 
HETATM   13  H   UNL     1     -13.153  15.052  65.936  1.00  0.00     0.000 HD 
BRANCH  12  14
HETATM   14  C   UNL     1     -12.335  13.541  67.083  1.00  0.00    -0.173 C  
BRANCH  14  15
HETATM   15  C   UNL     1     -11.919  14.164  68.441  1.00  0.00    -0.331 C  
HETATM   16  H   UNL     1     -11.503  13.503  70.245  1.00  0.00     0.000 HD 
HETATM   17  O   UNL     1     -11.758  13.122  69.413  1.00  0.00    -0.294 OA 
BRANCH  15  18
HETATM   18  C   UNL     1     -10.621  14.951  68.304  1.00  0.00    -0.240 A  
HETATM   19  C   UNL     1     -10.623  16.362  68.267  1.00  0.00    -0.318 A  
HETATM   20  C   UNL     1      -9.433  17.092  68.172  1.00  0.00    -0.269 A  
HETATM   21  H   UNL     1      -6.201  16.551  67.953  1.00  0.00     0.000 HD 
HETATM   22  C   UNL     1      -8.223  16.390  68.123  1.00  0.00    -0.170 A  
HETATM   23  C   UNL     1      -9.392  14.281  68.250  1.00  0.00    -0.208 A  
HETATM   24  C   UNL     1      -8.199  14.999  68.169  1.00  0.00    -0.140 A  
HETATM   25  O   UNL     1      -7.022  17.028  67.986  1.00  0.00    -0.158 OA 
BRANCH  20  26
HETATM   26  N   UNL     1      -9.414  18.499  68.160  1.00  0.00    -0.305 N  
HETATM   27  H   UNL     1      -9.063  18.955  69.002  1.00  0.00     0.000 HD 
HETATM   28  O   UNL     1      -9.786  20.542  67.245  1.00  0.00    -0.453 OA 
HETATM   29  C   UNL     1      -9.811  19.320  67.148  1.00  0.00    -0.339 C  
ENDBRANCH  20  26
ENDBRANCH  15  18
ENDBRANCH  14  15
ENDBRANCH  12  14
ENDBRANCH  10  12
ENDBRANCH   9  10
ENDBRANCH   6   9
ENDBRANCH   2   3
TORSDOF 8
ENDMDL
MODEL      203
REMARK 921   NORMALIZED FREE ENERGY PREDICTED BY IDOCK:   -4.36 KCAL/MOL
REMARK 922        TOTAL FREE ENERGY PREDICTED BY IDOCK:   -7.89 KCAL/MOL
REMARK 923 INTER-LIGAND FREE ENERGY PREDICTED BY IDOCK:   -6.84 KCAL/MOL
REMARK 924 INTRA-LIGAND FREE ENERGY PREDICTED BY IDOCK:   -1.05 KCAL/MOL
REMARK 927      BINDING AFFINITY PREDICTED BY RF-SCORE:    0.00 PKD
ROOT
HETATM    1  C   UNL     1     -10.151  19.950  66.383  1.00  0.00    -0.499 C  
HETATM    2  O   UNL     1     -10.091  18.731  65.648  1.00  0.00    -0.482 OA 
ENDROOT
BRANCH   2   3
HETATM    3  C   UNL     1     -10.049  17.601  66.416  1.00  0.00    -0.356 A  
HETATM    4  C   UNL     1      -9.289  16.549  65.910  1.00  0.00    -0.226 A  
HETATM    5  C   UNL     1      -9.217  15.334  66.596  1.00  0.00    -0.302 A  
HETATM    6  C   UNL     1      -9.883  15.172  67.818  1.00  0.00    -0.223 A  
HETATM    7  C   UNL     1     -10.684  17.458  67.648  1.00  0.00    -0.310 A  
HETATM    8  C   UNL     1     -10.604  16.250  68.343  1.00  0.00    -0.301 A  
BRANCH   6   9
HETATM    9  C   UNL     1      -9.940  13.832  68.513  1.00  0.00    -0.217 C  
BRANCH   9  10
HETATM   10  C   UNL     1     -11.342  13.189  68.646  1.00  0.00    -0.289 C  
HETATM   11  C   UNL     1     -11.587  12.194  67.507  1.00  0.00    -0.413 C  
BRANCH  10  12
HETATM   12  N   UNL     1     -11.531  12.470  69.925  1.00  0.00    -0.515 NA 
HETATM   13  H   UNL     1     -12.096  13.019  70.572  1.00  0.00     0.000 HD 
BRANCH  12  14
HETATM   14  C   UNL     1     -12.094  11.125  69.746  1.00  0.00    -0.344 C  
BRANCH  14  15
HETATM   15  C   UNL     1     -11.283  10.011  70.457  1.00  0.00    -0.336 C  
HETATM   16  H   UNL     1     -11.680   8.296  71.331  1.00  0.00     0.000 HD 
HETATM   17  O   UNL     1     -12.176   8.978  70.895  1.00  0.00    -0.262 OA 
BRANCH  15  18
HETATM   18  C   UNL     1     -10.229   9.425  69.525  1.00  0.00    -0.219 A  
HETATM   19  C   UNL     1     -10.546   8.378  68.632  1.00  0.00    -0.149 A  
HETATM   20  C   UNL     1      -9.592   7.856  67.751  1.00  0.00    -0.147 A  
HETATM   21  H   UNL     1      -6.430   8.291  66.975  1.00  0.00     0.000 HD 
HETATM   22  C   UNL     1      -8.304   8.403  67.764  1.00  0.00    -0.130 A  
HETATM   23  C   UNL     1      -8.930   9.946  69.513  1.00  0.00    -0.224 A  
HETATM   24  C   UNL     1      -7.974   9.442  68.629  1.00  0.00    -0.092 A  
HETATM   25  O   UNL     1      -7.305   7.920  66.966  1.00  0.00    -0.087 OA 
BRANCH  20  26
HETATM   26  N   UNL     1      -9.896   6.831  66.836  1.00  0.00    -0.166 N  
HETATM   27  H   UNL     1      -9.722   7.035  65.852  1.00  0.00     0.000 HD 
HETATM   28  O   UNL     1     -10.660   4.778  66.244  1.00  0.00    -0.301 OA 
HETATM   29  C   UNL     1     -10.396   5.595  67.119  1.00  0.00    -0.248 C  
ENDBRANCH  20  26
ENDBRANCH  15  18
ENDBRANCH  14  15
ENDBRANCH  12  14
ENDBRANCH  10  12
ENDBRANCH   9  10
ENDBRANCH   6   9
ENDBRANCH   2   3
TORSDOF 8
ENDMDL
MODEL      204
REMARK 921   NORMALIZED FREE ENERGY PREDICTED BY IDOCK:   -4.35 KCAL/MOL
REMARK 922        TOTAL FREE ENERGY PREDICTED BY IDOCK:   -7.88 KCAL/MOL
REMARK 923 INTER-LIGAND FREE ENERGY PREDICTED BY IDOCK:   -6.35 KCAL/MOL
REMARK 924 INTRA-LIGAND FREE ENERGY PREDICTED BY IDOCK:   -1.53 KCAL/MOL
REMARK 927      BINDING AFFINITY PREDICTED BY RF-SCORE:    0.00 PKD
ROOT
HETATM    1  C   UNL     1     -10.454   7.023  69.941  1.00  0.00    -0.217 C  
HETATM    2  O   UNL     1     -10.723   8.413  70.093  1.00  0.00    -0.231 OA 
ENDROOT
BRANCH   2   3
HETATM    3  C   UNL     1      -9.725   9.240  69.657  1.00  0.00    -0.182 A  
HETATM    4  C   UNL     1      -8.558   9.239  70.419  1.00  0.00    -0.250 A  
HETATM    5  C   UNL     1      -7.495  10.081  70.084  1.00  0.00    -0.176 A  
HETATM    6  C   UNL     1      -7.578  10.913  68.960  1.00  0.00    -0.135 A  
HETATM    7  C   UNL     1      -9.800  10.038  68.517  1.00  0.00    -0.168 A  
HETATM    8  C   UNL     1      -8.734  10.871  68.172  1.00  0.00    -0.133 A  
BRANCH   6   9
HETATM    9  C   UNL     1      -6.507  11.932  68.652  1.00  0.00    -0.062 C  
BRANCH   9  10
HETATM   10  C   UNL     1      -6.821  13.396  69.049  1.00  0.00    -0.103 C  
HETATM   11  C   UNL     1      -6.022  13.799  70.292  1.00  0.00    -0.152 C  
BRANCH  10  12
HETATM   12  N   UNL     1      -6.511  14.366  67.976  1.00  0.00    -0.136 NA 
HETATM   13  H   UNL     1      -6.076  13.902  67.180  1.00  0.00     0.000 HD 
BRANCH  12  14
HETATM   14  C   UNL     1      -7.683  15.145  67.554  1.00  0.00    -0.181 C  
BRANCH  14  15
HETATM   15  C   UNL     1      -8.985  14.771  68.309  1.00  0.00    -0.181 C  
HETATM   16  H   UNL     1     -10.274  15.694  69.470  1.00  0.00     0.000 HD 
HETATM   17  O   UNL     1      -9.476  15.923  69.008  1.00  0.00    -0.217 OA 
BRANCH  15  18
HETATM   18  C   UNL     1     -10.046  14.257  67.343  1.00  0.00    -0.247 A  
HETATM   19  C   UNL     1      -9.686  13.640  66.126  1.00  0.00    -0.269 A  
HETATM   20  C   UNL     1     -10.653  13.138  65.248  1.00  0.00    -0.313 A  
HETATM   21  H   UNL     1     -13.922  12.905  65.028  1.00  0.00     0.000 HD 
HETATM   22  C   UNL     1     -12.001  13.252  65.606  1.00  0.00    -0.412 A  
HETATM   23  C   UNL     1     -11.404  14.358  67.669  1.00  0.00    -0.348 A  
HETATM   24  C   UNL     1     -12.376  13.849  66.807  1.00  0.00    -0.370 A  
HETATM   25  O   UNL     1     -13.007  12.827  64.785  1.00  0.00    -0.768 OA 
BRANCH  20  26
HETATM   26  N   UNL     1     -10.314  12.496  64.042  1.00  0.00    -0.431 N  
HETATM   27  H   UNL     1     -10.157  13.100  63.236  1.00  0.00     0.000 HD 
HETATM   28  O   UNL     1      -9.904  10.689  62.733  1.00  0.00    -0.303 OA 
HETATM   29  C   UNL     1     -10.171  11.157  63.834  1.00  0.00    -0.362 C  
ENDBRANCH  20  26
ENDBRANCH  15  18
ENDBRANCH  14  15
ENDBRANCH  12  14
ENDBRANCH  10  12
ENDBRANCH   9  10
ENDBRANCH   6   9
ENDBRANCH   2   3
TORSDOF 8
ENDMDL
MODEL      205
REMARK 921   NORMALIZED FREE ENERGY PREDICTED BY IDOCK:   -4.35 KCAL/MOL
REMARK 922        TOTAL FREE ENERGY PREDICTED BY IDOCK:   -7.87 KCAL/MOL
REMARK 923 INTER-LIGAND FREE ENERGY PREDICTED BY IDOCK:   -6.99 KCAL/MOL
REMARK 924 INTRA-LIGAND FREE ENERGY PREDICTED BY IDOCK:   -0.88 KCAL/MOL
REMARK 927      BINDING AFFINITY PREDICTED BY RF-SCORE:    0.00 PKD
ROOT
HETATM    1  C   UNL     1      -8.555   5.530  72.723  1.00  0.00    -0.120 C  
HETATM    2  O   UNL     1      -8.643   6.867  73.206  1.00  0.00    -0.119 OA 
ENDROOT
BRANCH   2   3
HETATM    3  C   UNL     1      -8.343   7.830  72.283  1.00  0.00    -0.119 A  
HETATM    4  C   UNL     1      -9.433   8.436  71.659  1.00  0.00    -0.281 A  
HETATM    5  C   UNL     1      -9.234   9.401  70.669  1.00  0.00    -0.303 A  
HETATM    6  C   UNL     1      -7.937   9.794  70.315  1.00  0.00    -0.185 A  
HETATM    7  C   UNL     1      -7.052   8.243  71.961  1.00  0.00    -0.099 A  
HETATM    8  C   UNL     1      -6.850   9.216  70.981  1.00  0.00    -0.095 A  
BRANCH   6   9
HETATM    9  C   UNL     1      -7.685  10.728  69.155  1.00  0.00    -0.138 C  
BRANCH   9  10
HETATM   10  C   UNL     1      -8.218  10.268  67.777  1.00  0.00    -0.110 C  
HETATM   11  C   UNL     1      -8.353   8.742  67.734  1.00  0.00    -0.118 C  
BRANCH  10  12
HETATM   12  N   UNL     1      -9.537  10.849  67.442  1.00  0.00    -0.163 NA 
HETATM   13  H   UNL     1     -10.288  10.190  67.649  1.00  0.00     0.000 HD 
BRANCH  12  14
HETATM   14  C   UNL     1      -9.775  12.141  68.098  1.00  0.00    -0.208 C  
BRANCH  14  15
HETATM   15  C   UNL     1     -11.202  12.703  67.866  1.00  0.00    -0.266 C  
HETATM   16  H   UNL     1     -12.814  12.143  66.893  1.00  0.00     0.000 HD 
HETATM   17  O   UNL     1     -11.940  11.798  67.034  1.00  0.00    -0.610 OA 
BRANCH  15  18
HETATM   18  C   UNL     1     -11.929  12.902  69.191  1.00  0.00    -0.308 A  
HETATM   19  C   UNL     1     -12.281  11.802  70.003  1.00  0.00    -0.317 A  
HETATM   20  C   UNL     1     -12.921  11.979  71.234  1.00  0.00    -0.217 A  
HETATM   21  H   UNL     1     -14.057  14.422  73.113  1.00  0.00     0.000 HD 
HETATM   22  C   UNL     1     -13.204  13.283  71.657  1.00  0.00    -0.359 A  
HETATM   23  C   UNL     1     -12.230  14.193  69.643  1.00  0.00    -0.376 A  
HETATM   24  C   UNL     1     -12.857  14.381  70.876  1.00  0.00    -0.419 A  
HETATM   25  O   UNL     1     -13.866  13.537  72.826  1.00  0.00    -0.730 OA 
BRANCH  20  26
HETATM   26  N   UNL     1     -13.256  10.896  72.070  1.00  0.00    -0.552 N  
HETATM   27  H   UNL     1     -13.846  11.110  72.873  1.00  0.00     0.000 HD 
HETATM   28  O   UNL     1     -13.196   8.726  72.727  1.00  0.00    -0.355 OA 
HETATM   29  C   UNL     1     -12.879   9.595  71.923  1.00  0.00    -0.425 C  
ENDBRANCH  20  26
ENDBRANCH  15  18
ENDBRANCH  14  15
ENDBRANCH  12  14
ENDBRANCH  10  12
ENDBRANCH   9  10
ENDBRANCH   6   9
ENDBRANCH   2   3
TORSDOF 8
ENDMDL
MODEL      206
REMARK 921   NORMALIZED FREE ENERGY PREDICTED BY IDOCK:   -4.31 KCAL/MOL
REMARK 922        TOTAL FREE ENERGY PREDICTED BY IDOCK:   -7.82 KCAL/MOL
REMARK 923 INTER-LIGAND FREE ENERGY PREDICTED BY IDOCK:   -7.38 KCAL/MOL
REMARK 924 INTRA-LIGAND FREE ENERGY PREDICTED BY IDOCK:   -0.44 KCAL/MOL
REMARK 927      BINDING AFFINITY PREDICTED BY RF-SCORE:    0.00 PKD
ROOT
HETATM    1  C   UNL     1      -6.831  20.564  65.547  1.00  0.00    -0.194 C  
HETATM    2  O   UNL     1      -6.887  20.145  66.908  1.00  0.00    -0.210 OA 
ENDROOT
BRANCH   2   3
HETATM    3  C   UNL     1      -7.893  19.265  67.194  1.00  0.00    -0.251 A  
HETATM    4  C   UNL     1      -8.746  19.634  68.234  1.00  0.00    -0.361 A  
HETATM    5  C   UNL     1      -9.780  18.784  68.634  1.00  0.00    -0.437 A  
HETATM    6  C   UNL     1      -9.991  17.566  67.975  1.00  0.00    -0.310 A  
HETATM    7  C   UNL     1      -8.120  18.073  66.511  1.00  0.00    -0.298 A  
HETATM    8  C   UNL     1      -9.160  17.227  66.901  1.00  0.00    -0.250 A  
BRANCH   6   9
HETATM    9  C   UNL     1     -11.007  16.566  68.472  1.00  0.00    -0.350 C  
BRANCH   9  10
HETATM   10  C   UNL     1     -10.845  16.096  69.938  1.00  0.00    -0.355 C  
HETATM   11  C   UNL     1     -12.215  15.841  70.576  1.00  0.00    -0.399 C  
BRANCH  10  12
HETATM   12  N   UNL     1     -10.048  14.856  70.065  1.00  0.00    -0.473 NA 
HETATM   13  H   UNL     1     -10.481  14.212  70.728  1.00  0.00     0.000 HD 
BRANCH  12  14
HETATM   14  C   UNL     1      -9.805  14.198  68.775  1.00  0.00    -0.167 C  
BRANCH  14  15
HETATM   15  C   UNL     1     -10.983  13.310  68.297  1.00  0.00    -0.256 C  
HETATM   16  H   UNL     1     -11.882  12.933  66.591  1.00  0.00     0.000 HD 
HETATM   17  O   UNL     1     -11.161  13.477  66.884  1.00  0.00    -0.288 OA 
BRANCH  15  18
HETATM   18  C   UNL     1     -10.723  11.843  68.617  1.00  0.00    -0.266 A  
HETATM   19  C   UNL     1     -11.433  11.183  69.643  1.00  0.00    -0.383 A  
HETATM   20  C   UNL     1     -11.222   9.828  69.923  1.00  0.00    -0.229 A  
HETATM   21  H   UNL     1      -9.358   7.337  68.868  1.00  0.00     0.000 HD 
HETATM   22  C   UNL     1     -10.288   9.127  69.152  1.00  0.00    -0.212 A  
HETATM   23  C   UNL     1      -9.793  11.111  67.868  1.00  0.00    -0.187 A  
HETATM   24  C   UNL     1      -9.584   9.756  68.130  1.00  0.00    -0.158 A  
HETATM   25  O   UNL     1      -9.992   7.814  69.391  1.00  0.00    -0.180 OA 
BRANCH  20  26
HETATM   26  N   UNL     1     -11.939   9.146  70.924  1.00  0.00    -0.380 N  
HETATM   27  H   UNL     1     -11.495   8.316  71.314  1.00  0.00     0.000 HD 
HETATM   28  O   UNL     1     -13.723   8.794  72.282  1.00  0.00    -0.411 OA 
HETATM   29  C   UNL     1     -13.162   9.473  71.429  1.00  0.00    -0.372 C  
ENDBRANCH  20  26
ENDBRANCH  15  18
ENDBRANCH  14  15
ENDBRANCH  12  14
ENDBRANCH  10  12
ENDBRANCH   9  10
ENDBRANCH   6   9
ENDBRANCH   2   3
TORSDOF 8
ENDMDL
MODEL      207
REMARK 921   NORMALIZED FREE ENERGY PREDICTED BY IDOCK:   -4.30 KCAL/MOL
REMARK 922        TOTAL FREE ENERGY PREDICTED BY IDOCK:   -7.81 KCAL/MOL
REMARK 923 INTER-LIGAND FREE ENERGY PREDICTED BY IDOCK:   -6.74 KCAL/MOL
REMARK 924 INTRA-LIGAND FREE ENERGY PREDICTED BY IDOCK:   -1.07 KCAL/MOL
REMARK 927      BINDING AFFINITY PREDICTED BY RF-SCORE:    0.00 PKD
ROOT
HETATM    1  C   UNL     1     -11.703  15.109  71.659  1.00  0.00    -0.398 C  
HETATM    2  O   UNL     1     -10.688  15.096  70.660  1.00  0.00    -0.241 OA 
ENDROOT
BRANCH   2   3
HETATM    3  C   UNL     1     -11.143  14.899  69.385  1.00  0.00    -0.280 A  
HETATM    4  C   UNL     1     -11.716  13.654  69.130  1.00  0.00    -0.376 A  
HETATM    5  C   UNL     1     -12.172  13.335  67.848  1.00  0.00    -0.129 A  
HETATM    6  C   UNL     1     -12.086  14.275  66.813  1.00  0.00    -0.446 A  
HETATM    7  C   UNL     1     -11.088  15.850  68.369  1.00  0.00    -0.345 A  
HETATM    8  C   UNL     1     -11.554  15.539  67.090  1.00  0.00     0.026 A  
BRANCH   6   9
HETATM    9  C   UNL     1     -12.439  13.915  65.390  1.00  0.00    -0.528 C  
BRANCH   9  10
HETATM   10  C   UNL     1     -11.722  12.676  64.799  1.00  0.00    -0.352 C  
HETATM   11  C   UNL     1     -12.164  12.439  63.351  1.00  0.00    -0.623 C  
BRANCH  10  12
HETATM   12  N   UNL     1     -10.249  12.800  64.809  1.00  0.00    -0.429 NA 
HETATM   13  H   UNL     1      -9.965  13.755  65.027  1.00  0.00     0.000 HD 
BRANCH  12  14
HETATM   14  C   UNL     1      -9.600  11.840  65.711  1.00  0.00    -0.233 C  
BRANCH  14  15
HETATM   15  C   UNL     1     -10.036  10.370  65.475  1.00  0.00    -0.283 C  
HETATM   16  H   UNL     1      -9.551   8.920  64.241  1.00  0.00     0.000 HD 
HETATM   17  O   UNL     1      -9.284   9.820  64.386  1.00  0.00    -0.248 OA 
BRANCH  15  18
HETATM   18  C   UNL     1      -9.823   9.531  66.729  1.00  0.00    -0.277 A  
HETATM   19  C   UNL     1      -9.789   8.121  66.667  1.00  0.00    -0.331 A  
HETATM   20  C   UNL     1      -9.563   7.345  67.809  1.00  0.00    -0.140 A  
HETATM   21  H   UNL     1      -9.040   7.757  71.026  1.00  0.00     0.000 HD 
HETATM   22  C   UNL     1      -9.360   7.999  69.030  1.00  0.00    -0.147 A  
HETATM   23  C   UNL     1      -9.620  10.153  67.967  1.00  0.00    -0.160 A  
HETATM   24  C   UNL     1      -9.381   9.389  69.111  1.00  0.00    -0.159 A  
HETATM   25  O   UNL     1      -9.177   7.313  70.197  1.00  0.00    -0.152 OA 
BRANCH  20  26
HETATM   26  N   UNL     1      -9.499   5.940  67.763  1.00  0.00    -0.113 N  
HETATM   27  H   UNL     1      -8.896   5.490  68.451  1.00  0.00     0.000 HD 
HETATM   28  O   UNL     1     -10.006   3.896  66.917  1.00  0.00    -0.153 OA 
HETATM   29  C   UNL     1     -10.153   5.113  66.899  1.00  0.00    -0.226 C  
ENDBRANCH  20  26
ENDBRANCH  15  18
ENDBRANCH  14  15
ENDBRANCH  12  14
ENDBRANCH  10  12
ENDBRANCH   9  10
ENDBRANCH   6   9
ENDBRANCH   2   3
TORSDOF 8
ENDMDL
MODEL      208
REMARK 921   NORMALIZED FREE ENERGY PREDICTED BY IDOCK:   -4.29 KCAL/MOL
REMARK 922        TOTAL FREE ENERGY PREDICTED BY IDOCK:   -7.79 KCAL/MOL
REMARK 923 INTER-LIGAND FREE ENERGY PREDICTED BY IDOCK:   -6.32 KCAL/MOL
REMARK 924 INTRA-LIGAND FREE ENERGY PREDICTED BY IDOCK:   -1.47 KCAL/MOL
REMARK 927      BINDING AFFINITY PREDICTED BY RF-SCORE:    0.00 PKD
ROOT
HETATM    1  C   UNL     1     -12.054  13.965  66.290  1.00  0.00    -0.451 C  
HETATM    2  O   UNL     1     -12.160  13.212  67.495  1.00  0.00    -0.339 OA 
ENDROOT
BRANCH   2   3
HETATM    3  C   UNL     1     -11.613  11.960  67.437  1.00  0.00    -0.297 A  
HETATM    4  C   UNL     1     -11.012  11.614  66.227  1.00  0.00    -0.338 A  
HETATM    5  C   UNL     1     -10.462  10.343  66.050  1.00  0.00    -0.211 A  
HETATM    6  C   UNL     1     -10.479   9.412  67.096  1.00  0.00    -0.315 A  
HETATM    7  C   UNL     1     -11.600  11.052  68.493  1.00  0.00    -0.380 A  
HETATM    8  C   UNL     1     -11.040   9.785  68.323  1.00  0.00    -0.158 A  
BRANCH   6   9
HETATM    9  C   UNL     1     -10.021   7.988  66.893  1.00  0.00    -0.338 C  
BRANCH   9  10
HETATM   10  C   UNL     1      -8.519   7.709  67.144  1.00  0.00    -0.121 C  
HETATM   11  C   UNL     1      -7.973   8.643  68.229  1.00  0.00    -0.110 C  
BRANCH  10  12
HETATM   12  N   UNL     1      -8.250   6.317  67.566  1.00  0.00    -0.113 NA 
HETATM   13  H   UNL     1      -7.693   6.297  68.420  1.00  0.00     0.000 HD 
BRANCH  12  14
HETATM   14  C   UNL     1      -9.473   5.519  67.718  1.00  0.00    -0.116 C  
BRANCH  14  15
HETATM   15  C   UNL     1      -9.606   4.839  69.105  1.00  0.00    -0.167 C  
HETATM   16  H   UNL     1      -8.386   4.044  70.424  1.00  0.00     0.000 HD 
HETATM   17  O   UNL     1      -8.305   4.461  69.575  1.00  0.00    -0.063 OA 
BRANCH  15  18
HETATM   18  C   UNL     1     -10.269   5.774  70.109  1.00  0.00    -0.301 A  
HETATM   19  C   UNL     1      -9.585   6.208  71.264  1.00  0.00    -0.189 A  
HETATM   20  C   UNL     1     -10.176   7.091  72.175  1.00  0.00    -0.186 A  
HETATM   21  H   UNL     1     -13.015   8.689  72.596  1.00  0.00     0.000 HD 
HETATM   22  C   UNL     1     -11.472   7.549  71.912  1.00  0.00    -0.270 A  
HETATM   23  C   UNL     1     -11.566   6.250  69.879  1.00  0.00    -0.361 A  
HETATM   24  C   UNL     1     -12.160   7.141  70.773  1.00  0.00    -0.331 A  
HETATM   25  O   UNL     1     -12.135   8.378  72.774  1.00  0.00    -0.354 OA 
BRANCH  20  26
HETATM   26  N   UNL     1      -9.500   7.556  73.319  1.00  0.00    -0.215 N  
HETATM   27  H   UNL     1      -9.956   7.386  74.215  1.00  0.00     0.000 HD 
HETATM   28  O   UNL     1      -7.810   8.604  74.411  1.00  0.00    -0.380 OA 
HETATM   29  C   UNL     1      -8.304   8.207  73.361  1.00  0.00    -0.219 C  
ENDBRANCH  20  26
ENDBRANCH  15  18
ENDBRANCH  14  15
ENDBRANCH  12  14
ENDBRANCH  10  12
ENDBRANCH   9  10
ENDBRANCH   6   9
ENDBRANCH   2   3
TORSDOF 8
ENDMDL
MODEL      209
REMARK 921   NORMALIZED FREE ENERGY PREDICTED BY IDOCK:   -4.29 KCAL/MOL
REMARK 922        TOTAL FREE ENERGY PREDICTED BY IDOCK:   -7.79 KCAL/MOL
REMARK 923 INTER-LIGAND FREE ENERGY PREDICTED BY IDOCK:   -6.84 KCAL/MOL
REMARK 924 INTRA-LIGAND FREE ENERGY PREDICTED BY IDOCK:   -0.95 KCAL/MOL
REMARK 927      BINDING AFFINITY PREDICTED BY RF-SCORE:    0.00 PKD
ROOT
HETATM    1  C   UNL     1      -7.586  19.482  68.850  1.00  0.00    -0.348 C  
HETATM    2  O   UNL     1      -8.981  19.266  68.656  1.00  0.00    -0.359 OA 
ENDROOT
BRANCH   2   3
HETATM    3  C   UNL     1      -9.295  18.096  68.023  1.00  0.00    -0.283 A  
HETATM    4  C   UNL     1      -8.364  17.639  67.092  1.00  0.00    -0.233 A  
HETATM    5  C   UNL     1      -8.611  16.476  66.358  1.00  0.00    -0.347 A  
HETATM    6  C   UNL     1      -9.783  15.739  66.573  1.00  0.00    -0.285 A  
HETATM    7  C   UNL     1     -10.445  17.348  68.267  1.00  0.00    -0.385 A  
HETATM    8  C   UNL     1     -10.689  16.179  67.544  1.00  0.00    -0.304 A  
BRANCH   6   9
HETATM    9  C   UNL     1     -10.144  14.560  65.701  1.00  0.00    -0.384 C  
BRANCH   9  10
HETATM   10  C   UNL     1     -11.466  14.678  64.903  1.00  0.00    -0.401 C  
HETATM   11  C   UNL     1     -11.585  16.064  64.261  1.00  0.00    -0.139 C  
BRANCH  10  12
HETATM   12  N   UNL     1     -11.586  13.669  63.829  1.00  0.00    -0.640 NA 
HETATM   13  H   UNL     1     -10.745  13.647  63.253  1.00  0.00     0.000 HD 
BRANCH  12  14
HETATM   14  C   UNL     1     -11.910  12.329  64.336  1.00  0.00    -0.388 C  
BRANCH  14  15
HETATM   15  C   UNL     1     -10.749  11.311  64.192  1.00  0.00    -0.369 C  
HETATM   16  H   UNL     1      -9.060  11.208  63.193  1.00  0.00     0.000 HD 
HETATM   17  O   UNL     1      -9.771  11.831  63.282  1.00  0.00    -0.377 OA 
BRANCH  15  18
HETATM   18  C   UNL     1     -10.103  11.027  65.543  1.00  0.00    -0.316 A  
HETATM   19  C   UNL     1      -8.847  11.575  65.880  1.00  0.00    -0.107 A  
HETATM   20  C   UNL     1      -8.261  11.345  67.130  1.00  0.00    -0.157 A  
HETATM   21  H   UNL     1      -8.904   9.716  69.909  1.00  0.00     0.000 HD 
HETATM   22  C   UNL     1      -8.955  10.558  68.056  1.00  0.00    -0.135 A  
HETATM   23  C   UNL     1     -10.768  10.242  66.492  1.00  0.00    -0.148 A  
HETATM   24  C   UNL     1     -10.200  10.016  67.746  1.00  0.00    -0.235 A  
HETATM   25  O   UNL     1      -8.432  10.250  69.281  1.00  0.00    -0.147 OA 
BRANCH  20  26
HETATM   26  N   UNL     1      -7.022  11.905  67.495  1.00  0.00    -0.111 N  
HETATM   27  H   UNL     1      -6.237  11.258  67.570  1.00  0.00     0.000 HD 
HETATM   28  O   UNL     1      -5.644  13.602  68.102  1.00  0.00    -0.096 OA 
HETATM   29  C   UNL     1      -6.755  13.215  67.758  1.00  0.00    -0.149 C  
ENDBRANCH  20  26
ENDBRANCH  15  18
ENDBRANCH  14  15
ENDBRANCH  12  14
ENDBRANCH  10  12
ENDBRANCH   9  10
ENDBRANCH   6   9
ENDBRANCH   2   3
TORSDOF 8
ENDMDL
MODEL      210
REMARK 921   NORMALIZED FREE ENERGY PREDICTED BY IDOCK:   -4.26 KCAL/MOL
REMARK 922        TOTAL FREE ENERGY PREDICTED BY IDOCK:   -7.74 KCAL/MOL
REMARK 923 INTER-LIGAND FREE ENERGY PREDICTED BY IDOCK:   -7.19 KCAL/MOL
REMARK 924 INTRA-LIGAND FREE ENERGY PREDICTED BY IDOCK:   -0.55 KCAL/MOL
REMARK 927      BINDING AFFINITY PREDICTED BY RF-SCORE:    0.00 PKD
ROOT
HETATM    1  C   UNL     1      -5.753  19.955  71.776  1.00  0.00    -0.353 C  
HETATM    2  O   UNL     1      -5.171  18.890  71.029  1.00  0.00    -0.248 OA 
ENDROOT
BRANCH   2   3
HETATM    3  C   UNL     1      -5.826  18.580  69.870  1.00  0.00    -0.236 A  
HETATM    4  C   UNL     1      -6.500  19.632  69.252  1.00  0.00    -0.365 A  
HETATM    5  C   UNL     1      -7.237  19.411  68.085  1.00  0.00    -0.322 A  
HETATM    6  C   UNL     1      -7.281  18.137  67.507  1.00  0.00    -0.205 A  
HETATM    7  C   UNL     1      -5.836  17.318  69.280  1.00  0.00    -0.203 A  
HETATM    8  C   UNL     1      -6.561  17.097  68.107  1.00  0.00    -0.159 A  
BRANCH   6   9
HETATM    9  C   UNL     1      -8.178  17.835  66.330  1.00  0.00    -0.290 C  
BRANCH   9  10
HETATM   10  C   UNL     1      -9.648  17.480  66.663  1.00  0.00    -0.282 C  
HETATM   11  C   UNL     1     -10.609  18.361  65.858  1.00  0.00    -0.313 C  
BRANCH  10  12
HETATM   12  N   UNL     1      -9.982  16.068  66.378  1.00  0.00    -0.277 NA 
HETATM   13  H   UNL     1     -10.502  15.653  67.151  1.00  0.00     0.000 HD 
BRANCH  12  14
HETATM   14  C   UNL     1     -10.701  15.895  65.109  1.00  0.00    -0.429 C  
BRANCH  14  15
HETATM   15  C   UNL     1     -11.878  14.889  65.191  1.00  0.00    -0.258 C  
HETATM   16  H   UNL     1     -13.200  14.137  63.947  1.00  0.00     0.000 HD 
HETATM   17  O   UNL     1     -12.479  14.753  63.897  1.00  0.00    -0.811 OA 
BRANCH  15  18
HETATM   18  C   UNL     1     -11.398  13.529  65.686  1.00  0.00    -0.312 A  
HETATM   19  C   UNL     1     -10.847  12.582  64.796  1.00  0.00    -0.332 A  
HETATM   20  C   UNL     1     -10.375  11.344  65.247  1.00  0.00    -0.282 A  
HETATM   21  H   UNL     1     -10.108   9.665  68.058  1.00  0.00     0.000 HD 
HETATM   22  C   UNL     1     -10.453  11.061  66.616  1.00  0.00    -0.256 A  
HETATM   23  C   UNL     1     -11.463  13.211  67.048  1.00  0.00    -0.379 A  
HETATM   24  C   UNL     1     -10.984  11.985  67.511  1.00  0.00    -0.303 A  
HETATM   25  O   UNL     1     -10.055   9.858  67.129  1.00  0.00    -0.192 OA 
BRANCH  20  26
HETATM   26  N   UNL     1      -9.798  10.398  64.380  1.00  0.00    -0.328 N  
HETATM   27  H   UNL     1      -9.172   9.715  64.806  1.00  0.00     0.000 HD 
HETATM   28  O   UNL     1      -9.408   9.450  62.356  1.00  0.00    -0.196 OA 
HETATM   29  C   UNL     1      -9.984  10.293  63.034  1.00  0.00     0.139 C  
ENDBRANCH  20  26
ENDBRANCH  15  18
ENDBRANCH  14  15
ENDBRANCH  12  14
ENDBRANCH  10  12
ENDBRANCH   9  10
ENDBRANCH   6   9
ENDBRANCH   2   3
TORSDOF 8
ENDMDL
MODEL      211
REMARK 921   NORMALIZED FREE ENERGY PREDICTED BY IDOCK:   -4.26 KCAL/MOL
REMARK 922        TOTAL FREE ENERGY PREDICTED BY IDOCK:   -7.74 KCAL/MOL
REMARK 923 INTER-LIGAND FREE ENERGY PREDICTED BY IDOCK:   -7.43 KCAL/MOL
REMARK 924 INTRA-LIGAND FREE ENERGY PREDICTED BY IDOCK:   -0.32 KCAL/MOL
REMARK 927      BINDING AFFINITY PREDICTED BY RF-SCORE:    0.00 PKD
ROOT
HETATM    1  C   UNL     1     -10.090   4.288  72.892  1.00  0.00    -0.157 C  
HETATM    2  O   UNL     1     -10.951   5.302  73.401  1.00  0.00    -0.281 OA 
ENDROOT
BRANCH   2   3
HETATM    3  C   UNL     1     -11.031   6.426  72.627  1.00  0.00    -0.253 A  
HETATM    4  C   UNL     1     -12.084   6.461  71.713  1.00  0.00    -0.351 A  
HETATM    5  C   UNL     1     -12.229   7.546  70.844  1.00  0.00    -0.224 A  
HETATM    6  C   UNL     1     -11.337   8.624  70.904  1.00  0.00    -0.314 A  
HETATM    7  C   UNL     1     -10.163   7.512  72.715  1.00  0.00    -0.307 A  
HETATM    8  C   UNL     1     -10.313   8.603  71.857  1.00  0.00    -0.405 A  
BRANCH   6   9
HETATM    9  C   UNL     1     -11.383   9.742  69.889  1.00  0.00    -0.238 C  
BRANCH   9  10
HETATM   10  C   UNL     1     -12.241  10.974  70.265  1.00  0.00    -0.363 C  
HETATM   11  C   UNL     1     -12.967  10.738  71.594  1.00  0.00    -0.581 C  
BRANCH  10  12
HETATM   12  N   UNL     1     -11.447  12.215  70.397  1.00  0.00    -0.417 NA 
HETATM   13  H   UNL     1     -10.779  12.303  69.632  1.00  0.00     0.000 HD 
BRANCH  12  14
HETATM   14  C   UNL     1     -12.282  13.419  70.506  1.00  0.00    -0.352 C  
BRANCH  14  15
HETATM   15  C   UNL     1     -12.328  14.265  69.207  1.00  0.00    -0.162 C  
HETATM   16  H   UNL     1     -11.794  16.077  68.667  1.00  0.00     0.000 HD 
HETATM   17  O   UNL     1     -11.766  15.559  69.463  1.00  0.00    -0.320 OA 
BRANCH  15  18
HETATM   18  C   UNL     1     -11.561  13.578  68.083  1.00  0.00    -0.368 A  
HETATM   19  C   UNL     1     -10.156  13.680  67.990  1.00  0.00    -0.250 A  
HETATM   20  C   UNL     1      -9.441  13.028  66.979  1.00  0.00    -0.237 A  
HETATM   21  H   UNL     1     -10.016  11.097  64.384  1.00  0.00     0.000 HD 
HETATM   22  C   UNL     1     -10.152  12.255  66.054  1.00  0.00    -0.248 A  
HETATM   23  C   UNL     1     -12.240  12.799  67.139  1.00  0.00    -0.058 A  
HETATM   24  C   UNL     1     -11.537  12.133  66.134  1.00  0.00    -0.418 A  
HETATM   25  O   UNL     1      -9.534  11.622  65.012  1.00  0.00    -0.205 OA 
BRANCH  20  26
HETATM   26  N   UNL     1      -8.039  13.096  66.886  1.00  0.00    -0.404 N  
HETATM   27  H   UNL     1      -7.588  12.391  66.303  1.00  0.00     0.000 HD 
HETATM   28  O   UNL     1      -5.996  13.957  67.370  1.00  0.00    -0.351 OA 
HETATM   29  C   UNL     1      -7.216  14.000  67.487  1.00  0.00    -0.165 C  
ENDBRANCH  20  26
ENDBRANCH  15  18
ENDBRANCH  14  15
ENDBRANCH  12  14
ENDBRANCH  10  12
ENDBRANCH   9  10
ENDBRANCH   6   9
ENDBRANCH   2   3
TORSDOF 8
ENDMDL
MODEL      212
REMARK 921   NORMALIZED FREE ENERGY PREDICTED BY IDOCK:   -4.25 KCAL/MOL
REMARK 922        TOTAL FREE ENERGY PREDICTED BY IDOCK:   -7.74 KCAL/MOL
REMARK 923 INTER-LIGAND FREE ENERGY PREDICTED BY IDOCK:   -6.85 KCAL/MOL
REMARK 924 INTRA-LIGAND FREE ENERGY PREDICTED BY IDOCK:   -0.89 KCAL/MOL
REMARK 927      BINDING AFFINITY PREDICTED BY RF-SCORE:    0.00 PKD
ROOT
HETATM    1  C   UNL     1      -9.883  19.052  68.713  1.00  0.00    -0.425 C  
HETATM    2  O   UNL     1      -8.847  18.609  67.841  1.00  0.00    -0.278 OA 
ENDROOT
BRANCH   2   3
HETATM    3  C   UNL     1      -9.179  17.542  67.053  1.00  0.00    -0.248 A  
HETATM    4  C   UNL     1     -10.217  17.756  66.147  1.00  0.00    -0.339 A  
HETATM    5  C   UNL     1     -10.663  16.718  65.326  1.00  0.00    -0.183 A  
HETATM    6  C   UNL     1     -10.051  15.459  65.382  1.00  0.00    -0.394 A  
HETATM    7  C   UNL     1      -8.543  16.304  67.088  1.00  0.00    -0.207 A  
HETATM    8  C   UNL     1      -8.978  15.267  66.260  1.00  0.00    -0.314 A  
BRANCH   6   9
HETATM    9  C   UNL     1     -10.599  14.281  64.612  1.00  0.00    -0.364 C  
BRANCH   9  10
HETATM   10  C   UNL     1     -12.126  14.049  64.709  1.00  0.00    -0.437 C  
HETATM   11  C   UNL     1     -12.531  12.793  63.929  1.00  0.00    -0.454 C  
BRANCH  10  12
HETATM   12  N   UNL     1     -12.601  13.890  66.101  1.00  0.00    -0.432 NA 
HETATM   13  H   UNL     1     -13.620  13.857  66.137  1.00  0.00     0.000 HD 
BRANCH  12  14
HETATM   14  C   UNL     1     -12.013  12.725  66.776  1.00  0.00    -0.319 C  
BRANCH  14  15
HETATM   15  C   UNL     1     -11.332  13.066  68.127  1.00  0.00    -0.294 C  
HETATM   16  H   UNL     1     -11.885  13.839  69.846  1.00  0.00     0.000 HD 
HETATM   17  O   UNL     1     -12.302  13.630  69.019  1.00  0.00    -0.280 OA 
BRANCH  15  18
HETATM   18  C   UNL     1     -10.712  11.822  68.753  1.00  0.00    -0.255 A  
HETATM   19  C   UNL     1      -9.328  11.568  68.653  1.00  0.00    -0.142 A  
HETATM   20  C   UNL     1      -8.746  10.444  69.251  1.00  0.00    -0.150 A  
HETATM   21  H   UNL     1      -9.649   7.834  71.029  1.00  0.00     0.000 HD 
HETATM   22  C   UNL     1      -9.571   9.569  69.967  1.00  0.00    -0.238 A  
HETATM   23  C   UNL     1     -11.509  10.924  69.474  1.00  0.00    -0.372 A  
HETATM   24  C   UNL     1     -10.938   9.808  70.086  1.00  0.00    -0.339 A  
HETATM   25  O   UNL     1      -9.089   8.428  70.543  1.00  0.00    -0.142 OA 
BRANCH  20  26
HETATM   26  N   UNL     1      -7.364  10.188  69.185  1.00  0.00    -0.081 N  
HETATM   27  H   UNL     1      -7.006   9.861  68.288  1.00  0.00     0.000 HD 
HETATM   28  O   UNL     1      -5.267  10.046  70.040  1.00  0.00    -0.036 OA 
HETATM   29  C   UNL     1      -6.451  10.328  70.187  1.00  0.00    -0.128 C  
ENDBRANCH  20  26
ENDBRANCH  15  18
ENDBRANCH  14  15
ENDBRANCH  12  14
ENDBRANCH  10  12
ENDBRANCH   9  10
ENDBRANCH   6   9
ENDBRANCH   2   3
TORSDOF 8
ENDMDL
MODEL      213
REMARK 921   NORMALIZED FREE ENERGY PREDICTED BY IDOCK:   -4.25 KCAL/MOL
REMARK 922        TOTAL FREE ENERGY PREDICTED BY IDOCK:   -7.73 KCAL/MOL
REMARK 923 INTER-LIGAND FREE ENERGY PREDICTED BY IDOCK:   -6.74 KCAL/MOL
REMARK 924 INTRA-LIGAND FREE ENERGY PREDICTED BY IDOCK:   -0.99 KCAL/MOL
REMARK 927      BINDING AFFINITY PREDICTED BY RF-SCORE:    0.00 PKD
ROOT
HETATM    1  C   UNL     1      -6.633   7.724  62.800  1.00  0.00    -0.076 C  
HETATM    2  O   UNL     1      -7.540   8.814  62.943  1.00  0.00    -0.103 OA 
ENDROOT
BRANCH   2   3
HETATM    3  C   UNL     1      -8.249   8.817  64.112  1.00  0.00    -0.162 A  
HETATM    4  C   UNL     1      -9.172   9.852  64.261  1.00  0.00    -0.317 A  
HETATM    5  C   UNL     1      -9.916   9.972  65.437  1.00  0.00    -0.364 A  
HETATM    6  C   UNL     1      -9.766   9.035  66.468  1.00  0.00    -0.311 A  
HETATM    7  C   UNL     1      -8.122   7.863  65.118  1.00  0.00    -0.144 A  
HETATM    8  C   UNL     1      -8.873   7.972  66.290  1.00  0.00    -0.191 A  
BRANCH   6   9
HETATM    9  C   UNL     1     -10.449   9.215  67.802  1.00  0.00    -0.306 C  
BRANCH   9  10
HETATM   10  C   UNL     1      -9.610   9.889  68.916  1.00  0.00    -0.172 C  
HETATM   11  C   UNL     1      -8.380  10.581  68.318  1.00  0.00    -0.122 C  
BRANCH  10  12
HETATM   12  N   UNL     1     -10.370  10.900  69.682  1.00  0.00    -0.444 NA 
HETATM   13  H   UNL     1      -9.905  11.807  69.650  1.00  0.00     0.000 HD 
BRANCH  12  14
HETATM   14  C   UNL     1     -11.770  11.012  69.250  1.00  0.00    -0.326 C  
BRANCH  14  15
HETATM   15  C   UNL     1     -12.405  12.396  69.547  1.00  0.00     0.059 C  
HETATM   16  H   UNL     1     -12.539  13.600  71.094  1.00  0.00     0.000 HD 
HETATM   17  O   UNL     1     -12.149  12.752  70.912  1.00  0.00    -0.283 OA 
BRANCH  15  18
HETATM   18  C   UNL     1     -11.842  13.464  68.617  1.00  0.00    -0.397 A  
HETATM   19  C   UNL     1     -11.742  13.242  67.226  1.00  0.00    -0.424 A  
HETATM   20  C   UNL     1     -11.256  14.228  66.362  1.00  0.00    -0.337 A  
HETATM   21  H   UNL     1     -10.086  17.294  66.504  1.00  0.00     0.000 HD 
HETATM   22  C   UNL     1     -10.872  15.460  66.906  1.00  0.00    -0.313 A  
HETATM   23  C   UNL     1     -11.446  14.706  69.127  1.00  0.00    -0.320 A  
HETATM   24  C   UNL     1     -10.972  15.702  68.273  1.00  0.00    -0.315 A  
HETATM   25  O   UNL     1     -10.346  16.459  66.135  1.00  0.00    -0.321 OA 
BRANCH  20  26
HETATM   26  N   UNL     1     -11.174  14.035  64.970  1.00  0.00    -0.336 N  
HETATM   27  H   UNL     1     -10.552  14.663  64.461  1.00  0.00     0.000 HD 
HETATM   28  O   UNL     1     -11.720  13.034  63.009  1.00  0.00    -0.312 OA 
HETATM   29  C   UNL     1     -11.833  13.102  64.228  1.00  0.00    -0.406 C  
ENDBRANCH  20  26
ENDBRANCH  15  18
ENDBRANCH  14  15
ENDBRANCH  12  14
ENDBRANCH  10  12
ENDBRANCH   9  10
ENDBRANCH   6   9
ENDBRANCH   2   3
TORSDOF 8
ENDMDL
MODEL      214
REMARK 921   NORMALIZED FREE ENERGY PREDICTED BY IDOCK:   -4.25 KCAL/MOL
REMARK 922        TOTAL FREE ENERGY PREDICTED BY IDOCK:   -7.72 KCAL/MOL
REMARK 923 INTER-LIGAND FREE ENERGY PREDICTED BY IDOCK:   -6.16 KCAL/MOL
REMARK 924 INTRA-LIGAND FREE ENERGY PREDICTED BY IDOCK:   -1.56 KCAL/MOL
REMARK 927      BINDING AFFINITY PREDICTED BY RF-SCORE:    0.00 PKD
ROOT
HETATM    1  C   UNL     1     -11.243  15.347  69.153  1.00  0.00    -0.287 C  
HETATM    2  O   UNL     1     -10.385  15.888  68.152  1.00  0.00    -0.244 OA 
ENDROOT
BRANCH   2   3
HETATM    3  C   UNL     1      -9.186  15.245  68.017  1.00  0.00    -0.188 A  
HETATM    4  C   UNL     1      -9.174  13.898  68.378  1.00  0.00    -0.194 A  
HETATM    5  C   UNL     1      -7.989  13.162  68.319  1.00  0.00    -0.148 A  
HETATM    6  C   UNL     1      -6.806  13.760  67.866  1.00  0.00    -0.159 A  
HETATM    7  C   UNL     1      -8.022  15.836  67.533  1.00  0.00    -0.171 A  
HETATM    8  C   UNL     1      -6.838  15.099  67.460  1.00  0.00    -0.203 A  
BRANCH   6   9
HETATM    9  C   UNL     1      -5.483  13.034  67.923  1.00  0.00    -0.116 C  
BRANCH   9  10
HETATM   10  C   UNL     1      -5.427  11.656  67.219  1.00  0.00    -0.090 C  
HETATM   11  C   UNL     1      -5.930  10.553  68.157  1.00  0.00    -0.043 C  
BRANCH  10  12
HETATM   12  N   UNL     1      -6.236  11.604  65.983  1.00  0.00    -0.440 NA 
HETATM   13  H   UNL     1      -5.733  12.020  65.200  1.00  0.00     0.000 HD 
BRANCH  12  14
HETATM   14  C   UNL     1      -6.690  10.246  65.654  1.00  0.00    -0.122 C  
BRANCH  14  15
HETATM   15  C   UNL     1      -8.046  10.207  64.902  1.00  0.00    -0.153 C  
HETATM   16  H   UNL     1      -9.035   8.905  63.813  1.00  0.00     0.000 HD 
HETATM   17  O   UNL     1      -8.205   8.928  64.274  1.00  0.00    -0.154 OA 
BRANCH  15  18
HETATM   18  C   UNL     1      -9.205  10.465  65.857  1.00  0.00    -0.205 A  
HETATM   19  C   UNL     1     -10.072  11.564  65.674  1.00  0.00    -0.278 A  
HETATM   20  C   UNL     1     -11.157  11.789  66.528  1.00  0.00    -0.310 A  
HETATM   21  H   UNL     1     -12.536  10.452  69.193  1.00  0.00     0.000 HD 
HETATM   22  C   UNL     1     -11.376  10.889  67.577  1.00  0.00    -0.232 A  
HETATM   23  C   UNL     1      -9.453   9.586  66.919  1.00  0.00    -0.204 A  
HETATM   24  C   UNL     1     -10.540   9.793  67.769  1.00  0.00    -0.320 A  
HETATM   25  O   UNL     1     -12.387  11.063  68.481  1.00  0.00    -0.536 OA 
BRANCH  20  26
HETATM   26  N   UNL     1     -12.047  12.864  66.346  1.00  0.00    -0.383 N  
HETATM   27  H   UNL     1     -12.664  13.080  67.128  1.00  0.00     0.000 HD 
HETATM   28  O   UNL     1     -13.008  14.545  65.163  1.00  0.00    -0.543 OA 
HETATM   29  C   UNL     1     -12.176  13.649  65.239  1.00  0.00    -0.439 C  
ENDBRANCH  20  26
ENDBRANCH  15  18
ENDBRANCH  14  15
ENDBRANCH  12  14
ENDBRANCH  10  12
ENDBRANCH   9  10
ENDBRANCH   6   9
ENDBRANCH   2   3
TORSDOF 8
ENDMDL
MODEL      215
REMARK 921   NORMALIZED FREE ENERGY PREDICTED BY IDOCK:   -4.24 KCAL/MOL
REMARK 922        TOTAL FREE ENERGY PREDICTED BY IDOCK:   -7.71 KCAL/MOL
REMARK 923 INTER-LIGAND FREE ENERGY PREDICTED BY IDOCK:   -6.98 KCAL/MOL
REMARK 924 INTRA-LIGAND FREE ENERGY PREDICTED BY IDOCK:   -0.73 KCAL/MOL
REMARK 927      BINDING AFFINITY PREDICTED BY RF-SCORE:    0.00 PKD
ROOT
HETATM    1  C   UNL     1      -8.236   6.033  74.260  1.00  0.00    -0.108 C  
HETATM    2  O   UNL     1      -8.387   5.721  72.878  1.00  0.00    -0.118 OA 
ENDROOT
BRANCH   2   3
HETATM    3  C   UNL     1      -9.106   6.636  72.160  1.00  0.00    -0.138 A  
HETATM    4  C   UNL     1      -9.234   6.374  70.796  1.00  0.00    -0.161 A  
HETATM    5  C   UNL     1      -9.912   7.269  69.966  1.00  0.00    -0.184 A  
HETATM    6  C   UNL     1     -10.498   8.424  70.499  1.00  0.00    -0.227 A  
HETATM    7  C   UNL     1      -9.718   7.763  72.702  1.00  0.00    -0.278 A  
HETATM    8  C   UNL     1     -10.407   8.654  71.877  1.00  0.00    -0.405 A  
BRANCH   6   9
HETATM    9  C   UNL     1     -11.115   9.478  69.611  1.00  0.00    -0.196 C  
BRANCH   9  10
HETATM   10  C   UNL     1     -10.148  10.545  69.041  1.00  0.00    -0.217 C  
HETATM   11  C   UNL     1     -10.060  10.431  67.516  1.00  0.00    -0.231 C  
BRANCH  10  12
HETATM   12  N   UNL     1     -10.553  11.929  69.370  1.00  0.00    -0.444 NA 
HETATM   13  H   UNL     1      -9.968  12.606  68.880  1.00  0.00     0.000 HD 
BRANCH  12  14
HETATM   14  C   UNL     1     -11.976  12.183  69.115  1.00  0.00    -0.255 C  
BRANCH  14  15
HETATM   15  C   UNL     1     -12.401  13.654  69.367  1.00  0.00    -0.153 C  
HETATM   16  H   UNL     1     -12.305  14.929  70.859  1.00  0.00     0.000 HD 
HETATM   17  O   UNL     1     -12.045  14.029  70.704  1.00  0.00    -0.326 OA 
BRANCH  15  18
HETATM   18  C   UNL     1     -11.734  14.592  68.369  1.00  0.00    -0.367 A  
HETATM   19  C   UNL     1     -11.075  15.765  68.797  1.00  0.00    -0.321 A  
HETATM   20  C   UNL     1     -10.433  16.615  67.890  1.00  0.00    -0.322 A  
HETATM   21  H   UNL     1      -9.892  16.842  64.658  1.00  0.00     0.000 HD 
HETATM   22  C   UNL     1     -10.448  16.274  66.533  1.00  0.00    -0.290 A  
HETATM   23  C   UNL     1     -11.732  14.283  67.003  1.00  0.00    -0.427 A  
HETATM   24  C   UNL     1     -11.083  15.117  66.091  1.00  0.00    -0.311 A  
HETATM   25  O   UNL     1      -9.883  17.073  65.579  1.00  0.00    -0.551 OA 
BRANCH  20  26
HETATM   26  N   UNL     1      -9.749  17.774  68.301  1.00  0.00    -0.304 N  
HETATM   27  H   UNL     1      -8.743  17.683  68.435  1.00  0.00     0.000 HD 
HETATM   28  O   UNL     1      -9.606  19.950  68.928  1.00  0.00    -0.297 OA 
HETATM   29  C   UNL     1     -10.283  19.005  68.540  1.00  0.00    -0.351 C  
ENDBRANCH  20  26
ENDBRANCH  15  18
ENDBRANCH  14  15
ENDBRANCH  12  14
ENDBRANCH  10  12
ENDBRANCH   9  10
ENDBRANCH   6   9
ENDBRANCH   2   3
TORSDOF 8
ENDMDL
MODEL      216
REMARK 921   NORMALIZED FREE ENERGY PREDICTED BY IDOCK:   -4.24 KCAL/MOL
REMARK 922        TOTAL FREE ENERGY PREDICTED BY IDOCK:   -7.71 KCAL/MOL
REMARK 923 INTER-LIGAND FREE ENERGY PREDICTED BY IDOCK:   -7.31 KCAL/MOL
REMARK 924 INTRA-LIGAND FREE ENERGY PREDICTED BY IDOCK:   -0.40 KCAL/MOL
REMARK 927      BINDING AFFINITY PREDICTED BY RF-SCORE:    0.00 PKD
ROOT
HETATM    1  C   UNL     1     -10.033   3.964  65.466  1.00  0.00    -0.120 C  
HETATM    2  O   UNL     1      -8.996   4.646  66.164  1.00  0.00    -0.116 OA 
ENDROOT
BRANCH   2   3
HETATM    3  C   UNL     1      -9.152   6.002  66.238  1.00  0.00    -0.150 A  
HETATM    4  C   UNL     1     -10.302   6.447  66.888  1.00  0.00    -0.306 A  
HETATM    5  C   UNL     1     -10.579   7.814  66.979  1.00  0.00    -0.396 A  
HETATM    6  C   UNL     1      -9.686   8.753  66.446  1.00  0.00    -0.335 A  
HETATM    7  C   UNL     1      -8.243   6.932  65.738  1.00  0.00    -0.132 A  
HETATM    8  C   UNL     1      -8.510   8.299  65.839  1.00  0.00    -0.151 A  
BRANCH   6   9
HETATM    9  C   UNL     1     -10.022  10.225  66.404  1.00  0.00    -0.287 C  
BRANCH   9  10
HETATM   10  C   UNL     1      -9.356  11.047  65.274  1.00  0.00    -0.216 C  
HETATM   11  C   UNL     1     -10.150  10.911  63.970  1.00  0.00    -0.419 C  
BRANCH  10  12
HETATM   12  N   UNL     1      -9.250  12.488  65.591  1.00  0.00    -0.430 NA 
HETATM   13  H   UNL     1      -8.427  12.898  65.149  1.00  0.00     0.000 HD 
BRANCH  12  14
HETATM   14  C   UNL     1     -10.463  13.240  65.245  1.00  0.00    -0.313 C  
BRANCH  14  15
HETATM   15  C   UNL     1     -10.530  14.647  65.894  1.00  0.00    -0.314 C  
HETATM   16  H   UNL     1     -11.490  16.328  65.557  1.00  0.00     0.000 HD 
HETATM   17  O   UNL     1     -11.450  15.466  65.160  1.00  0.00    -0.302 OA 
BRANCH  15  18
HETATM   18  C   UNL     1     -10.966  14.554  67.351  1.00  0.00    -0.306 A  
HETATM   19  C   UNL     1     -10.922  13.328  68.049  1.00  0.00    -0.266 A  
HETATM   20  C   UNL     1     -11.292  13.239  69.395  1.00  0.00    -0.219 A  
HETATM   21  H   UNL     1     -12.402  15.187  71.796  1.00  0.00     0.000 HD 
HETATM   22  C   UNL     1     -11.704  14.406  70.050  1.00  0.00    -0.298 A  
HETATM   23  C   UNL     1     -11.387  15.700  68.036  1.00  0.00    -0.324 A  
HETATM   24  C   UNL     1     -11.745  15.627  69.383  1.00  0.00    -0.395 A  
HETATM   25  O   UNL     1     -12.123  14.396  71.351  1.00  0.00    -0.344 OA 
BRANCH  20  26
HETATM   26  N   UNL     1     -11.229  12.031  70.115  1.00  0.00    -0.430 N  
HETATM   27  H   UNL     1     -10.305  11.616  70.224  1.00  0.00     0.000 HD 
HETATM   28  O   UNL     1     -12.116  10.288  71.265  1.00  0.00    -0.355 OA 
HETATM   29  C   UNL     1     -12.268  11.356  70.683  1.00  0.00    -0.389 C  
ENDBRANCH  20  26
ENDBRANCH  15  18
ENDBRANCH  14  15
ENDBRANCH  12  14
ENDBRANCH  10  12
ENDBRANCH   9  10
ENDBRANCH   6   9
ENDBRANCH   2   3
TORSDOF 8
ENDMDL
MODEL      217
REMARK 921   NORMALIZED FREE ENERGY PREDICTED BY IDOCK:   -4.23 KCAL/MOL
REMARK 922        TOTAL FREE ENERGY PREDICTED BY IDOCK:   -7.71 KCAL/MOL
REMARK 923 INTER-LIGAND FREE ENERGY PREDICTED BY IDOCK:   -7.20 KCAL/MOL
REMARK 924 INTRA-LIGAND FREE ENERGY PREDICTED BY IDOCK:   -0.51 KCAL/MOL
REMARK 927      BINDING AFFINITY PREDICTED BY RF-SCORE:    0.00 PKD
ROOT
HETATM    1  C   UNL     1      -5.501  19.879  66.236  1.00  0.00    -0.170 C  
HETATM    2  O   UNL     1      -6.195  19.639  67.457  1.00  0.00    -0.193 OA 
ENDROOT
BRANCH   2   3
HETATM    3  C   UNL     1      -6.911  18.474  67.488  1.00  0.00    -0.204 A  
HETATM    4  C   UNL     1      -7.200  17.904  66.249  1.00  0.00    -0.324 A  
HETATM    5  C   UNL     1      -7.964  16.737  66.169  1.00  0.00    -0.273 A  
HETATM    6  C   UNL     1      -8.420  16.108  67.335  1.00  0.00    -0.188 A  
HETATM    7  C   UNL     1      -7.330  17.834  68.652  1.00  0.00    -0.269 A  
HETATM    8  C   UNL     1      -8.082  16.660  68.576  1.00  0.00    -0.226 A  
BRANCH   6   9
HETATM    9  C   UNL     1      -9.361  14.929  67.279  1.00  0.00    -0.210 C  
BRANCH   9  10
HETATM   10  C   UNL     1      -8.703  13.528  67.250  1.00  0.00    -0.225 C  
HETATM   11  C   UNL     1      -7.247  13.608  67.723  1.00  0.00    -0.169 C  
BRANCH  10  12
HETATM   12  N   UNL     1      -9.402  12.541  68.101  1.00  0.00    -0.207 NA 
HETATM   13  H   UNL     1      -8.774  12.161  68.809  1.00  0.00     0.000 HD 
BRANCH  12  14
HETATM   14  C   UNL     1     -10.622  13.080  68.716  1.00  0.00    -0.193 C  
BRANCH  14  15
HETATM   15  C   UNL     1     -11.871  12.183  68.512  1.00  0.00    -0.310 C  
HETATM   16  H   UNL     1     -12.558  10.996  67.104  1.00  0.00     0.000 HD 
HETATM   17  O   UNL     1     -11.793  11.545  67.230  1.00  0.00    -0.609 OA 
BRANCH  15  18
HETATM   18  C   UNL     1     -11.972  11.132  69.610  1.00  0.00    -0.429 A  
HETATM   19  C   UNL     1     -11.348   9.873  69.474  1.00  0.00    -0.172 A  
HETATM   20  C   UNL     1     -11.410   8.913  70.491  1.00  0.00    -0.234 A  
HETATM   21  H   UNL     1     -12.717   8.549  73.483  1.00  0.00     0.000 HD 
HETATM   22  C   UNL     1     -12.103   9.231  71.665  1.00  0.00    -0.379 A  
HETATM   23  C   UNL     1     -12.660  11.415  70.796  1.00  0.00    -0.409 A  
HETATM   24  C   UNL     1     -12.717  10.470  71.822  1.00  0.00    -0.508 A  
HETATM   25  O   UNL     1     -12.247   8.334  72.686  1.00  0.00    -0.364 OA 
BRANCH  20  26
HETATM   26  N   UNL     1     -10.772   7.663  70.385  1.00  0.00    -0.232 N  
HETATM   27  H   UNL     1      -9.804   7.620  70.703  1.00  0.00     0.000 HD 
HETATM   28  O   UNL     1     -10.655   5.468  69.823  1.00  0.00    -0.297 OA 
HETATM   29  C   UNL     1     -11.305   6.504  69.906  1.00  0.00    -0.406 C  
ENDBRANCH  20  26
ENDBRANCH  15  18
ENDBRANCH  14  15
ENDBRANCH  12  14
ENDBRANCH  10  12
ENDBRANCH   9  10
ENDBRANCH   6   9
ENDBRANCH   2   3
TORSDOF 8
ENDMDL
MODEL      218
REMARK 921   NORMALIZED FREE ENERGY PREDICTED BY IDOCK:   -4.23 KCAL/MOL
REMARK 922        TOTAL FREE ENERGY PREDICTED BY IDOCK:   -7.70 KCAL/MOL
REMARK 923 INTER-LIGAND FREE ENERGY PREDICTED BY IDOCK:   -7.20 KCAL/MOL
REMARK 924 INTRA-LIGAND FREE ENERGY PREDICTED BY IDOCK:   -0.49 KCAL/MOL
REMARK 927      BINDING AFFINITY PREDICTED BY RF-SCORE:    0.00 PKD
ROOT
HETATM    1  C   UNL     1     -10.530  20.017  66.126  1.00  0.00    -0.415 C  
HETATM    2  O   UNL     1      -9.414  19.287  66.627  1.00  0.00    -0.313 OA 
ENDROOT
BRANCH   2   3
HETATM    3  C   UNL     1      -9.465  17.939  66.402  1.00  0.00    -0.267 A  
HETATM    4  C   UNL     1     -10.704  17.434  66.010  1.00  0.00    -0.122 A  
HETATM    5  C   UNL     1     -10.873  16.064  65.798  1.00  0.00    -0.236 A  
HETATM    6  C   UNL     1      -9.791  15.186  65.945  1.00  0.00    -0.372 A  
HETATM    7  C   UNL     1      -8.377  17.077  66.514  1.00  0.00    -0.313 A  
HETATM    8  C   UNL     1      -8.539  15.708  66.290  1.00  0.00    -0.265 A  
BRANCH   6   9
HETATM    9  C   UNL     1      -9.972  13.689  65.860  1.00  0.00    -0.304 C  
BRANCH   9  10
HETATM   10  C   UNL     1     -11.263  13.118  66.497  1.00  0.00    -0.310 C  
HETATM   11  C   UNL     1     -12.273  12.732  65.410  1.00  0.00    -0.532 C  
BRANCH  10  12
HETATM   12  N   UNL     1     -11.017  11.923  67.332  1.00  0.00    -0.248 NA 
HETATM   13  H   UNL     1     -11.828  11.304  67.329  1.00  0.00     0.000 HD 
BRANCH  12  14
HETATM   14  C   UNL     1      -9.800  11.197  66.948  1.00  0.00    -0.194 C  
BRANCH  14  15
HETATM   15  C   UNL     1     -10.077   9.868  66.200  1.00  0.00    -0.245 C  
HETATM   16  H   UNL     1      -9.136   8.748  64.887  1.00  0.00     0.000 HD 
HETATM   17  O   UNL     1      -8.966   9.563  65.346  1.00  0.00    -0.173 OA 
BRANCH  15  18
HETATM   18  C   UNL     1     -10.304   8.726  67.184  1.00  0.00    -0.364 A  
HETATM   19  C   UNL     1     -10.318   8.956  68.577  1.00  0.00    -0.229 A  
HETATM   20  C   UNL     1     -10.556   7.919  69.486  1.00  0.00    -0.219 A  
HETATM   21  H   UNL     1     -11.152   4.688  69.464  1.00  0.00     0.000 HD 
HETATM   22  C   UNL     1     -10.793   6.634  68.983  1.00  0.00    -0.277 A  
HETATM   23  C   UNL     1     -10.542   7.428  66.716  1.00  0.00    -0.281 A  
HETATM   24  C   UNL     1     -10.794   6.389  67.613  1.00  0.00    -0.425 A  
HETATM   25  O   UNL     1     -10.991   5.560  69.805  1.00  0.00    -0.310 OA 
BRANCH  20  26
HETATM   26  N   UNL     1     -10.600   8.133  70.876  1.00  0.00    -0.207 N  
HETATM   27  H   UNL     1      -9.702   8.223  71.349  1.00  0.00     0.000 HD 
HETATM   28  O   UNL     1     -11.645   8.387  72.874  1.00  0.00    -0.294 OA 
HETATM   29  C   UNL     1     -11.711   8.232  71.660  1.00  0.00    -0.292 C  
ENDBRANCH  20  26
ENDBRANCH  15  18
ENDBRANCH  14  15
ENDBRANCH  12  14
ENDBRANCH  10  12
ENDBRANCH   9  10
ENDBRANCH   6   9
ENDBRANCH   2   3
TORSDOF 8
ENDMDL
MODEL      219
REMARK 921   NORMALIZED FREE ENERGY PREDICTED BY IDOCK:   -4.23 KCAL/MOL
REMARK 922        TOTAL FREE ENERGY PREDICTED BY IDOCK:   -7.69 KCAL/MOL
REMARK 923 INTER-LIGAND FREE ENERGY PREDICTED BY IDOCK:   -6.68 KCAL/MOL
REMARK 924 INTRA-LIGAND FREE ENERGY PREDICTED BY IDOCK:   -1.01 KCAL/MOL
REMARK 927      BINDING AFFINITY PREDICTED BY RF-SCORE:    0.00 PKD
ROOT
HETATM    1  C   UNL     1      -9.259   7.046  72.692  1.00  0.00    -0.134 C  
HETATM    2  O   UNL     1     -10.141   6.329  71.833  1.00  0.00    -0.180 OA 
ENDROOT
BRANCH   2   3
HETATM    3  C   UNL     1     -10.253   6.842  70.571  1.00  0.00    -0.192 A  
HETATM    4  C   UNL     1      -9.658   8.087  70.365  1.00  0.00    -0.174 A  
HETATM    5  C   UNL     1      -9.753   8.719  69.123  1.00  0.00    -0.175 A  
HETATM    6  C   UNL     1     -10.420   8.095  68.061  1.00  0.00    -0.242 A  
HETATM    7  C   UNL     1     -10.885   6.201  69.508  1.00  0.00    -0.428 A  
HETATM    8  C   UNL     1     -10.971   6.824  68.262  1.00  0.00    -0.270 A  
BRANCH   6   9
HETATM    9  C   UNL     1     -10.660   8.809  66.752  1.00  0.00    -0.220 C  
BRANCH   9  10
HETATM   10  C   UNL     1      -9.399   9.214  65.951  1.00  0.00    -0.243 C  
HETATM   11  C   UNL     1      -8.433   8.030  65.834  1.00  0.00    -0.154 C  
BRANCH  10  12
HETATM   12  N   UNL     1      -9.707   9.682  64.582  1.00  0.00    -0.415 NA 
HETATM   13  H   UNL     1     -10.707   9.618  64.392  1.00  0.00     0.000 HD 
BRANCH  12  14
HETATM   14  C   UNL     1      -9.209  11.038  64.317  1.00  0.00    -0.152 C  
BRANCH  14  15
HETATM   15  C   UNL     1     -10.326  12.056  63.967  1.00  0.00    -0.373 C  
HETATM   16  H   UNL     1     -12.189  11.970  63.349  1.00  0.00     0.000 HD 
HETATM   17  O   UNL     1     -11.505  11.347  63.564  1.00  0.00    -0.355 OA 
BRANCH  15  18
HETATM   18  C   UNL     1     -10.640  12.950  65.160  1.00  0.00    -0.321 A  
HETATM   19  C   UNL     1     -10.766  12.415  66.460  1.00  0.00    -0.265 A  
HETATM   20  C   UNL     1     -11.023  13.234  67.565  1.00  0.00    -0.263 A  
HETATM   21  H   UNL     1     -11.527  16.410  68.236  1.00  0.00     0.000 HD 
HETATM   22  C   UNL     1     -11.147  14.613  67.357  1.00  0.00    -0.326 A  
HETATM   23  C   UNL     1     -10.773  14.334  64.988  1.00  0.00    -0.435 A  
HETATM   24  C   UNL     1     -11.017  15.161  66.085  1.00  0.00    -0.331 A  
HETATM   25  O   UNL     1     -11.442  15.474  68.377  1.00  0.00    -0.337 OA 
BRANCH  20  26
HETATM   26  N   UNL     1     -11.125  12.723  68.872  1.00  0.00    -0.261 N  
HETATM   27  H   UNL     1     -10.304  12.830  69.467  1.00  0.00     0.000 HD 
HETATM   28  O   UNL     1     -12.181  11.658  70.575  1.00  0.00    -0.356 OA 
HETATM   29  C   UNL     1     -12.201  12.101  69.432  1.00  0.00    -0.079 C  
ENDBRANCH  20  26
ENDBRANCH  15  18
ENDBRANCH  14  15
ENDBRANCH  12  14
ENDBRANCH  10  12
ENDBRANCH   9  10
ENDBRANCH   6   9
ENDBRANCH   2   3
TORSDOF 8
ENDMDL
MODEL      220
REMARK 921   NORMALIZED FREE ENERGY PREDICTED BY IDOCK:   -4.22 KCAL/MOL
REMARK 922        TOTAL FREE ENERGY PREDICTED BY IDOCK:   -7.69 KCAL/MOL
REMARK 923 INTER-LIGAND FREE ENERGY PREDICTED BY IDOCK:   -6.24 KCAL/MOL
REMARK 924 INTRA-LIGAND FREE ENERGY PREDICTED BY IDOCK:   -1.44 KCAL/MOL
REMARK 927      BINDING AFFINITY PREDICTED BY RF-SCORE:    0.00 PKD
ROOT
HETATM    1  C   UNL     1      -8.119   9.691  63.526  1.00  0.00    -0.149 C  
HETATM    2  O   UNL     1      -9.099  10.153  64.451  1.00  0.00    -0.203 OA 
ENDROOT
BRANCH   2   3
HETATM    3  C   UNL     1      -9.044   9.564  65.684  1.00  0.00    -0.201 A  
HETATM    4  C   UNL     1      -7.853   9.738  66.389  1.00  0.00    -0.106 A  
HETATM    5  C   UNL     1      -7.679   9.140  67.639  1.00  0.00    -0.089 A  
HETATM    6  C   UNL     1      -8.710   8.385  68.213  1.00  0.00    -0.143 A  
HETATM    7  C   UNL     1     -10.085   8.845  66.265  1.00  0.00    -0.284 A  
HETATM    8  C   UNL     1      -9.919   8.257  67.520  1.00  0.00    -0.252 A  
BRANCH   6   9
HETATM    9  C   UNL     1      -8.503   7.613  69.494  1.00  0.00    -0.132 C  
BRANCH   9  10
HETATM   10  C   UNL     1      -8.776   6.090  69.427  1.00  0.00    -0.121 C  
HETATM   11  C   UNL     1      -7.459   5.307  69.428  1.00  0.00    -0.065 C  
BRANCH  10  12
HETATM   12  N   UNL     1      -9.596   5.599  70.555  1.00  0.00    -0.169 NA 
HETATM   13  H   UNL     1      -9.064   4.953  71.138  1.00  0.00     0.000 HD 
BRANCH  12  14
HETATM   14  C   UNL     1     -10.168   6.684  71.362  1.00  0.00    -0.199 C  
BRANCH  14  15
HETATM   15  C   UNL     1     -11.705   6.831  71.210  1.00  0.00    -0.336 C  
HETATM   16  H   UNL     1     -13.300   6.103  72.095  1.00  0.00     0.000 HD 
HETATM   17  O   UNL     1     -12.359   6.013  72.189  1.00  0.00    -0.254 OA 
BRANCH  15  18
HETATM   18  C   UNL     1     -12.132   8.284  71.377  1.00  0.00    -0.331 A  
HETATM   19  C   UNL     1     -11.499   9.319  70.654  1.00  0.00    -0.327 A  
HETATM   20  C   UNL     1     -11.906  10.651  70.779  1.00  0.00    -0.357 A  
HETATM   21  H   UNL     1     -14.123  12.425  72.432  1.00  0.00     0.000 HD 
HETATM   22  C   UNL     1     -12.971  10.945  71.638  1.00  0.00    -0.464 A  
HETATM   23  C   UNL     1     -13.192   8.614  72.230  1.00  0.00    -0.410 A  
HETATM   24  C   UNL     1     -13.615   9.938  72.352  1.00  0.00    -0.258 A  
HETATM   25  O   UNL     1     -13.400  12.226  71.849  1.00  0.00    -0.463 OA 
BRANCH  20  26
HETATM   26  N   UNL     1     -11.305  11.693  70.047  1.00  0.00    -0.499 N  
HETATM   27  H   UNL     1     -11.339  12.621  70.468  1.00  0.00     0.000 HD 
HETATM   28  O   UNL     1     -10.218  12.575  68.261  1.00  0.00    -0.224 OA 
HETATM   29  C   UNL     1     -10.684  11.598  68.838  1.00  0.00    -0.207 C  
ENDBRANCH  20  26
ENDBRANCH  15  18
ENDBRANCH  14  15
ENDBRANCH  12  14
ENDBRANCH  10  12
ENDBRANCH   9  10
ENDBRANCH   6   9
ENDBRANCH   2   3
TORSDOF 8
ENDMDL
MODEL      221
REMARK 921   NORMALIZED FREE ENERGY PREDICTED BY IDOCK:   -4.20 KCAL/MOL
REMARK 922        TOTAL FREE ENERGY PREDICTED BY IDOCK:   -7.66 KCAL/MOL
REMARK 923 INTER-LIGAND FREE ENERGY PREDICTED BY IDOCK:   -6.99 KCAL/MOL
REMARK 924 INTRA-LIGAND FREE ENERGY PREDICTED BY IDOCK:   -0.67 KCAL/MOL
REMARK 927      BINDING AFFINITY PREDICTED BY RF-SCORE:    0.00 PKD
ROOT
HETATM    1  C   UNL     1     -10.541  19.301  66.328  1.00  0.00    -0.454 C  
HETATM    2  O   UNL     1     -10.428  18.231  65.395  1.00  0.00    -0.571 OA 
ENDROOT
BRANCH   2   3
HETATM    3  C   UNL     1     -10.758  17.001  65.892  1.00  0.00    -0.139 A  
HETATM    4  C   UNL     1     -11.066  16.025  64.946  1.00  0.00    -0.381 A  
HETATM    5  C   UNL     1     -11.459  14.747  65.352  1.00  0.00    -0.341 A  
HETATM    6  C   UNL     1     -11.517  14.423  66.713  1.00  0.00    -0.381 A  
HETATM    7  C   UNL     1     -10.778  16.675  67.246  1.00  0.00    -0.227 A  
HETATM    8  C   UNL     1     -11.158  15.395  67.655  1.00  0.00    -0.316 A  
BRANCH   6   9
HETATM    9  C   UNL     1     -12.070  13.100  67.187  1.00  0.00    -0.343 C  
BRANCH   9  10
HETATM   10  C   UNL     1     -11.247  11.842  66.817  1.00  0.00    -0.328 C  
HETATM   11  C   UNL     1      -9.771  12.039  67.178  1.00  0.00    -0.203 C  
BRANCH  10  12
HETATM   12  N   UNL     1     -11.721  10.618  67.499  1.00  0.00    -0.535 NA 
HETATM   13  H   UNL     1     -12.228  10.014  66.852  1.00  0.00     0.000 HD 
BRANCH  12  14
HETATM   14  C   UNL     1     -10.641   9.882  68.168  1.00  0.00    -0.227 C  
BRANCH  14  15
HETATM   15  C   UNL     1     -10.443   8.440  67.630  1.00  0.00    -0.239 C  
HETATM   16  H   UNL     1      -9.194   7.531  66.416  1.00  0.00     0.000 HD 
HETATM   17  O   UNL     1      -9.315   8.414  66.745  1.00  0.00    -0.160 OA 
BRANCH  15  18
HETATM   18  C   UNL     1     -10.229   7.458  68.775  1.00  0.00    -0.199 A  
HETATM   19  C   UNL     1      -9.353   7.757  69.840  1.00  0.00    -0.157 A  
HETATM   20  C   UNL     1      -9.175   6.874  70.910  1.00  0.00    -0.157 A  
HETATM   21  H   UNL     1     -10.235   3.925  71.896  1.00  0.00     0.000 HD 
HETATM   22  C   UNL     1      -9.896   5.674  70.911  1.00  0.00    -0.182 A  
HETATM   23  C   UNL     1     -10.933   6.247  68.806  1.00  0.00    -0.424 A  
HETATM   24  C   UNL     1     -10.772   5.364  69.874  1.00  0.00    -0.292 A  
HETATM   25  O   UNL     1      -9.745   4.739  71.896  1.00  0.00    -0.150 OA 
BRANCH  20  26
HETATM   26  N   UNL     1      -8.326   7.167  71.994  1.00  0.00    -0.107 N  
HETATM   27  H   UNL     1      -7.677   6.432  72.273  1.00  0.00     0.000 HD 
HETATM   28  O   UNL     1      -7.521   8.472  73.667  1.00  0.00    -0.316 OA 
HETATM   29  C   UNL     1      -8.277   8.324  72.713  1.00  0.00    -0.160 C  
ENDBRANCH  20  26
ENDBRANCH  15  18
ENDBRANCH  14  15
ENDBRANCH  12  14
ENDBRANCH  10  12
ENDBRANCH   9  10
ENDBRANCH   6   9
ENDBRANCH   2   3
TORSDOF 8
ENDMDL
MODEL      222
REMARK 921   NORMALIZED FREE ENERGY PREDICTED BY IDOCK:   -4.20 KCAL/MOL
REMARK 922        TOTAL FREE ENERGY PREDICTED BY IDOCK:   -7.66 KCAL/MOL
REMARK 923 INTER-LIGAND FREE ENERGY PREDICTED BY IDOCK:   -6.99 KCAL/MOL
REMARK 924 INTRA-LIGAND FREE ENERGY PREDICTED BY IDOCK:   -0.67 KCAL/MOL
REMARK 927      BINDING AFFINITY PREDICTED BY RF-SCORE:    0.00 PKD
ROOT
HETATM    1  C   UNL     1     -11.880  15.208  73.033  1.00  0.00    -0.335 C  
HETATM    2  O   UNL     1     -12.078  16.201  72.031  1.00  0.00    -0.476 OA 
ENDROOT
BRANCH   2   3
HETATM    3  C   UNL     1     -11.837  15.780  70.753  1.00  0.00    -0.404 A  
HETATM    4  C   UNL     1     -12.422  14.567  70.392  1.00  0.00    -0.407 A  
HETATM    5  C   UNL     1     -12.201  14.026  69.123  1.00  0.00    -0.299 A  
HETATM    6  C   UNL     1     -11.416  14.712  68.188  1.00  0.00    -0.346 A  
HETATM    7  C   UNL     1     -11.086  16.484  69.815  1.00  0.00    -0.248 A  
HETATM    8  C   UNL     1     -10.874  15.953  68.542  1.00  0.00    -0.298 A  
BRANCH   6   9
HETATM    9  C   UNL     1     -11.045  14.091  66.862  1.00  0.00    -0.310 C  
BRANCH   9  10
HETATM   10  C   UNL     1     -12.221  13.719  65.927  1.00  0.00    -0.466 C  
HETATM   11  C   UNL     1     -12.102  14.462  64.592  1.00  0.00    -0.485 C  
BRANCH  10  12
HETATM   12  N   UNL     1     -12.293  12.271  65.635  1.00  0.00    -0.563 NA 
HETATM   13  H   UNL     1     -12.116  12.089  64.647  1.00  0.00     0.000 HD 
BRANCH  12  14
HETATM   14  C   UNL     1     -11.401  11.471  66.484  1.00  0.00    -0.193 C  
BRANCH  14  15
HETATM   15  C   UNL     1     -10.249  10.785  65.705  1.00  0.00    -0.257 C  
HETATM   16  H   UNL     1      -8.408  11.238  65.191  1.00  0.00     0.000 HD 
HETATM   17  O   UNL     1      -9.113  11.659  65.668  1.00  0.00    -0.182 OA 
BRANCH  15  18
HETATM   18  C   UNL     1      -9.866   9.461  66.355  1.00  0.00    -0.337 A  
HETATM   19  C   UNL     1      -8.901   8.613  65.771  1.00  0.00    -0.231 A  
HETATM   20  C   UNL     1      -8.520   7.411  66.378  1.00  0.00    -0.129 A  
HETATM   21  H   UNL     1      -9.235   5.649  69.056  1.00  0.00     0.000 HD 
HETATM   22  C   UNL     1      -9.115   7.063  67.596  1.00  0.00    -0.122 A  
HETATM   23  C   UNL     1     -10.443   9.080  67.573  1.00  0.00    -0.338 A  
HETATM   24  C   UNL     1     -10.062   7.890  68.194  1.00  0.00    -0.228 A  
HETATM   25  O   UNL     1      -8.831   5.886  68.230  1.00  0.00    -0.112 OA 
BRANCH  20  26
HETATM   26  N   UNL     1      -7.541   6.566  65.824  1.00  0.00    -0.082 N  
HETATM   27  H   UNL     1      -6.573   6.772  66.069  1.00  0.00     0.000 HD 
HETATM   28  O   UNL     1      -6.817   4.843  64.537  1.00  0.00    -0.047 OA 
HETATM   29  C   UNL     1      -7.743   5.502  64.996  1.00  0.00    -0.093 C  
ENDBRANCH  20  26
ENDBRANCH  15  18
ENDBRANCH  14  15
ENDBRANCH  12  14
ENDBRANCH  10  12
ENDBRANCH   9  10
ENDBRANCH   6   9
ENDBRANCH   2   3
TORSDOF 8
ENDMDL
MODEL      223
REMARK 921   NORMALIZED FREE ENERGY PREDICTED BY IDOCK:   -4.19 KCAL/MOL
REMARK 922        TOTAL FREE ENERGY PREDICTED BY IDOCK:   -7.65 KCAL/MOL
REMARK 923 INTER-LIGAND FREE ENERGY PREDICTED BY IDOCK:   -6.20 KCAL/MOL
REMARK 924 INTRA-LIGAND FREE ENERGY PREDICTED BY IDOCK:   -1.45 KCAL/MOL
REMARK 927      BINDING AFFINITY PREDICTED BY RF-SCORE:    0.00 PKD
ROOT
HETATM    1  C   UNL     1      -8.278   6.871  64.217  1.00  0.00     0.040 C  
HETATM    2  O   UNL     1      -7.783   7.974  63.462  1.00  0.00    -0.126 OA 
ENDROOT
BRANCH   2   3
HETATM    3  C   UNL     1      -8.460   9.146  63.652  1.00  0.00    -0.184 A  
HETATM    4  C   UNL     1      -8.676   9.916  62.510  1.00  0.00    -0.225 A  
HETATM    5  C   UNL     1      -9.318  11.153  62.603  1.00  0.00    -0.336 A  
HETATM    6  C   UNL     1      -9.782  11.619  63.840  1.00  0.00    -0.253 A  
HETATM    7  C   UNL     1      -8.950   9.587  64.879  1.00  0.00    -0.264 A  
HETATM    8  C   UNL     1      -9.604  10.817  64.973  1.00  0.00    -0.305 A  
BRANCH   6   9
HETATM    9  C   UNL     1     -10.353  13.008  63.996  1.00  0.00    -0.272 C  
BRANCH   9  10
HETATM   10  C   UNL     1     -11.856  13.172  63.662  1.00  0.00    -0.488 C  
HETATM   11  C   UNL     1     -12.546  11.806  63.605  1.00  0.00    -0.458 C  
BRANCH  10  12
HETATM   12  N   UNL     1     -12.580  14.005  64.646  1.00  0.00    -0.659 NA 
HETATM   13  H   UNL     1     -13.549  14.148  64.360  1.00  0.00     0.000 HD 
BRANCH  12  14
HETATM   14  C   UNL     1     -12.510  13.468  66.011  1.00  0.00    -0.399 C  
BRANCH  14  15
HETATM   15  C   UNL     1     -11.593  14.287  66.957  1.00  0.00    -0.386 C  
HETATM   16  H   UNL     1     -11.826  15.388  68.567  1.00  0.00     0.000 HD 
HETATM   17  O   UNL     1     -12.388  14.886  67.989  1.00  0.00    -0.060 OA 
BRANCH  15  18
HETATM   18  C   UNL     1     -10.520  13.400  67.576  1.00  0.00    -0.236 A  
HETATM   19  C   UNL     1     -10.864  12.304  68.397  1.00  0.00    -0.257 A  
HETATM   20  C   UNL     1      -9.886  11.466  68.945  1.00  0.00    -0.112 A  
HETATM   21  H   UNL     1      -6.615  11.168  68.988  1.00  0.00     0.000 HD 
HETATM   22  C   UNL     1      -8.543  11.732  68.654  1.00  0.00    -0.062 A  
HETATM   23  C   UNL     1      -9.166  13.638  67.309  1.00  0.00    -0.232 A  
HETATM   24  C   UNL     1      -8.183  12.801  67.839  1.00  0.00    -0.168 A  
HETATM   25  O   UNL     1      -7.526  10.988  69.185  1.00  0.00    -0.117 OA 
BRANCH  20  26
HETATM   26  N   UNL     1     -10.210  10.354  69.743  1.00  0.00    -0.374 N  
HETATM   27  H   UNL     1      -9.623  10.196  70.562  1.00  0.00     0.000 HD 
HETATM   28  O   UNL     1     -11.405   8.501  70.282  1.00  0.00    -0.232 OA 
HETATM   29  C   UNL     1     -11.222   9.463  69.543  1.00  0.00    -0.033 C  
ENDBRANCH  20  26
ENDBRANCH  15  18
ENDBRANCH  14  15
ENDBRANCH  12  14
ENDBRANCH  10  12
ENDBRANCH   9  10
ENDBRANCH   6   9
ENDBRANCH   2   3
TORSDOF 8
ENDMDL
MODEL      224
REMARK 921   NORMALIZED FREE ENERGY PREDICTED BY IDOCK:   -4.19 KCAL/MOL
REMARK 922        TOTAL FREE ENERGY PREDICTED BY IDOCK:   -7.64 KCAL/MOL
REMARK 923 INTER-LIGAND FREE ENERGY PREDICTED BY IDOCK:   -7.00 KCAL/MOL
REMARK 924 INTRA-LIGAND FREE ENERGY PREDICTED BY IDOCK:   -0.64 KCAL/MOL
REMARK 927      BINDING AFFINITY PREDICTED BY RF-SCORE:    0.00 PKD
ROOT
HETATM    1  C   UNL     1     -11.432   2.255  73.507  1.00  0.00    -0.186 C  
HETATM    2  O   UNL     1     -11.015   3.542  73.955  1.00  0.00    -0.216 OA 
ENDROOT
BRANCH   2   3
HETATM    3  C   UNL     1     -10.599   4.385  72.963  1.00  0.00    -0.195 A  
HETATM    4  C   UNL     1     -11.450   5.451  72.673  1.00  0.00    -0.305 A  
HETATM    5  C   UNL     1     -11.139   6.345  71.647  1.00  0.00    -0.314 A  
HETATM    6  C   UNL     1      -9.951   6.200  70.918  1.00  0.00    -0.223 A  
HETATM    7  C   UNL     1      -9.399   4.257  72.266  1.00  0.00    -0.168 A  
HETATM    8  C   UNL     1      -9.079   5.157  71.248  1.00  0.00    -0.173 A  
BRANCH   6   9
HETATM    9  C   UNL     1      -9.654   7.063  69.715  1.00  0.00    -0.151 C  
BRANCH   9  10
HETATM   10  C   UNL     1      -9.853   8.588  69.899  1.00  0.00    -0.186 C  
HETATM   11  C   UNL     1      -8.949   9.117  71.018  1.00  0.00    -0.281 C  
BRANCH  10  12
HETATM   12  N   UNL     1      -9.559   9.363  68.675  1.00  0.00    -0.146 NA 
HETATM   13  H   UNL     1     -10.178   9.089  67.912  1.00  0.00     0.000 HD 
BRANCH  12  14
HETATM   14  C   UNL     1      -9.604  10.814  68.892  1.00  0.00    -0.195 C  
BRANCH  14  15
HETATM   15  C   UNL     1     -10.817  11.508  68.220  1.00  0.00    -0.216 C  
HETATM   16  H   UNL     1     -12.620  10.981  67.642  1.00  0.00     0.000 HD 
HETATM   17  O   UNL     1     -11.877  10.556  68.054  1.00  0.00    -0.425 OA 
BRANCH  15  18
HETATM   18  C   UNL     1     -11.303  12.686  69.056  1.00  0.00    -0.345 A  
HETATM   19  C   UNL     1     -11.167  14.013  68.596  1.00  0.00    -0.294 A  
HETATM   20  C   UNL     1     -11.638  15.098  69.344  1.00  0.00    -0.323 A  
HETATM   21  H   UNL     1     -13.135  15.671  72.211  1.00  0.00     0.000 HD 
HETATM   22  C   UNL     1     -12.263  14.840  70.569  1.00  0.00    -0.322 A  
HETATM   23  C   UNL     1     -11.931  12.464  70.288  1.00  0.00    -0.371 A  
HETATM   24  C   UNL     1     -12.416  13.538  71.037  1.00  0.00    -0.451 A  
HETATM   25  O   UNL     1     -12.711  15.846  71.379  1.00  0.00    -0.464 OA 
BRANCH  20  26
HETATM   26  N   UNL     1     -11.535  16.426  68.890  1.00  0.00    -0.276 N  
HETATM   27  H   UNL     1     -12.253  17.073  69.214  1.00  0.00     0.000 HD 
HETATM   28  O   UNL     1     -10.596  18.113  67.698  1.00  0.00    -0.406 OA 
HETATM   29  C   UNL     1     -10.581  16.943  68.065  1.00  0.00    -0.367 C  
ENDBRANCH  20  26
ENDBRANCH  15  18
ENDBRANCH  14  15
ENDBRANCH  12  14
ENDBRANCH  10  12
ENDBRANCH   9  10
ENDBRANCH   6   9
ENDBRANCH   2   3
TORSDOF 8
ENDMDL
MODEL      225
REMARK 921   NORMALIZED FREE ENERGY PREDICTED BY IDOCK:   -4.19 KCAL/MOL
REMARK 922        TOTAL FREE ENERGY PREDICTED BY IDOCK:   -7.64 KCAL/MOL
REMARK 923 INTER-LIGAND FREE ENERGY PREDICTED BY IDOCK:   -6.65 KCAL/MOL
REMARK 924 INTRA-LIGAND FREE ENERGY PREDICTED BY IDOCK:   -0.99 KCAL/MOL
REMARK 927      BINDING AFFINITY PREDICTED BY RF-SCORE:    0.00 PKD
ROOT
HETATM    1  C   UNL     1     -14.149  13.759  72.365  1.00  0.00    -0.492 C  
HETATM    2  O   UNL     1     -13.526  12.487  72.208  1.00  0.00    -0.556 OA 
ENDROOT
BRANCH   2   3
HETATM    3  C   UNL     1     -12.718  12.377  71.110  1.00  0.00    -0.240 A  
HETATM    4  C   UNL     1     -12.325  11.083  70.771  1.00  0.00    -0.496 A  
HETATM    5  C   UNL     1     -11.465  10.866  69.693  1.00  0.00    -0.377 A  
HETATM    6  C   UNL     1     -11.013  11.943  68.920  1.00  0.00    -0.285 A  
HETATM    7  C   UNL     1     -12.302  13.448  70.324  1.00  0.00    -0.354 A  
HETATM    8  C   UNL     1     -11.452  13.234  69.237  1.00  0.00    -0.345 A  
BRANCH   6   9
HETATM    9  C   UNL     1      -9.975  11.758  67.839  1.00  0.00    -0.187 C  
BRANCH   9  10
HETATM   10  C   UNL     1     -10.509  11.634  66.391  1.00  0.00    -0.244 C  
HETATM   11  C   UNL     1     -10.193  12.902  65.590  1.00  0.00    -0.295 C  
BRANCH  10  12
HETATM   12  N   UNL     1      -9.939  10.483  65.659  1.00  0.00    -0.254 NA 
HETATM   13  H   UNL     1      -8.936  10.604  65.513  1.00  0.00     0.000 HD 
BRANCH  12  14
HETATM   14  C   UNL     1     -10.223   9.196  66.306  1.00  0.00    -0.187 C  
BRANCH  14  15
HETATM   15  C   UNL     1      -9.120   8.128  66.082  1.00  0.00    -0.183 C  
HETATM   16  H   UNL     1      -7.158   8.068  66.164  1.00  0.00     0.000 HD 
HETATM   17  O   UNL     1      -7.834   8.721  66.302  1.00  0.00    -0.099 OA 
BRANCH  15  18
HETATM   18  C   UNL     1      -9.313   6.942  67.020  1.00  0.00    -0.170 A  
HETATM   19  C   UNL     1     -10.240   6.995  68.083  1.00  0.00    -0.211 A  
HETATM   20  C   UNL     1     -10.445   5.900  68.929  1.00  0.00    -0.259 A  
HETATM   21  H   UNL     1      -9.321   2.842  69.345  1.00  0.00     0.000 HD 
HETATM   22  C   UNL     1      -9.710   4.732  68.696  1.00  0.00    -0.157 A  
HETATM   23  C   UNL     1      -8.592   5.759  66.818  1.00  0.00    -0.112 A  
HETATM   24  C   UNL     1      -8.797   4.656  67.648  1.00  0.00    -0.114 A  
HETATM   25  O   UNL     1      -9.819   3.635  69.504  1.00  0.00    -0.118 OA 
BRANCH  20  26
HETATM   26  N   UNL     1     -11.384   5.925  69.977  1.00  0.00    -0.287 N  
HETATM   27  H   UNL     1     -12.306   5.542  69.769  1.00  0.00     0.000 HD 
HETATM   28  O   UNL     1     -12.093   6.411  72.077  1.00  0.00    -0.335 OA 
HETATM   29  C   UNL     1     -11.198   6.404  71.239  1.00  0.00    -0.292 C  
ENDBRANCH  20  26
ENDBRANCH  15  18
ENDBRANCH  14  15
ENDBRANCH  12  14
ENDBRANCH  10  12
ENDBRANCH   9  10
ENDBRANCH   6   9
ENDBRANCH   2   3
TORSDOF 8
ENDMDL
MODEL      226
REMARK 921   NORMALIZED FREE ENERGY PREDICTED BY IDOCK:   -4.18 KCAL/MOL
REMARK 922        TOTAL FREE ENERGY PREDICTED BY IDOCK:   -7.63 KCAL/MOL
REMARK 923 INTER-LIGAND FREE ENERGY PREDICTED BY IDOCK:   -7.16 KCAL/MOL
REMARK 924 INTRA-LIGAND FREE ENERGY PREDICTED BY IDOCK:   -0.47 KCAL/MOL
REMARK 927      BINDING AFFINITY PREDICTED BY RF-SCORE:    0.00 PKD
ROOT
HETATM    1  C   UNL     1      -9.371   3.930  66.282  1.00  0.00    -0.179 C  
HETATM    2  O   UNL     1      -9.780   4.007  67.644  1.00  0.00    -0.173 OA 
ENDROOT
BRANCH   2   3
HETATM    3  C   UNL     1      -9.984   5.277  68.109  1.00  0.00    -0.155 A  
HETATM    4  C   UNL     1     -10.389   6.214  67.160  1.00  0.00    -0.286 A  
HETATM    5  C   UNL     1     -10.582   7.550  67.522  1.00  0.00    -0.331 A  
HETATM    6  C   UNL     1     -10.401   7.955  68.851  1.00  0.00    -0.225 A  
HETATM    7  C   UNL     1      -9.837   5.667  69.438  1.00  0.00    -0.232 A  
HETATM    8  C   UNL     1     -10.041   6.998  69.807  1.00  0.00    -0.197 A  
BRANCH   6   9
HETATM    9  C   UNL     1     -10.464   9.411  69.247  1.00  0.00    -0.230 C  
BRANCH   9  10
HETATM   10  C   UNL     1      -9.109  10.153  69.345  1.00  0.00    -0.203 C  
HETATM   11  C   UNL     1      -8.039   9.433  68.518  1.00  0.00    -0.105 C  
BRANCH  10  12
HETATM   12  N   UNL     1      -9.180  11.553  68.874  1.00  0.00    -0.395 NA 
HETATM   13  H   UNL     1      -8.298  12.038  69.039  1.00  0.00     0.000 HD 
BRANCH  12  14
HETATM   14  C   UNL     1      -9.584  11.662  67.466  1.00  0.00    -0.171 C  
BRANCH  14  15
HETATM   15  C   UNL     1     -10.911  12.437  67.257  1.00  0.00    -0.260 C  
HETATM   16  H   UNL     1     -12.817  11.983  67.103  1.00  0.00     0.000 HD 
HETATM   17  O   UNL     1     -12.004  11.509  67.231  1.00  0.00    -0.605 OA 
BRANCH  15  18
HETATM   18  C   UNL     1     -11.125  13.460  68.366  1.00  0.00    -0.301 A  
HETATM   19  C   UNL     1     -10.586  14.761  68.272  1.00  0.00    -0.241 A  
HETATM   20  C   UNL     1     -10.803  15.716  69.271  1.00  0.00    -0.250 A  
HETATM   21  H   UNL     1     -12.332  15.972  72.168  1.00  0.00     0.000 HD 
HETATM   22  C   UNL     1     -11.582  15.356  70.378  1.00  0.00    -0.324 A  
HETATM   23  C   UNL     1     -11.896  13.133  69.488  1.00  0.00    -0.383 A  
HETATM   24  C   UNL     1     -12.130  14.081  70.485  1.00  0.00    -0.424 A  
HETATM   25  O   UNL     1     -11.804  16.216  71.417  1.00  0.00    -0.441 OA 
BRANCH  20  26
HETATM   26  N   UNL     1     -10.297  17.026  69.183  1.00  0.00    -0.320 N  
HETATM   27  H   UNL     1      -9.703  17.336  69.951  1.00  0.00     0.000 HD 
HETATM   28  O   UNL     1     -10.053  19.063  68.213  1.00  0.00    -0.359 OA 
HETATM   29  C   UNL     1     -10.514  17.927  68.184  1.00  0.00    -0.372 C  
ENDBRANCH  20  26
ENDBRANCH  15  18
ENDBRANCH  14  15
ENDBRANCH  12  14
ENDBRANCH  10  12
ENDBRANCH   9  10
ENDBRANCH   6   9
ENDBRANCH   2   3
TORSDOF 8
ENDMDL
MODEL      227
REMARK 921   NORMALIZED FREE ENERGY PREDICTED BY IDOCK:   -4.17 KCAL/MOL
REMARK 922        TOTAL FREE ENERGY PREDICTED BY IDOCK:   -7.62 KCAL/MOL
REMARK 923 INTER-LIGAND FREE ENERGY PREDICTED BY IDOCK:   -5.63 KCAL/MOL
REMARK 924 INTRA-LIGAND FREE ENERGY PREDICTED BY IDOCK:   -1.99 KCAL/MOL
REMARK 927      BINDING AFFINITY PREDICTED BY RF-SCORE:    0.00 PKD
ROOT
HETATM    1  C   UNL     1      -9.621   8.629  66.318  1.00  0.00    -0.252 C  
HETATM    2  O   UNL     1      -9.512   7.212  66.424  1.00  0.00    -0.173 OA 
ENDROOT
BRANCH   2   3
HETATM    3  C   UNL     1      -9.758   6.712  67.672  1.00  0.00    -0.124 A  
HETATM    4  C   UNL     1      -8.644   6.251  68.373  1.00  0.00    -0.114 A  
HETATM    5  C   UNL     1      -8.792   5.680  69.639  1.00  0.00    -0.121 A  
HETATM    6  C   UNL     1     -10.057   5.594  70.233  1.00  0.00    -0.287 A  
HETATM    7  C   UNL     1     -11.014   6.662  68.272  1.00  0.00    -0.321 A  
HETATM    8  C   UNL     1     -11.164   6.104  69.543  1.00  0.00    -0.482 A  
BRANCH   6   9
HETATM    9  C   UNL     1     -10.270   4.859  71.535  1.00  0.00    -0.264 C  
BRANCH   9  10
HETATM   10  C   UNL     1      -9.769   5.573  72.814  1.00  0.00    -0.149 C  
HETATM   11  C   UNL     1     -10.565   5.105  74.037  1.00  0.00    -0.335 C  
BRANCH  10  12
HETATM   12  N   UNL     1      -8.335   5.333  73.088  1.00  0.00    -0.114 NA 
HETATM   13  H   UNL     1      -7.965   4.604  72.479  1.00  0.00     0.000 HD 
BRANCH  12  14
HETATM   14  C   UNL     1      -7.524   6.554  72.998  1.00  0.00    -0.089 C  
BRANCH  14  15
HETATM   15  C   UNL     1      -8.348   7.861  73.137  1.00  0.00    -0.179 C  
HETATM   16  H   UNL     1      -8.332   9.438  74.310  1.00  0.00     0.000 HD 
HETATM   17  O   UNL     1      -7.827   8.638  74.224  1.00  0.00    -0.390 OA 
BRANCH  15  18
HETATM   18  C   UNL     1      -8.302   8.674  71.849  1.00  0.00    -0.189 A  
HETATM   19  C   UNL     1      -9.481   8.981  71.137  1.00  0.00    -0.348 A  
HETATM   20  C   UNL     1      -9.450   9.752  69.970  1.00  0.00    -0.238 A  
HETATM   21  H   UNL     1      -7.254  11.274  68.059  1.00  0.00     0.000 HD 
HETATM   22  C   UNL     1      -8.213  10.228  69.519  1.00  0.00    -0.155 A  
HETATM   23  C   UNL     1      -7.081   9.164  71.368  1.00  0.00    -0.025 A  
HETATM   24  C   UNL     1      -7.040   9.945  70.212  1.00  0.00    -0.155 A  
HETATM   25  O   UNL     1      -8.093  10.951  68.365  1.00  0.00    -0.116 OA 
BRANCH  20  26
HETATM   26  N   UNL     1     -10.618  10.091  69.261  1.00  0.00    -0.213 N  
HETATM   27  H   UNL     1     -11.027   9.356  68.685  1.00  0.00     0.000 HD 
HETATM   28  O   UNL     1     -12.260  11.500  68.580  1.00  0.00    -0.524 OA 
HETATM   29  C   UNL     1     -11.262  11.292  69.260  1.00  0.00    -0.272 C  
ENDBRANCH  20  26
ENDBRANCH  15  18
ENDBRANCH  14  15
ENDBRANCH  12  14
ENDBRANCH  10  12
ENDBRANCH   9  10
ENDBRANCH   6   9
ENDBRANCH   2   3
TORSDOF 8
ENDMDL
MODEL      228
REMARK 921   NORMALIZED FREE ENERGY PREDICTED BY IDOCK:   -4.16 KCAL/MOL
REMARK 922        TOTAL FREE ENERGY PREDICTED BY IDOCK:   -7.60 KCAL/MOL
REMARK 923 INTER-LIGAND FREE ENERGY PREDICTED BY IDOCK:   -6.59 KCAL/MOL
REMARK 924 INTRA-LIGAND FREE ENERGY PREDICTED BY IDOCK:   -1.00 KCAL/MOL
REMARK 927      BINDING AFFINITY PREDICTED BY RF-SCORE:    0.00 PKD
ROOT
HETATM    1  C   UNL     1      -8.286   7.016  65.110  1.00  0.00    -0.073 C  
HETATM    2  O   UNL     1      -8.164   7.854  63.965  1.00  0.00    -0.121 OA 
ENDROOT
BRANCH   2   3
HETATM    3  C   UNL     1      -8.782   9.069  64.076  1.00  0.00    -0.086 A  
HETATM    4  C   UNL     1      -8.822   9.839  62.915  1.00  0.00    -0.255 A  
HETATM    5  C   UNL     1      -9.392  11.115  62.933  1.00  0.00    -0.385 A  
HETATM    6  C   UNL     1      -9.958  11.621  64.110  1.00  0.00    -0.311 A  
HETATM    7  C   UNL     1      -9.375   9.551  65.240  1.00  0.00    -0.317 A  
HETATM    8  C   UNL     1      -9.957  10.820  65.258  1.00  0.00    -0.342 A  
BRANCH   6   9
HETATM    9  C   UNL     1     -10.454  13.044  64.198  1.00  0.00    -0.395 C  
BRANCH   9  10
HETATM   10  C   UNL     1     -11.956  13.266  63.894  1.00  0.00    -0.483 C  
HETATM   11  C   UNL     1     -12.635  11.938  63.543  1.00  0.00    -0.579 C  
BRANCH  10  12
HETATM   12  N   UNL     1     -12.694  13.867  65.026  1.00  0.00    -0.691 NA 
HETATM   13  H   UNL     1     -13.692  13.670  64.956  1.00  0.00     0.000 HD 
BRANCH  12  14
HETATM   14  C   UNL     1     -12.168  13.456  66.334  1.00  0.00    -0.376 C  
BRANCH  14  15
HETATM   15  C   UNL     1     -11.563  14.624  67.158  1.00  0.00    -0.378 C  
HETATM   16  H   UNL     1     -11.982  15.547  68.841  1.00  0.00     0.000 HD 
HETATM   17  O   UNL     1     -12.352  14.832  68.337  1.00  0.00    -0.116 OA 
BRANCH  15  18
HETATM   18  C   UNL     1     -10.119  14.326  67.544  1.00  0.00    -0.236 A  
HETATM   19  C   UNL     1      -9.161  15.359  67.637  1.00  0.00    -0.187 A  
HETATM   20  C   UNL     1      -7.841  15.098  68.021  1.00  0.00    -0.130 A  
HETATM   21  H   UNL     1      -5.963  12.540  68.869  1.00  0.00     0.000 HD 
HETATM   22  C   UNL     1      -7.484  13.779  68.324  1.00  0.00    -0.120 A  
HETATM   23  C   UNL     1      -9.726  13.018  67.850  1.00  0.00    -0.218 A  
HETATM   24  C   UNL     1      -8.416  12.748  68.247  1.00  0.00    -0.161 A  
HETATM   25  O   UNL     1      -6.205  13.436  68.664  1.00  0.00    -0.078 OA 
BRANCH  20  26
HETATM   26  N   UNL     1      -6.879  16.118  68.146  1.00  0.00    -0.121 N  
HETATM   27  H   UNL     1      -6.256  16.253  67.350  1.00  0.00     0.000 HD 
HETATM   28  O   UNL     1      -5.796  17.786  69.239  1.00  0.00    -0.200 OA 
HETATM   29  C   UNL     1      -6.688  16.945  69.212  1.00  0.00    -0.238 C  
ENDBRANCH  20  26
ENDBRANCH  15  18
ENDBRANCH  14  15
ENDBRANCH  12  14
ENDBRANCH  10  12
ENDBRANCH   9  10
ENDBRANCH   6   9
ENDBRANCH   2   3
TORSDOF 8
ENDMDL
MODEL      229
REMARK 921   NORMALIZED FREE ENERGY PREDICTED BY IDOCK:   -4.16 KCAL/MOL
REMARK 922        TOTAL FREE ENERGY PREDICTED BY IDOCK:   -7.60 KCAL/MOL
REMARK 923 INTER-LIGAND FREE ENERGY PREDICTED BY IDOCK:   -6.84 KCAL/MOL
REMARK 924 INTRA-LIGAND FREE ENERGY PREDICTED BY IDOCK:   -0.76 KCAL/MOL
REMARK 927      BINDING AFFINITY PREDICTED BY RF-SCORE:    0.00 PKD
ROOT
HETATM    1  C   UNL     1      -9.717   3.027  72.138  1.00  0.00    -0.161 C  
HETATM    2  O   UNL     1      -9.842   4.203  72.933  1.00  0.00    -0.128 OA 
ENDROOT
BRANCH   2   3
HETATM    3  C   UNL     1      -9.819   5.374  72.229  1.00  0.00    -0.163 A  
HETATM    4  C   UNL     1     -11.018   5.741  71.620  1.00  0.00    -0.308 A  
HETATM    5  C   UNL     1     -11.089   6.898  70.840  1.00  0.00    -0.313 A  
HETATM    6  C   UNL     1      -9.965   7.720  70.689  1.00  0.00    -0.186 A  
HETATM    7  C   UNL     1      -8.708   6.206  72.113  1.00  0.00    -0.131 A  
HETATM    8  C   UNL     1      -8.779   7.370  71.345  1.00  0.00    -0.127 A  
BRANCH   6   9
HETATM    9  C   UNL     1      -9.970   8.898  69.744  1.00  0.00    -0.196 C  
BRANCH   9  10
HETATM   10  C   UNL     1      -9.016   8.805  68.529  1.00  0.00    -0.138 C  
HETATM   11  C   UNL     1      -9.551   7.802  67.501  1.00  0.00    -0.184 C  
BRANCH  10  12
HETATM   12  N   UNL     1      -8.825  10.100  67.841  1.00  0.00    -0.125 NA 
HETATM   13  H   UNL     1      -8.894   9.989  66.829  1.00  0.00     0.000 HD 
BRANCH  12  14
HETATM   14  C   UNL     1      -9.743  11.142  68.318  1.00  0.00    -0.188 C  
BRANCH  14  15
HETATM   15  C   UNL     1     -10.930  11.414  67.358  1.00  0.00    -0.273 C  
HETATM   16  H   UNL     1     -12.890  11.465  67.492  1.00  0.00     0.000 HD 
HETATM   17  O   UNL     1     -12.163  11.299  68.081  1.00  0.00    -0.622 OA 
BRANCH  15  18
HETATM   18  C   UNL     1     -10.820  12.801  66.737  1.00  0.00    -0.289 A  
HETATM   19  C   UNL     1     -10.896  13.965  67.532  1.00  0.00    -0.274 A  
HETATM   20  C   UNL     1     -10.765  15.241  66.974  1.00  0.00    -0.313 A  
HETATM   21  H   UNL     1     -10.303  16.627  64.032  1.00  0.00     0.000 HD 
HETATM   22  C   UNL     1     -10.546  15.346  65.595  1.00  0.00    -0.364 A  
HETATM   23  C   UNL     1     -10.604  12.943  65.360  1.00  0.00    -0.308 A  
HETATM   24  C   UNL     1     -10.459  14.211  64.795  1.00  0.00    -0.432 A  
HETATM   25  O   UNL     1     -10.451  16.556  64.967  1.00  0.00    -0.652 OA 
BRANCH  20  26
HETATM   26  N   UNL     1     -10.810  16.412  67.754  1.00  0.00    -0.328 N  
HETATM   27  H   UNL     1     -11.713  16.883  67.813  1.00  0.00     0.000 HD 
HETATM   28  O   UNL     1      -9.914  18.030  69.068  1.00  0.00    -0.357 OA 
HETATM   29  C   UNL     1      -9.782  16.986  68.440  1.00  0.00    -0.279 C  
ENDBRANCH  20  26
ENDBRANCH  15  18
ENDBRANCH  14  15
ENDBRANCH  12  14
ENDBRANCH  10  12
ENDBRANCH   9  10
ENDBRANCH   6   9
ENDBRANCH   2   3
TORSDOF 8
ENDMDL
MODEL      230
REMARK 921   NORMALIZED FREE ENERGY PREDICTED BY IDOCK:   -4.15 KCAL/MOL
REMARK 922        TOTAL FREE ENERGY PREDICTED BY IDOCK:   -7.58 KCAL/MOL
REMARK 923 INTER-LIGAND FREE ENERGY PREDICTED BY IDOCK:   -6.96 KCAL/MOL
REMARK 924 INTRA-LIGAND FREE ENERGY PREDICTED BY IDOCK:   -0.63 KCAL/MOL
REMARK 927      BINDING AFFINITY PREDICTED BY RF-SCORE:    0.00 PKD
ROOT
HETATM    1  C   UNL     1     -10.818   2.899  63.375  1.00  0.00    -0.218 C  
HETATM    2  O   UNL     1      -9.560   2.928  64.044  1.00  0.00    -0.129 OA 
ENDROOT
BRANCH   2   3
HETATM    3  C   UNL     1      -9.362   4.020  64.842  1.00  0.00    -0.163 A  
HETATM    4  C   UNL     1     -10.385   4.308  65.745  1.00  0.00    -0.180 A  
HETATM    5  C   UNL     1     -10.301   5.428  66.575  1.00  0.00    -0.320 A  
HETATM    6  C   UNL     1      -9.172   6.257  66.533  1.00  0.00    -0.169 A  
HETATM    7  C   UNL     1      -8.222   4.819  64.821  1.00  0.00    -0.122 A  
HETATM    8  C   UNL     1      -8.128   5.932  65.659  1.00  0.00    -0.124 A  
BRANCH   6   9
HETATM    9  C   UNL     1      -9.112   7.548  67.313  1.00  0.00    -0.137 C  
BRANCH   9  10
HETATM   10  C   UNL     1     -10.220   7.760  68.373  1.00  0.00    -0.200 C  
HETATM   11  C   UNL     1      -9.608   7.889  69.772  1.00  0.00    -0.167 C  
BRANCH  10  12
HETATM   12  N   UNL     1     -11.038   8.967  68.124  1.00  0.00    -0.470 NA 
HETATM   13  H   UNL     1     -12.030   8.767  68.246  1.00  0.00     0.000 HD 
BRANCH  12  14
HETATM   14  C   UNL     1     -10.629  10.114  68.946  1.00  0.00    -0.215 C  
BRANCH  14  15
HETATM   15  C   UNL     1     -11.801  10.780  69.713  1.00  0.00    -0.335 C  
HETATM   16  H   UNL     1     -12.406  10.884  71.579  1.00  0.00     0.000 HD 
HETATM   17  O   UNL     1     -11.688  10.476  71.110  1.00  0.00    -0.329 OA 
BRANCH  15  18
HETATM   18  C   UNL     1     -11.796  12.290  69.508  1.00  0.00    -0.380 A  
HETATM   19  C   UNL     1     -12.290  13.163  70.502  1.00  0.00    -0.380 A  
HETATM   20  C   UNL     1     -12.261  14.552  70.334  1.00  0.00    -0.329 A  
HETATM   21  H   UNL     1     -11.327  16.761  68.090  1.00  0.00     0.000 HD 
HETATM   22  C   UNL     1     -11.719  15.069  69.152  1.00  0.00    -0.319 A  
HETATM   23  C   UNL     1     -11.264  12.841  68.336  1.00  0.00    -0.313 A  
HETATM   24  C   UNL     1     -11.219  14.226  68.164  1.00  0.00    -0.295 A  
HETATM   25  O   UNL     1     -11.695  16.411  68.893  1.00  0.00    -0.261 OA 
BRANCH  20  26
HETATM   26  N   UNL     1     -12.724  15.439  71.324  1.00  0.00    -0.400 N  
HETATM   27  H   UNL     1     -12.754  16.426  71.071  1.00  0.00     0.000 HD 
HETATM   28  O   UNL     1     -13.493  15.977  73.390  1.00  0.00    -0.581 OA 
HETATM   29  C   UNL     1     -13.136  15.124  72.585  1.00  0.00    -0.421 C  
ENDBRANCH  20  26
ENDBRANCH  15  18
ENDBRANCH  14  15
ENDBRANCH  12  14
ENDBRANCH  10  12
ENDBRANCH   9  10
ENDBRANCH   6   9
ENDBRANCH   2   3
TORSDOF 8
ENDMDL
MODEL      231
REMARK 921   NORMALIZED FREE ENERGY PREDICTED BY IDOCK:   -4.15 KCAL/MOL
REMARK 922        TOTAL FREE ENERGY PREDICTED BY IDOCK:   -7.58 KCAL/MOL
REMARK 923 INTER-LIGAND FREE ENERGY PREDICTED BY IDOCK:   -6.71 KCAL/MOL
REMARK 924 INTRA-LIGAND FREE ENERGY PREDICTED BY IDOCK:   -0.87 KCAL/MOL
REMARK 927      BINDING AFFINITY PREDICTED BY RF-SCORE:    0.00 PKD
ROOT
HETATM    1  C   UNL     1      -8.503   6.430  63.574  1.00  0.00     0.263 C  
HETATM    2  O   UNL     1      -7.718   7.601  63.363  1.00  0.00    -0.118 OA 
ENDROOT
BRANCH   2   3
HETATM    3  C   UNL     1      -8.394   8.778  63.518  1.00  0.00    -0.145 A  
HETATM    4  C   UNL     1      -8.740   9.441  62.340  1.00  0.00    -0.239 A  
HETATM    5  C   UNL     1      -9.395  10.674  62.390  1.00  0.00    -0.282 A  
HETATM    6  C   UNL     1      -9.739  11.244  63.622  1.00  0.00    -0.351 A  
HETATM    7  C   UNL     1      -8.766   9.322  64.745  1.00  0.00    -0.220 A  
HETATM    8  C   UNL     1      -9.431  10.549  64.797  1.00  0.00    -0.312 A  
BRANCH   6   9
HETATM    9  C   UNL     1     -10.318  12.635  63.713  1.00  0.00    -0.360 C  
BRANCH   9  10
HETATM   10  C   UNL     1     -11.788  12.796  63.255  1.00  0.00    -0.419 C  
HETATM   11  C   UNL     1     -12.637  11.618  63.745  1.00  0.00    -0.261 C  
BRANCH  10  12
HETATM   12  N   UNL     1     -12.416  14.042  63.747  1.00  0.00    -0.959 NA 
HETATM   13  H   UNL     1     -13.327  14.187  63.313  1.00  0.00     0.000 HD 
BRANCH  12  14
HETATM   14  C   UNL     1     -12.518  14.090  65.211  1.00  0.00    -0.475 C  
BRANCH  14  15
HETATM   15  C   UNL     1     -11.154  14.275  65.926  1.00  0.00    -0.310 C  
HETATM   16  H   UNL     1     -10.276  15.683  66.979  1.00  0.00     0.000 HD 
HETATM   17  O   UNL     1     -11.112  15.569  66.541  1.00  0.00    -0.287 OA 
BRANCH  15  18
HETATM   18  C   UNL     1     -10.939  13.193  66.976  1.00  0.00    -0.289 A  
HETATM   19  C   UNL     1      -9.654  12.925  67.496  1.00  0.00    -0.200 A  
HETATM   20  C   UNL     1      -9.452  11.955  68.483  1.00  0.00    -0.148 A  
HETATM   21  H   UNL     1     -11.199   9.776  70.214  1.00  0.00     0.000 HD 
HETATM   22  C   UNL     1     -10.563  11.249  68.960  1.00  0.00    -0.208 A  
HETATM   23  C   UNL     1     -12.027  12.466  67.474  1.00  0.00    -0.253 A  
HETATM   24  C   UNL     1     -11.840  11.504  68.468  1.00  0.00    -0.365 A  
HETATM   25  O   UNL     1     -10.445  10.255  69.891  1.00  0.00    -0.257 OA 
BRANCH  20  26
HETATM   26  N   UNL     1      -8.183  11.692  69.033  1.00  0.00    -0.366 N  
HETATM   27  H   UNL     1      -8.162  11.108  69.868  1.00  0.00     0.000 HD 
HETATM   28  O   UNL     1      -5.924  11.877  69.142  1.00  0.00    -0.062 OA 
HETATM   29  C   UNL     1      -6.979  12.133  68.572  1.00  0.00    -0.091 C  
ENDBRANCH  20  26
ENDBRANCH  15  18
ENDBRANCH  14  15
ENDBRANCH  12  14
ENDBRANCH  10  12
ENDBRANCH   9  10
ENDBRANCH   6   9
ENDBRANCH   2   3
TORSDOF 8
ENDMDL
MODEL      232
REMARK 921   NORMALIZED FREE ENERGY PREDICTED BY IDOCK:   -4.15 KCAL/MOL
REMARK 922        TOTAL FREE ENERGY PREDICTED BY IDOCK:   -7.58 KCAL/MOL
REMARK 923 INTER-LIGAND FREE ENERGY PREDICTED BY IDOCK:   -5.48 KCAL/MOL
REMARK 924 INTRA-LIGAND FREE ENERGY PREDICTED BY IDOCK:   -2.10 KCAL/MOL
REMARK 927      BINDING AFFINITY PREDICTED BY RF-SCORE:    0.00 PKD
ROOT
HETATM    1  C   UNL     1      -8.047   7.447  65.948  1.00  0.00    -0.128 C  
HETATM    2  O   UNL     1      -7.957   6.540  67.043  1.00  0.00    -0.109 OA 
ENDROOT
BRANCH   2   3
HETATM    3  C   UNL     1      -9.028   6.560  67.892  1.00  0.00    -0.115 A  
HETATM    4  C   UNL     1      -8.727   6.527  69.253  1.00  0.00    -0.130 A  
HETATM    5  C   UNL     1      -9.751   6.499  70.202  1.00  0.00    -0.180 A  
HETATM    6  C   UNL     1     -11.092   6.536  69.799  1.00  0.00    -0.430 A  
HETATM    7  C   UNL     1     -10.358   6.633  67.485  1.00  0.00    -0.262 A  
HETATM    8  C   UNL     1     -11.384   6.619  68.432  1.00  0.00    -0.110 A  
BRANCH   6   9
HETATM    9  C   UNL     1     -12.219   6.367  70.789  1.00  0.00    -0.054 C  
BRANCH   9  10
HETATM   10  C   UNL     1     -12.943   7.662  71.231  1.00  0.00    -0.246 C  
HETATM   11  C   UNL     1     -14.342   7.340  71.767  1.00  0.00    -0.560 C  
BRANCH  10  12
HETATM   12  N   UNL     1     -12.214   8.402  72.284  1.00  0.00    -0.372 NA 
HETATM   13  H   UNL     1     -11.702   7.763  72.891  1.00  0.00     0.000 HD 
BRANCH  12  14
HETATM   14  C   UNL     1     -11.326   9.439  71.744  1.00  0.00    -0.317 C  
BRANCH  14  15
HETATM   15  C   UNL     1     -11.940  10.232  70.561  1.00  0.00    -0.323 C  
HETATM   16  H   UNL     1     -12.709  12.019  70.290  1.00  0.00     0.000 HD 
HETATM   17  O   UNL     1     -12.333  11.534  71.014  1.00  0.00    -0.371 OA 
BRANCH  15  18
HETATM   18  C   UNL     1     -10.943  10.359  69.415  1.00  0.00    -0.296 A  
HETATM   19  C   UNL     1      -9.554  10.258  69.642  1.00  0.00    -0.192 A  
HETATM   20  C   UNL     1      -8.634  10.343  68.591  1.00  0.00    -0.133 A  
HETATM   21  H   UNL     1      -8.619  10.785  65.336  1.00  0.00     0.000 HD 
HETATM   22  C   UNL     1      -9.122  10.525  67.292  1.00  0.00    -0.143 A  
HETATM   23  C   UNL     1     -11.397  10.544  68.103  1.00  0.00    -0.324 A  
HETATM   24  C   UNL     1     -10.489  10.618  67.046  1.00  0.00    -0.295 A  
HETATM   25  O   UNL     1      -8.288  10.662  66.218  1.00  0.00    -0.143 OA 
BRANCH  20  26
HETATM   26  N   UNL     1      -7.247  10.217  68.794  1.00  0.00    -0.079 N  
HETATM   27  H   UNL     1      -6.683  10.027  67.966  1.00  0.00     0.000 HD 
HETATM   28  O   UNL     1      -5.361  10.163  70.054  1.00  0.00    -0.036 OA 
HETATM   29  C   UNL     1      -6.574  10.322  69.974  1.00  0.00    -0.127 C  
ENDBRANCH  20  26
ENDBRANCH  15  18
ENDBRANCH  14  15
ENDBRANCH  12  14
ENDBRANCH  10  12
ENDBRANCH   9  10
ENDBRANCH   6   9
ENDBRANCH   2   3
TORSDOF 8
ENDMDL
MODEL      233
REMARK 921   NORMALIZED FREE ENERGY PREDICTED BY IDOCK:   -4.14 KCAL/MOL
REMARK 922        TOTAL FREE ENERGY PREDICTED BY IDOCK:   -7.58 KCAL/MOL
REMARK 923 INTER-LIGAND FREE ENERGY PREDICTED BY IDOCK:   -6.55 KCAL/MOL
REMARK 924 INTRA-LIGAND FREE ENERGY PREDICTED BY IDOCK:   -1.02 KCAL/MOL
REMARK 927      BINDING AFFINITY PREDICTED BY RF-SCORE:    0.00 PKD
ROOT
HETATM    1  C   UNL     1      -6.347  20.586  67.541  1.00  0.00    -0.248 C  
HETATM    2  O   UNL     1      -7.737  20.796  67.306  1.00  0.00    -0.348 OA 
ENDROOT
BRANCH   2   3
HETATM    3  C   UNL     1      -8.536  19.728  67.604  1.00  0.00    -0.318 A  
HETATM    4  C   UNL     1      -9.838  19.785  67.109  1.00  0.00    -0.513 A  
HETATM    5  C   UNL     1     -10.748  18.764  67.395  1.00  0.00    -0.487 A  
HETATM    6  C   UNL     1     -10.352  17.656  68.156  1.00  0.00    -0.386 A  
HETATM    7  C   UNL     1      -8.126  18.612  68.330  1.00  0.00    -0.360 A  
HETATM    8  C   UNL     1      -9.029  17.584  68.607  1.00  0.00    -0.260 A  
BRANCH   6   9
HETATM    9  C   UNL     1     -11.345  16.609  68.599  1.00  0.00    -0.155 C  
BRANCH   9  10
HETATM   10  C   UNL     1     -10.869  15.639  69.708  1.00  0.00    -0.308 C  
HETATM   11  C   UNL     1     -11.524  15.991  71.048  1.00  0.00    -0.460 C  
BRANCH  10  12
HETATM   12  N   UNL     1     -11.177  14.223  69.412  1.00  0.00    -0.271 NA 
HETATM   13  H   UNL     1     -11.592  13.764  70.223  1.00  0.00     0.000 HD 
BRANCH  12  14
HETATM   14  C   UNL     1     -12.024  14.059  68.224  1.00  0.00    -0.349 C  
BRANCH  14  15
HETATM   15  C   UNL     1     -11.300  13.379  67.032  1.00  0.00    -0.317 C  
HETATM   16  H   UNL     1     -10.758  13.892  65.215  1.00  0.00     0.000 HD 
HETATM   17  O   UNL     1     -11.201  14.308  65.944  1.00  0.00    -0.309 OA 
BRANCH  15  18
HETATM   18  C   UNL     1      -9.910  12.905  67.439  1.00  0.00    -0.207 A  
HETATM   19  C   UNL     1      -8.775  13.719  67.243  1.00  0.00    -0.226 A  
HETATM   20  C   UNL     1      -7.499  13.303  67.641  1.00  0.00    -0.171 A  
HETATM   21  H   UNL     1      -6.064  10.705  69.048  1.00  0.00     0.000 HD 
HETATM   22  C   UNL     1      -7.369  12.052  68.254  1.00  0.00    -0.095 A  
HETATM   23  C   UNL     1      -9.743  11.657  68.052  1.00  0.00    -0.182 A  
HETATM   24  C   UNL     1      -8.478  11.237  68.466  1.00  0.00    -0.156 A  
HETATM   25  O   UNL     1      -6.153  11.554  68.632  1.00  0.00    -0.046 OA 
BRANCH  20  26
HETATM   26  N   UNL     1      -6.359  14.112  67.478  1.00  0.00    -0.097 N  
HETATM   27  H   UNL     1      -5.546  13.670  67.051  1.00  0.00     0.000 HD 
HETATM   28  O   UNL     1      -5.171  16.035  67.675  1.00  0.00    -0.126 OA 
HETATM   29  C   UNL     1      -6.221  15.422  67.829  1.00  0.00    -0.159 C  
ENDBRANCH  20  26
ENDBRANCH  15  18
ENDBRANCH  14  15
ENDBRANCH  12  14
ENDBRANCH  10  12
ENDBRANCH   9  10
ENDBRANCH   6   9
ENDBRANCH   2   3
TORSDOF 8
ENDMDL
MODEL      234
REMARK 921   NORMALIZED FREE ENERGY PREDICTED BY IDOCK:   -4.14 KCAL/MOL
REMARK 922        TOTAL FREE ENERGY PREDICTED BY IDOCK:   -7.58 KCAL/MOL
REMARK 923 INTER-LIGAND FREE ENERGY PREDICTED BY IDOCK:   -6.45 KCAL/MOL
REMARK 924 INTRA-LIGAND FREE ENERGY PREDICTED BY IDOCK:   -1.13 KCAL/MOL
REMARK 927      BINDING AFFINITY PREDICTED BY RF-SCORE:    0.00 PKD
ROOT
HETATM    1  C   UNL     1      -5.923  11.808  70.009  1.00  0.00    -0.158 C  
HETATM    2  O   UNL     1      -6.909  10.815  70.273  1.00  0.00    -0.234 OA 
ENDROOT
BRANCH   2   3
HETATM    3  C   UNL     1      -7.728  10.526  69.216  1.00  0.00    -0.144 A  
HETATM    4  C   UNL     1      -7.684  11.423  68.150  1.00  0.00    -0.118 A  
HETATM    5  C   UNL     1      -8.514  11.244  67.041  1.00  0.00    -0.150 A  
HETATM    6  C   UNL     1      -9.376  10.142  66.973  1.00  0.00    -0.178 A  
HETATM    7  C   UNL     1      -8.556   9.410  69.139  1.00  0.00    -0.140 A  
HETATM    8  C   UNL     1      -9.378   9.220  68.026  1.00  0.00    -0.145 A  
BRANCH   6   9
HETATM    9  C   UNL     1     -10.382   9.996  65.857  1.00  0.00    -0.202 C  
BRANCH   9  10
HETATM   10  C   UNL     1     -10.058  10.741  64.540  1.00  0.00    -0.350 C  
HETATM   11  C   UNL     1      -9.056   9.940  63.701  1.00  0.00    -0.294 C  
BRANCH  10  12
HETATM   12  N   UNL     1     -11.253  10.988  63.704  1.00  0.00    -0.424 NA 
HETATM   13  H   UNL     1     -12.096  10.644  64.163  1.00  0.00     0.000 HD 
BRANCH  12  14
HETATM   14  C   UNL     1     -11.401  12.399  63.322  1.00  0.00    -0.327 C  
BRANCH  14  15
HETATM   15  C   UNL     1     -12.193  13.244  64.354  1.00  0.00    -0.390 C  
HETATM   16  H   UNL     1     -13.027  12.937  66.106  1.00  0.00     0.000 HD 
HETATM   17  O   UNL     1     -12.542  12.420  65.474  1.00  0.00    -0.616 OA 
BRANCH  15  18
HETATM   18  C   UNL     1     -11.371  14.438  64.824  1.00  0.00    -0.388 A  
HETATM   19  C   UNL     1     -10.201  14.261  65.594  1.00  0.00    -0.366 A  
HETATM   20  C   UNL     1      -9.424  15.350  66.004  1.00  0.00    -0.346 A  
HETATM   21  H   UNL     1      -9.422  18.626  65.762  1.00  0.00     0.000 HD 
HETATM   22  C   UNL     1      -9.828  16.636  65.624  1.00  0.00    -0.114 A  
HETATM   23  C   UNL     1     -11.747  15.738  64.465  1.00  0.00    -0.191 A  
HETATM   24  C   UNL     1     -10.972  16.831  64.856  1.00  0.00    -0.099 A  
HETATM   25  O   UNL     1      -9.148  17.754  66.020  1.00  0.00    -0.502 OA 
BRANCH  20  26
HETATM   26  N   UNL     1      -8.241  15.192  66.749  1.00  0.00    -0.338 N  
HETATM   27  H   UNL     1      -7.368  15.206  66.223  1.00  0.00     0.000 HD 
HETATM   28  O   UNL     1      -7.052  14.860  68.653  1.00  0.00    -0.102 OA 
HETATM   29  C   UNL     1      -8.133  15.023  68.097  1.00  0.00    -0.131 C  
ENDBRANCH  20  26
ENDBRANCH  15  18
ENDBRANCH  14  15
ENDBRANCH  12  14
ENDBRANCH  10  12
ENDBRANCH   9  10
ENDBRANCH   6   9
ENDBRANCH   2   3
TORSDOF 8
ENDMDL
MODEL      235
REMARK 921   NORMALIZED FREE ENERGY PREDICTED BY IDOCK:   -4.14 KCAL/MOL
REMARK 922        TOTAL FREE ENERGY PREDICTED BY IDOCK:   -7.57 KCAL/MOL
REMARK 923 INTER-LIGAND FREE ENERGY PREDICTED BY IDOCK:   -6.50 KCAL/MOL
REMARK 924 INTRA-LIGAND FREE ENERGY PREDICTED BY IDOCK:   -1.07 KCAL/MOL
REMARK 927      BINDING AFFINITY PREDICTED BY RF-SCORE:    0.00 PKD
ROOT
HETATM    1  C   UNL     1     -13.265  13.711  71.846  1.00  0.00    -0.411 C  
HETATM    2  O   UNL     1     -13.071  12.301  71.778  1.00  0.00    -0.425 OA 
ENDROOT
BRANCH   2   3
HETATM    3  C   UNL     1     -12.335  11.876  70.708  1.00  0.00    -0.320 A  
HETATM    4  C   UNL     1     -11.947  10.537  70.730  1.00  0.00    -0.472 A  
HETATM    5  C   UNL     1     -11.154  10.014  69.705  1.00  0.00    -0.300 A  
HETATM    6  C   UNL     1     -10.768  10.822  68.628  1.00  0.00    -0.242 A  
HETATM    7  C   UNL     1     -11.984  12.674  69.622  1.00  0.00    -0.352 A  
HETATM    8  C   UNL     1     -11.203  12.151  68.589  1.00  0.00    -0.318 A  
BRANCH   6   9
HETATM    9  C   UNL     1      -9.799  10.328  67.579  1.00  0.00    -0.204 C  
BRANCH   9  10
HETATM   10  C   UNL     1     -10.425   9.688  66.316  1.00  0.00    -0.079 C  
HETATM   11  C   UNL     1     -10.033  10.479  65.063  1.00  0.00    -0.388 C  
BRANCH  10  12
HETATM   12  N   UNL     1     -10.012   8.283  66.112  1.00  0.00    -0.468 NA 
HETATM   13  H   UNL     1      -8.996   8.203  66.074  1.00  0.00     0.000 HD 
BRANCH  12  14
HETATM   14  C   UNL     1     -10.574   7.371  67.117  1.00  0.00    -0.342 C  
BRANCH  14  15
HETATM   15  C   UNL     1      -9.919   5.965  67.118  1.00  0.00    -0.159 C  
HETATM   16  H   UNL     1      -8.281   5.155  66.394  1.00  0.00     0.000 HD 
HETATM   17  O   UNL     1      -8.682   6.016  66.394  1.00  0.00    -0.124 OA 
BRANCH  15  18
HETATM   18  C   UNL     1      -9.668   5.482  68.541  1.00  0.00    -0.175 A  
HETATM   19  C   UNL     1      -9.487   6.396  69.601  1.00  0.00    -0.154 A  
HETATM   20  C   UNL     1      -9.287   5.961  70.916  1.00  0.00    -0.161 A  
HETATM   21  H   UNL     1      -9.040   3.143  72.585  1.00  0.00     0.000 HD 
HETATM   22  C   UNL     1      -9.278   4.584  71.167  1.00  0.00    -0.140 A  
HETATM   23  C   UNL     1      -9.650   4.111  68.828  1.00  0.00    -0.210 A  
HETATM   24  C   UNL     1      -9.465   3.666  70.137  1.00  0.00    -0.258 A  
HETATM   25  O   UNL     1      -9.046   4.077  72.415  1.00  0.00    -0.111 OA 
BRANCH  20  26
HETATM   26  N   UNL     1      -9.131   6.857  71.989  1.00  0.00    -0.137 N  
HETATM   27  H   UNL     1      -9.541   6.575  72.879  1.00  0.00     0.000 HD 
HETATM   28  O   UNL     1      -8.439   8.789  72.956  1.00  0.00    -0.402 OA 
HETATM   29  C   UNL     1      -8.493   8.061  71.971  1.00  0.00    -0.144 C  
ENDBRANCH  20  26
ENDBRANCH  15  18
ENDBRANCH  14  15
ENDBRANCH  12  14
ENDBRANCH  10  12
ENDBRANCH   9  10
ENDBRANCH   6   9
ENDBRANCH   2   3
TORSDOF 8
ENDMDL
MODEL      236
REMARK 921   NORMALIZED FREE ENERGY PREDICTED BY IDOCK:   -4.14 KCAL/MOL
REMARK 922        TOTAL FREE ENERGY PREDICTED BY IDOCK:   -7.57 KCAL/MOL
REMARK 923 INTER-LIGAND FREE ENERGY PREDICTED BY IDOCK:   -6.73 KCAL/MOL
REMARK 924 INTRA-LIGAND FREE ENERGY PREDICTED BY IDOCK:   -0.84 KCAL/MOL
REMARK 927      BINDING AFFINITY PREDICTED BY RF-SCORE:    0.00 PKD
ROOT
HETATM    1  C   UNL     1     -10.248   4.715  71.766  1.00  0.00    -0.172 C  
HETATM    2  O   UNL     1     -10.582   6.099  71.810  1.00  0.00    -0.211 OA 
ENDROOT
BRANCH   2   3
HETATM    3  C   UNL     1     -10.576   6.728  70.596  1.00  0.00    -0.224 A  
HETATM    4  C   UNL     1     -10.615   5.894  69.479  1.00  0.00    -0.378 A  
HETATM    5  C   UNL     1     -10.568   6.436  68.192  1.00  0.00    -0.314 A  
HETATM    6  C   UNL     1     -10.512   7.823  68.010  1.00  0.00    -0.244 A  
HETATM    7  C   UNL     1     -10.557   8.109  70.421  1.00  0.00    -0.226 A  
HETATM    8  C   UNL     1     -10.522   8.654  69.136  1.00  0.00    -0.223 A  
BRANCH   6   9
HETATM    9  C   UNL     1     -10.319   8.432  66.641  1.00  0.00    -0.298 C  
BRANCH   9  10
HETATM   10  C   UNL     1     -10.015   9.949  66.603  1.00  0.00    -0.217 C  
HETATM   11  C   UNL     1      -8.505  10.194  66.511  1.00  0.00    -0.128 C  
BRANCH  10  12
HETATM   12  N   UNL     1     -10.656  10.640  65.463  1.00  0.00    -0.167 NA 
HETATM   13  H   UNL     1     -11.669  10.671  65.578  1.00  0.00     0.000 HD 
BRANCH  12  14
HETATM   14  C   UNL     1     -10.112  11.985  65.230  1.00  0.00    -0.260 C  
BRANCH  14  15
HETATM   15  C   UNL     1     -11.072  13.127  65.655  1.00  0.00    -0.275 C  
HETATM   16  H   UNL     1     -12.778  13.270  66.618  1.00  0.00     0.000 HD 
HETATM   17  O   UNL     1     -12.191  12.571  66.358  1.00  0.00    -0.584 OA 
BRANCH  15  18
HETATM   18  C   UNL     1     -10.354  14.139  66.540  1.00  0.00    -0.284 A  
HETATM   19  C   UNL     1     -10.469  15.526  66.303  1.00  0.00    -0.313 A  
HETATM   20  C   UNL     1      -9.838  16.463  67.128  1.00  0.00    -0.249 A  
HETATM   21  H   UNL     1      -7.897  16.527  69.778  1.00  0.00     0.000 HD 
HETATM   22  C   UNL     1      -9.088  15.996  68.214  1.00  0.00    -0.191 A  
HETATM   23  C   UNL     1      -9.593  13.707  67.633  1.00  0.00    -0.221 A  
HETATM   24  C   UNL     1      -8.970  14.633  68.471  1.00  0.00    -0.184 A  
HETATM   25  O   UNL     1      -8.406  16.844  69.041  1.00  0.00    -0.233 OA 
BRANCH  20  26
HETATM   26  N   UNL     1      -9.962  17.850  66.924  1.00  0.00    -0.318 N  
HETATM   27  H   UNL     1      -9.572  18.452  67.648  1.00  0.00     0.000 HD 
HETATM   28  O   UNL     1     -10.635  19.698  65.793  1.00  0.00    -0.522 OA 
HETATM   29  C   UNL     1     -10.546  18.478  65.865  1.00  0.00    -0.300 C  
ENDBRANCH  20  26
ENDBRANCH  15  18
ENDBRANCH  14  15
ENDBRANCH  12  14
ENDBRANCH  10  12
ENDBRANCH   9  10
ENDBRANCH   6   9
ENDBRANCH   2   3
TORSDOF 8
ENDMDL
MODEL      237
REMARK 921   NORMALIZED FREE ENERGY PREDICTED BY IDOCK:   -4.14 KCAL/MOL
REMARK 922        TOTAL FREE ENERGY PREDICTED BY IDOCK:   -7.57 KCAL/MOL
REMARK 923 INTER-LIGAND FREE ENERGY PREDICTED BY IDOCK:   -6.84 KCAL/MOL
REMARK 924 INTRA-LIGAND FREE ENERGY PREDICTED BY IDOCK:   -0.72 KCAL/MOL
REMARK 927      BINDING AFFINITY PREDICTED BY RF-SCORE:    0.00 PKD
ROOT
HETATM    1  C   UNL     1     -11.573  15.784  70.029  1.00  0.00    -0.357 C  
HETATM    2  O   UNL     1     -12.707  15.181  70.645  1.00  0.00    -0.361 OA 
ENDROOT
BRANCH   2   3
HETATM    3  C   UNL     1     -12.637  13.820  70.764  1.00  0.00    -0.340 A  
HETATM    4  C   UNL     1     -12.020  13.148  69.710  1.00  0.00    -0.382 A  
HETATM    5  C   UNL     1     -11.936  11.754  69.714  1.00  0.00    -0.392 A  
HETATM    6  C   UNL     1     -12.443  11.017  70.792  1.00  0.00    -0.491 A  
HETATM    7  C   UNL     1     -13.110  13.096  71.856  1.00  0.00    -0.482 A  
HETATM    8  C   UNL     1     -13.016  11.704  71.869  1.00  0.00    -0.442 A  
BRANCH   6   9
HETATM    9  C   UNL     1     -12.494   9.509  70.763  1.00  0.00    -0.195 C  
BRANCH   9  10
HETATM   10  C   UNL     1     -13.210   8.824  71.953  1.00  0.00    -0.381 C  
HETATM   11  C   UNL     1     -14.404   8.000  71.460  1.00  0.00    -0.546 C  
BRANCH  10  12
HETATM   12  N   UNL     1     -12.324   7.923  72.721  1.00  0.00    -0.591 NA 
HETATM   13  H   UNL     1     -12.536   6.945  72.521  1.00  0.00     0.000 HD 
BRANCH  12  14
HETATM   14  C   UNL     1     -10.898   8.205  72.509  1.00  0.00    -0.361 C  
BRANCH  14  15
HETATM   15  C   UNL     1     -10.078   6.966  72.063  1.00  0.00    -0.185 C  
HETATM   16  H   UNL     1     -10.420   5.050  71.799  1.00  0.00     0.000 HD 
HETATM   17  O   UNL     1     -10.923   5.808  72.072  1.00  0.00    -0.245 OA 
BRANCH  15  18
HETATM   18  C   UNL     1      -9.494   7.173  70.671  1.00  0.00    -0.161 A  
HETATM   19  C   UNL     1      -8.247   6.617  70.312  1.00  0.00    -0.126 A  
HETATM   20  C   UNL     1      -7.719   6.776  69.027  1.00  0.00    -0.110 A  
HETATM   21  H   UNL     1      -8.500   8.227  66.185  1.00  0.00     0.000 HD 
HETATM   22  C   UNL     1      -8.462   7.499  68.086  1.00  0.00    -0.124 A  
HETATM   23  C   UNL     1     -10.209   7.893  69.706  1.00  0.00    -0.212 A  
HETATM   24  C   UNL     1      -9.698   8.047  68.416  1.00  0.00    -0.168 A  
HETATM   25  O   UNL     1      -7.996   7.736  66.823  1.00  0.00    -0.104 OA 
BRANCH  20  26
HETATM   26  N   UNL     1      -6.490   6.208  68.643  1.00  0.00    -0.044 N  
HETATM   27  H   UNL     1      -5.654   6.759  68.836  1.00  0.00     0.000 HD 
HETATM   28  O   UNL     1      -5.179   4.605  67.714  1.00  0.00    -0.010 OA 
HETATM   29  C   UNL     1      -6.293   5.001  68.041  1.00  0.00    -0.036 C  
ENDBRANCH  20  26
ENDBRANCH  15  18
ENDBRANCH  14  15
ENDBRANCH  12  14
ENDBRANCH  10  12
ENDBRANCH   9  10
ENDBRANCH   6   9
ENDBRANCH   2   3
TORSDOF 8
ENDMDL
MODEL      238
REMARK 921   NORMALIZED FREE ENERGY PREDICTED BY IDOCK:   -4.13 KCAL/MOL
REMARK 922        TOTAL FREE ENERGY PREDICTED BY IDOCK:   -7.56 KCAL/MOL
REMARK 923 INTER-LIGAND FREE ENERGY PREDICTED BY IDOCK:   -7.21 KCAL/MOL
REMARK 924 INTRA-LIGAND FREE ENERGY PREDICTED BY IDOCK:   -0.35 KCAL/MOL
REMARK 927      BINDING AFFINITY PREDICTED BY RF-SCORE:    0.00 PKD
ROOT
HETATM    1  C   UNL     1     -10.454  19.124  66.382  1.00  0.00    -0.463 C  
HETATM    2  O   UNL     1     -10.312  18.132  65.371  1.00  0.00    -0.537 OA 
ENDROOT
BRANCH   2   3
HETATM    3  C   UNL     1     -10.682  16.872  65.750  1.00  0.00    -0.160 A  
HETATM    4  C   UNL     1     -11.137  16.038  64.729  1.00  0.00    -0.378 A  
HETATM    5  C   UNL     1     -11.581  14.745  65.018  1.00  0.00    -0.378 A  
HETATM    6  C   UNL     1     -11.544  14.261  66.331  1.00  0.00    -0.381 A  
HETATM    7  C   UNL     1     -10.609  16.383  67.052  1.00  0.00    -0.260 A  
HETATM    8  C   UNL     1     -11.040  15.088  67.342  1.00  0.00    -0.324 A  
BRANCH   6   9
HETATM    9  C   UNL     1     -12.145  12.925  66.697  1.00  0.00    -0.360 C  
BRANCH   9  10
HETATM   10  C   UNL     1     -11.240  11.686  66.483  1.00  0.00    -0.294 C  
HETATM   11  C   UNL     1      -9.764  12.064  66.641  1.00  0.00    -0.221 C  
BRANCH  10  12
HETATM   12  N   UNL     1     -11.530  10.587  67.430  1.00  0.00    -0.477 NA 
HETATM   13  H   UNL     1     -12.345  10.052  67.129  1.00  0.00     0.000 HD 
BRANCH  12  14
HETATM   14  C   UNL     1     -10.377   9.705  67.652  1.00  0.00    -0.237 C  
BRANCH  14  15
HETATM   15  C   UNL     1     -10.765   8.268  68.088  1.00  0.00    -0.033 C  
HETATM   16  H   UNL     1     -10.194   6.441  67.645  1.00  0.00     0.000 HD 
HETATM   17  O   UNL     1      -9.956   7.321  67.378  1.00  0.00    -0.147 OA 
BRANCH  15  18
HETATM   18  C   UNL     1     -10.581   8.087  69.590  1.00  0.00    -0.223 A  
HETATM   19  C   UNL     1     -10.650   6.809  70.184  1.00  0.00    -0.254 A  
HETATM   20  C   UNL     1     -10.451   6.630  71.558  1.00  0.00    -0.215 A  
HETATM   21  H   UNL     1      -9.817   8.434  74.229  1.00  0.00     0.000 HD 
HETATM   22  C   UNL     1     -10.171   7.755  72.342  1.00  0.00    -0.247 A  
HETATM   23  C   UNL     1     -10.302   9.191  70.405  1.00  0.00    -0.269 A  
HETATM   24  C   UNL     1     -10.089   9.023  71.774  1.00  0.00    -0.373 A  
HETATM   25  O   UNL     1     -10.008   7.671  73.696  1.00  0.00    -0.312 OA 
BRANCH  20  26
HETATM   26  N   UNL     1     -10.489   5.360  72.164  1.00  0.00    -0.213 N  
HETATM   27  H   UNL     1      -9.704   4.740  71.969  1.00  0.00     0.000 HD 
HETATM   28  O   UNL     1     -11.419   3.730  73.440  1.00  0.00    -0.210 OA 
HETATM   29  C   UNL     1     -11.460   4.868  72.984  1.00  0.00    -0.243 C  
ENDBRANCH  20  26
ENDBRANCH  15  18
ENDBRANCH  14  15
ENDBRANCH  12  14
ENDBRANCH  10  12
ENDBRANCH   9  10
ENDBRANCH   6   9
ENDBRANCH   2   3
TORSDOF 8
ENDMDL
MODEL      239
REMARK 921   NORMALIZED FREE ENERGY PREDICTED BY IDOCK:   -4.13 KCAL/MOL
REMARK 922        TOTAL FREE ENERGY PREDICTED BY IDOCK:   -7.56 KCAL/MOL
REMARK 923 INTER-LIGAND FREE ENERGY PREDICTED BY IDOCK:   -6.68 KCAL/MOL
REMARK 924 INTRA-LIGAND FREE ENERGY PREDICTED BY IDOCK:   -0.88 KCAL/MOL
REMARK 927      BINDING AFFINITY PREDICTED BY RF-SCORE:    0.00 PKD
ROOT
HETATM    1  C   UNL     1     -10.411  19.384  66.161  1.00  0.00    -0.508 C  
HETATM    2  O   UNL     1      -9.112  18.894  65.842  1.00  0.00    -0.454 OA 
ENDROOT
BRANCH   2   3
HETATM    3  C   UNL     1      -8.823  17.662  66.358  1.00  0.00    -0.236 A  
HETATM    4  C   UNL     1      -7.813  17.626  67.318  1.00  0.00    -0.222 A  
HETATM    5  C   UNL     1      -7.412  16.409  67.876  1.00  0.00    -0.151 A  
HETATM    6  C   UNL     1      -8.041  15.216  67.499  1.00  0.00    -0.196 A  
HETATM    7  C   UNL     1      -9.478  16.484  66.006  1.00  0.00    -0.317 A  
HETATM    8  C   UNL     1      -9.088  15.268  66.571  1.00  0.00    -0.334 A  
BRANCH   6   9
HETATM    9  C   UNL     1      -7.539  13.874  67.976  1.00  0.00    -0.144 C  
BRANCH   9  10
HETATM   10  C   UNL     1      -8.420  12.650  67.627  1.00  0.00    -0.173 C  
HETATM   11  C   UNL     1      -7.558  11.505  67.082  1.00  0.00    -0.149 C  
BRANCH  10  12
HETATM   12  N   UNL     1      -9.178  12.132  68.787  1.00  0.00    -0.398 NA 
HETATM   13  H   UNL     1      -8.677  12.307  69.657  1.00  0.00     0.000 HD 
BRANCH  12  14
HETATM   14  C   UNL     1     -10.548  12.657  68.854  1.00  0.00    -0.124 C  
BRANCH  14  15
HETATM   15  C   UNL     1     -11.605  11.726  68.204  1.00  0.00    -0.323 C  
HETATM   16  H   UNL     1     -12.489  11.576  66.456  1.00  0.00     0.000 HD 
HETATM   17  O   UNL     1     -11.841  12.146  66.854  1.00  0.00    -0.555 OA 
BRANCH  15  18
HETATM   18  C   UNL     1     -11.138  10.276  68.224  1.00  0.00    -0.311 A  
HETATM   19  C   UNL     1     -11.166   9.516  69.413  1.00  0.00    -0.066 A  
HETATM   20  C   UNL     1     -10.768   8.175  69.433  1.00  0.00    -0.156 A  
HETATM   21  H   UNL     1      -9.610   5.900  67.365  1.00  0.00     0.000 HD 
HETATM   22  C   UNL     1     -10.344   7.589  68.234  1.00  0.00    -0.195 A  
HETATM   23  C   UNL     1     -10.705   9.659  67.044  1.00  0.00    -0.225 A  
HETATM   24  C   UNL     1     -10.318   8.318  67.049  1.00  0.00    -0.393 A  
HETATM   25  O   UNL     1      -9.898   6.298  68.178  1.00  0.00    -0.124 OA 
BRANCH  20  26
HETATM   26  N   UNL     1     -10.814   7.394  70.602  1.00  0.00    -0.237 N  
HETATM   27  H   UNL     1      -9.925   7.236  71.078  1.00  0.00     0.000 HD 
HETATM   28  O   UNL     1     -11.847   6.130  72.179  1.00  0.00    -0.317 OA 
HETATM   29  C   UNL     1     -11.914   6.825  71.171  1.00  0.00    -0.370 C  
ENDBRANCH  20  26
ENDBRANCH  15  18
ENDBRANCH  14  15
ENDBRANCH  12  14
ENDBRANCH  10  12
ENDBRANCH   9  10
ENDBRANCH   6   9
ENDBRANCH   2   3
TORSDOF 8
ENDMDL
MODEL      240
REMARK 921   NORMALIZED FREE ENERGY PREDICTED BY IDOCK:   -4.13 KCAL/MOL
REMARK 922        TOTAL FREE ENERGY PREDICTED BY IDOCK:   -7.56 KCAL/MOL
REMARK 923 INTER-LIGAND FREE ENERGY PREDICTED BY IDOCK:   -6.84 KCAL/MOL
REMARK 924 INTRA-LIGAND FREE ENERGY PREDICTED BY IDOCK:   -0.72 KCAL/MOL
REMARK 927      BINDING AFFINITY PREDICTED BY RF-SCORE:    0.00 PKD
ROOT
HETATM    1  C   UNL     1     -10.516   9.435  70.959  1.00  0.00    -0.322 C  
HETATM    2  O   UNL     1     -11.912   9.550  71.217  1.00  0.00    -0.313 OA 
ENDROOT
BRANCH   2   3
HETATM    3  C   UNL     1     -12.387  10.832  71.241  1.00  0.00    -0.365 A  
HETATM    4  C   UNL     1     -11.862  11.693  70.279  1.00  0.00    -0.414 A  
HETATM    5  C   UNL     1     -12.247  13.035  70.246  1.00  0.00    -0.368 A  
HETATM    6  C   UNL     1     -13.190  13.523  71.160  1.00  0.00    -0.218 A  
HETATM    7  C   UNL     1     -13.351  11.302  72.129  1.00  0.00    -0.263 A  
HETATM    8  C   UNL     1     -13.749  12.640  72.091  1.00  0.00    -0.406 A  
BRANCH   6   9
HETATM    9  C   UNL     1     -13.522  14.994  71.240  1.00  0.00    -0.520 C  
BRANCH   9  10
HETATM   10  C   UNL     1     -12.484  15.892  71.956  1.00  0.00    -0.464 C  
HETATM   11  C   UNL     1     -11.965  15.208  73.225  1.00  0.00    -0.474 C  
BRANCH  10  12
HETATM   12  N   UNL     1     -11.317  16.218  71.108  1.00  0.00    -0.424 NA 
HETATM   13  H   UNL     1     -10.559  15.554  71.261  1.00  0.00     0.000 HD 
BRANCH  12  14
HETATM   14  C   UNL     1     -11.655  16.310  69.681  1.00  0.00    -0.150 C  
BRANCH  14  15
HETATM   15  C   UNL     1     -10.529  16.930  68.813  1.00  0.00    -0.343 C  
HETATM   16  H   UNL     1      -9.139  18.299  69.047  1.00  0.00     0.000 HD 
HETATM   17  O   UNL     1      -9.828  17.919  69.579  1.00  0.00     0.014 OA 
BRANCH  15  18
HETATM   18  C   UNL     1      -9.557  15.858  68.336  1.00  0.00    -0.208 A  
HETATM   19  C   UNL     1      -9.783  15.149  67.136  1.00  0.00    -0.230 A  
HETATM   20  C   UNL     1      -8.880  14.185  66.676  1.00  0.00    -0.114 A  
HETATM   21  H   UNL     1      -6.038  12.813  67.585  1.00  0.00     0.000 HD 
HETATM   22  C   UNL     1      -7.728  13.937  67.431  1.00  0.00    -0.148 A  
HETATM   23  C   UNL     1      -8.396  15.582  69.068  1.00  0.00    -0.227 A  
HETATM   24  C   UNL     1      -7.482  14.632  68.612  1.00  0.00    -0.125 A  
HETATM   25  O   UNL     1      -6.819  12.981  67.073  1.00  0.00    -0.058 OA 
BRANCH  20  26
HETATM   26  N   UNL     1      -9.075  13.488  65.469  1.00  0.00     0.004 N  
HETATM   27  H   UNL     1      -8.234  13.218  64.960  1.00  0.00     0.000 HD 
HETATM   28  O   UNL     1     -10.332  12.551  63.828  1.00  0.00    -0.418 OA 
HETATM   29  C   UNL     1     -10.264  13.133  64.905  1.00  0.00    -0.287 C  
ENDBRANCH  20  26
ENDBRANCH  15  18
ENDBRANCH  14  15
ENDBRANCH  12  14
ENDBRANCH  10  12
ENDBRANCH   9  10
ENDBRANCH   6   9
ENDBRANCH   2   3
TORSDOF 8
ENDMDL
MODEL      241
REMARK 921   NORMALIZED FREE ENERGY PREDICTED BY IDOCK:   -4.12 KCAL/MOL
REMARK 922        TOTAL FREE ENERGY PREDICTED BY IDOCK:   -7.54 KCAL/MOL
REMARK 923 INTER-LIGAND FREE ENERGY PREDICTED BY IDOCK:   -6.80 KCAL/MOL
REMARK 924 INTRA-LIGAND FREE ENERGY PREDICTED BY IDOCK:   -0.74 KCAL/MOL
REMARK 927      BINDING AFFINITY PREDICTED BY RF-SCORE:    0.00 PKD
ROOT
HETATM    1  C   UNL     1     -10.582  17.263  65.430  1.00  0.00    -0.072 C  
HETATM    2  O   UNL     1     -10.926  16.162  64.594  1.00  0.00    -0.642 OA 
ENDROOT
BRANCH   2   3
HETATM    3  C   UNL     1     -11.097  14.976  65.253  1.00  0.00    -0.386 A  
HETATM    4  C   UNL     1     -10.027  14.557  66.042  1.00  0.00    -0.343 A  
HETATM    5  C   UNL     1     -10.084  13.338  66.721  1.00  0.00    -0.258 A  
HETATM    6  C   UNL     1     -11.230  12.537  66.643  1.00  0.00    -0.357 A  
HETATM    7  C   UNL     1     -12.254  14.201  65.200  1.00  0.00    -0.439 A  
HETATM    8  C   UNL     1     -12.319  12.988  65.888  1.00  0.00    -0.432 A  
BRANCH   6   9
HETATM    9  C   UNL     1     -11.270  11.155  67.249  1.00  0.00    -0.347 C  
BRANCH   9  10
HETATM   10  C   UNL     1     -11.050  11.071  68.779  1.00  0.00    -0.239 C  
HETATM   11  C   UNL     1     -11.968  12.057  69.509  1.00  0.00    -0.346 C  
BRANCH  10  12
HETATM   12  N   UNL     1     -11.307   9.722  69.329  1.00  0.00    -0.441 NA 
HETATM   13  H   UNL     1     -10.902   9.002  68.730  1.00  0.00     0.000 HD 
BRANCH  12  14
HETATM   14  C   UNL     1     -10.846   9.573  70.715  1.00  0.00    -0.318 C  
BRANCH  14  15
HETATM   15  C   UNL     1      -9.471   8.866  70.842  1.00  0.00    -0.236 C  
HETATM   16  H   UNL     1      -8.231   8.411  72.297  1.00  0.00     0.000 HD 
HETATM   17  O   UNL     1      -9.073   8.844  72.219  1.00  0.00    -0.381 OA 
BRANCH  15  18
HETATM   18  C   UNL     1      -9.537   7.444  70.297  1.00  0.00    -0.165 A  
HETATM   19  C   UNL     1      -8.750   7.047  69.195  1.00  0.00    -0.132 A  
HETATM   20  C   UNL     1      -8.782   5.736  68.709  1.00  0.00    -0.108 A  
HETATM   21  H   UNL     1     -10.300   2.892  69.341  1.00  0.00     0.000 HD 
HETATM   22  C   UNL     1      -9.614   4.809  69.348  1.00  0.00    -0.179 A  
HETATM   23  C   UNL     1     -10.361   6.492  70.911  1.00  0.00    -0.243 A  
HETATM   24  C   UNL     1     -10.391   5.178  70.442  1.00  0.00    -0.326 A  
HETATM   25  O   UNL     1      -9.735   3.521  68.907  1.00  0.00    -0.125 OA 
BRANCH  20  26
HETATM   26  N   UNL     1      -7.985   5.314  67.628  1.00  0.00    -0.099 N  
HETATM   27  H   UNL     1      -7.116   4.836  67.865  1.00  0.00     0.000 HD 
HETATM   28  O   UNL     1      -7.468   5.100  65.429  1.00  0.00    -0.074 OA 
HETATM   29  C   UNL     1      -8.245   5.475  66.300  1.00  0.00    -0.111 C  
ENDBRANCH  20  26
ENDBRANCH  15  18
ENDBRANCH  14  15
ENDBRANCH  12  14
ENDBRANCH  10  12
ENDBRANCH   9  10
ENDBRANCH   6   9
ENDBRANCH   2   3
TORSDOF 8
ENDMDL
MODEL      242
REMARK 921   NORMALIZED FREE ENERGY PREDICTED BY IDOCK:   -4.12 KCAL/MOL
REMARK 922        TOTAL FREE ENERGY PREDICTED BY IDOCK:   -7.54 KCAL/MOL
REMARK 923 INTER-LIGAND FREE ENERGY PREDICTED BY IDOCK:   -7.77 KCAL/MOL
REMARK 924 INTRA-LIGAND FREE ENERGY PREDICTED BY IDOCK:    0.23 KCAL/MOL
REMARK 927      BINDING AFFINITY PREDICTED BY RF-SCORE:    0.00 PKD
ROOT
HETATM    1  C   UNL     1     -10.632  19.461  66.456  1.00  0.00    -0.458 C  
HETATM    2  O   UNL     1      -9.915  18.436  65.773  1.00  0.00    -0.523 OA 
ENDROOT
BRANCH   2   3
HETATM    3  C   UNL     1      -9.889  17.231  66.417  1.00  0.00    -0.299 A  
HETATM    4  C   UNL     1      -8.928  16.324  65.972  1.00  0.00    -0.325 A  
HETATM    5  C   UNL     1      -8.846  15.048  66.534  1.00  0.00    -0.286 A  
HETATM    6  C   UNL     1      -9.708  14.676  67.573  1.00  0.00    -0.210 A  
HETATM    7  C   UNL     1     -10.724  16.880  67.474  1.00  0.00    -0.270 A  
HETATM    8  C   UNL     1     -10.637  15.610  68.047  1.00  0.00    -0.271 A  
BRANCH   6   9
HETATM    9  C   UNL     1      -9.739  13.263  68.105  1.00  0.00    -0.227 C  
BRANCH   9  10
HETATM   10  C   UNL     1     -11.118  12.739  68.576  1.00  0.00    -0.266 C  
HETATM   11  C   UNL     1     -11.737  11.823  67.514  1.00  0.00    -0.312 C  
BRANCH  10  12
HETATM   12  N   UNL     1     -11.047  11.979  69.843  1.00  0.00    -0.461 NA 
HETATM   13  H   UNL     1     -10.949  12.608  70.640  1.00  0.00     0.000 HD 
BRANCH  12  14
HETATM   14  C   UNL     1     -12.184  11.069  70.028  1.00  0.00    -0.343 C  
BRANCH  14  15
HETATM   15  C   UNL     1     -12.272  10.463  71.453  1.00  0.00    -0.362 C  
HETATM   16  H   UNL     1     -13.683   9.717  72.600  1.00  0.00     0.000 HD 
HETATM   17  O   UNL     1     -13.629  10.088  71.727  1.00  0.00    -0.325 OA 
BRANCH  15  18
HETATM   18  C   UNL     1     -11.360   9.250  71.586  1.00  0.00    -0.467 A  
HETATM   19  C   UNL     1     -11.829   8.043  72.149  1.00  0.00    -0.401 A  
HETATM   20  C   UNL     1     -11.007   6.915  72.246  1.00  0.00    -0.242 A  
HETATM   21  H   UNL     1      -7.929   6.018  71.530  1.00  0.00     0.000 HD 
HETATM   22  C   UNL     1      -9.696   7.002  71.761  1.00  0.00    -0.158 A  
HETATM   23  C   UNL     1     -10.043   9.303  71.114  1.00  0.00    -0.374 A  
HETATM   24  C   UNL     1      -9.218   8.180  71.194  1.00  0.00    -0.185 A  
HETATM   25  O   UNL     1      -8.818   5.959  71.859  1.00  0.00    -0.138 OA 
BRANCH  20  26
HETATM   26  N   UNL     1     -11.464   5.695  72.780  1.00  0.00    -0.415 N  
HETATM   27  H   UNL     1     -12.459   5.499  72.675  1.00  0.00     0.000 HD 
HETATM   28  O   UNL     1     -11.222   3.726  73.881  1.00  0.00    -0.193 OA 
HETATM   29  C   UNL     1     -10.723   4.747  73.420  1.00  0.00    -0.257 C  
ENDBRANCH  20  26
ENDBRANCH  15  18
ENDBRANCH  14  15
ENDBRANCH  12  14
ENDBRANCH  10  12
ENDBRANCH   9  10
ENDBRANCH   6   9
ENDBRANCH   2   3
TORSDOF 8
ENDMDL
MODEL      243
REMARK 921   NORMALIZED FREE ENERGY PREDICTED BY IDOCK:   -4.11 KCAL/MOL
REMARK 922        TOTAL FREE ENERGY PREDICTED BY IDOCK:   -7.52 KCAL/MOL
REMARK 923 INTER-LIGAND FREE ENERGY PREDICTED BY IDOCK:   -6.88 KCAL/MOL
REMARK 924 INTRA-LIGAND FREE ENERGY PREDICTED BY IDOCK:   -0.64 KCAL/MOL
REMARK 927      BINDING AFFINITY PREDICTED BY RF-SCORE:    0.00 PKD
ROOT
HETATM    1  C   UNL     1     -11.120   1.616  73.221  1.00  0.00    -0.162 C  
HETATM    2  O   UNL     1     -10.209   2.684  73.464  1.00  0.00    -0.103 OA 
ENDROOT
BRANCH   2   3
HETATM    3  C   UNL     1     -10.399   3.787  72.680  1.00  0.00    -0.151 A  
HETATM    4  C   UNL     1     -11.237   4.770  73.206  1.00  0.00    -0.421 A  
HETATM    5  C   UNL     1     -11.531   5.917  72.465  1.00  0.00    -0.347 A  
HETATM    6  C   UNL     1     -10.962   6.108  71.200  1.00  0.00    -0.343 A  
HETATM    7  C   UNL     1      -9.801   3.989  71.439  1.00  0.00    -0.249 A  
HETATM    8  C   UNL     1     -10.083   5.140  70.701  1.00  0.00    -0.309 A  
BRANCH   6   9
HETATM    9  C   UNL     1     -11.368   7.265  70.319  1.00  0.00    -0.266 C  
BRANCH   9  10
HETATM   10  C   UNL     1     -11.406   8.659  70.993  1.00  0.00    -0.274 C  
HETATM   11  C   UNL     1      -9.997   9.093  71.411  1.00  0.00    -0.373 C  
BRANCH  10  12
HETATM   12  N   UNL     1     -11.962   9.712  70.115  1.00  0.00    -0.464 NA 
HETATM   13  H   UNL     1     -12.893   9.990  70.425  1.00  0.00     0.000 HD 
BRANCH  12  14
HETATM   14  C   UNL     1     -11.079  10.879  69.993  1.00  0.00    -0.211 C  
BRANCH  14  15
HETATM   15  C   UNL     1     -10.857  11.342  68.530  1.00  0.00    -0.211 C  
HETATM   16  H   UNL     1     -11.791  11.138  66.813  1.00  0.00     0.000 HD 
HETATM   17  O   UNL     1     -11.927  10.855  67.710  1.00  0.00    -0.553 OA 
BRANCH  15  18
HETATM   18  C   UNL     1     -10.787  12.862  68.444  1.00  0.00    -0.276 A  
HETATM   19  C   UNL     1      -9.572  13.522  68.160  1.00  0.00    -0.215 A  
HETATM   20  C   UNL     1      -9.505  14.915  68.050  1.00  0.00    -0.198 A  
HETATM   21  H   UNL     1     -11.492  17.520  68.286  1.00  0.00     0.000 HD 
HETATM   22  C   UNL     1     -10.683  15.653  68.219  1.00  0.00    -0.283 A  
HETATM   23  C   UNL     1     -11.945  13.632  68.611  1.00  0.00    -0.395 A  
HETATM   24  C   UNL     1     -11.893  15.021  68.490  1.00  0.00    -0.319 A  
HETATM   25  O   UNL     1     -10.694  17.019  68.171  1.00  0.00    -0.358 OA 
BRANCH  20  26
HETATM   26  N   UNL     1      -8.309  15.589  67.741  1.00  0.00    -0.142 N  
HETATM   27  H   UNL     1      -8.177  15.855  66.765  1.00  0.00     0.000 HD 
HETATM   28  O   UNL     1      -6.282  16.486  68.228  1.00  0.00    -0.119 OA 
HETATM   29  C   UNL     1      -7.307  15.925  68.601  1.00  0.00    -0.141 C  
ENDBRANCH  20  26
ENDBRANCH  15  18
ENDBRANCH  14  15
ENDBRANCH  12  14
ENDBRANCH  10  12
ENDBRANCH   9  10
ENDBRANCH   6   9
ENDBRANCH   2   3
TORSDOF 8
ENDMDL
MODEL      244
REMARK 921   NORMALIZED FREE ENERGY PREDICTED BY IDOCK:   -4.11 KCAL/MOL
REMARK 922        TOTAL FREE ENERGY PREDICTED BY IDOCK:   -7.52 KCAL/MOL
REMARK 923 INTER-LIGAND FREE ENERGY PREDICTED BY IDOCK:   -6.36 KCAL/MOL
REMARK 924 INTRA-LIGAND FREE ENERGY PREDICTED BY IDOCK:   -1.16 KCAL/MOL
REMARK 927      BINDING AFFINITY PREDICTED BY RF-SCORE:    0.00 PKD
ROOT
HETATM    1  C   UNL     1     -13.699  13.465  72.362  1.00  0.00    -0.597 C  
HETATM    2  O   UNL     1     -12.961  14.560  71.827  1.00  0.00    -0.311 OA 
ENDROOT
BRANCH   2   3
HETATM    3  C   UNL     1     -12.495  14.369  70.556  1.00  0.00    -0.350 A  
HETATM    4  C   UNL     1     -12.493  13.052  70.100  1.00  0.00    -0.166 A  
HETATM    5  C   UNL     1     -11.995  12.743  68.832  1.00  0.00    -0.286 A  
HETATM    6  C   UNL     1     -11.522  13.759  67.992  1.00  0.00    -0.344 A  
HETATM    7  C   UNL     1     -12.059  15.387  69.712  1.00  0.00    -0.373 A  
HETATM    8  C   UNL     1     -11.573  15.085  68.439  1.00  0.00    -0.352 A  
BRANCH   6   9
HETATM    9  C   UNL     1     -10.851  13.446  66.676  1.00  0.00    -0.285 C  
BRANCH   9  10
HETATM   10  C   UNL     1     -10.109  12.090  66.592  1.00  0.00    -0.198 C  
HETATM   11  C   UNL     1     -10.083  11.579  65.147  1.00  0.00    -0.313 C  
BRANCH  10  12
HETATM   12  N   UNL     1      -8.711  12.163  67.070  1.00  0.00    -0.185 NA 
HETATM   13  H   UNL     1      -8.384  13.129  67.094  1.00  0.00     0.000 HD 
BRANCH  12  14
HETATM   14  C   UNL     1      -8.518  11.510  68.372  1.00  0.00    -0.159 C  
BRANCH  14  15
HETATM   15  C   UNL     1      -8.501   9.961  68.295  1.00  0.00    -0.111 C  
HETATM   16  H   UNL     1      -7.135   8.549  68.304  1.00  0.00     0.000 HD 
HETATM   17  O   UNL     1      -7.145   9.497  68.351  1.00  0.00    -0.070 OA 
BRANCH  15  18
HETATM   18  C   UNL     1      -9.306   9.351  69.437  1.00  0.00    -0.172 A  
HETATM   19  C   UNL     1      -8.951   8.105  69.995  1.00  0.00    -0.143 A  
HETATM   20  C   UNL     1      -9.666   7.552  71.064  1.00  0.00    -0.167 A  
HETATM   21  H   UNL     1     -12.260   8.269  72.947  1.00  0.00     0.000 HD 
HETATM   22  C   UNL     1     -10.749   8.272  71.582  1.00  0.00    -0.256 A  
HETATM   23  C   UNL     1     -10.397  10.042  69.978  1.00  0.00    -0.323 A  
HETATM   24  C   UNL     1     -11.109   9.507  71.052  1.00  0.00    -0.433 A  
HETATM   25  O   UNL     1     -11.525   7.782  72.595  1.00  0.00    -0.354 OA 
BRANCH  20  26
HETATM   26  N   UNL     1      -9.311   6.324  71.651  1.00  0.00    -0.148 N  
HETATM   27  H   UNL     1      -9.042   6.352  72.634  1.00  0.00     0.000 HD 
HETATM   28  O   UNL     1      -8.930   4.087  71.642  1.00  0.00    -0.111 OA 
HETATM   29  C   UNL     1      -9.287   5.100  71.052  1.00  0.00    -0.151 C  
ENDBRANCH  20  26
ENDBRANCH  15  18
ENDBRANCH  14  15
ENDBRANCH  12  14
ENDBRANCH  10  12
ENDBRANCH   9  10
ENDBRANCH   6   9
ENDBRANCH   2   3
TORSDOF 8
ENDMDL
MODEL      245
REMARK 921   NORMALIZED FREE ENERGY PREDICTED BY IDOCK:   -4.10 KCAL/MOL
REMARK 922        TOTAL FREE ENERGY PREDICTED BY IDOCK:   -7.51 KCAL/MOL
REMARK 923 INTER-LIGAND FREE ENERGY PREDICTED BY IDOCK:   -6.77 KCAL/MOL
REMARK 924 INTRA-LIGAND FREE ENERGY PREDICTED BY IDOCK:   -0.74 KCAL/MOL
REMARK 927      BINDING AFFINITY PREDICTED BY RF-SCORE:    0.00 PKD
ROOT
HETATM    1  C   UNL     1     -10.963   1.856  63.136  1.00  0.00    -0.238 C  
HETATM    2  O   UNL     1      -9.648   2.159  63.593  1.00  0.00    -0.108 OA 
ENDROOT
BRANCH   2   3
HETATM    3  C   UNL     1      -9.598   2.872  64.759  1.00  0.00    -0.104 A  
HETATM    4  C   UNL     1     -10.450   3.973  64.836  1.00  0.00    -0.175 A  
HETATM    5  C   UNL     1     -10.444   4.794  65.966  1.00  0.00    -0.332 A  
HETATM    6  C   UNL     1      -9.604   4.500  67.049  1.00  0.00    -0.210 A  
HETATM    7  C   UNL     1      -8.788   2.555  65.846  1.00  0.00    -0.131 A  
HETATM    8  C   UNL     1      -8.788   3.365  66.983  1.00  0.00    -0.148 A  
BRANCH   6   9
HETATM    9  C   UNL     1      -9.472   5.442  68.222  1.00  0.00    -0.146 C  
BRANCH   9  10
HETATM   10  C   UNL     1     -10.724   5.597  69.120  1.00  0.00    -0.255 C  
HETATM   11  C   UNL     1     -10.330   5.571  70.601  1.00  0.00    -0.332 C  
BRANCH  10  12
HETATM   12  N   UNL     1     -11.464   6.853  68.871  1.00  0.00    -0.540 NA 
HETATM   13  H   UNL     1     -11.976   7.145  69.703  1.00  0.00     0.000 HD 
BRANCH  12  14
HETATM   14  C   UNL     1     -10.604   7.935  68.376  1.00  0.00    -0.107 C  
BRANCH  14  15
HETATM   15  C   UNL     1     -10.617   9.201  69.272  1.00  0.00    -0.216 C  
HETATM   16  H   UNL     1      -9.348  10.122  70.456  1.00  0.00     0.000 HD 
HETATM   17  O   UNL     1      -9.340   9.347  69.907  1.00  0.00    -0.183 OA 
BRANCH  15  18
HETATM   18  C   UNL     1     -10.934  10.445  68.451  1.00  0.00    -0.312 A  
HETATM   19  C   UNL     1     -11.509  11.587  69.050  1.00  0.00    -0.355 A  
HETATM   20  C   UNL     1     -11.775  12.744  68.309  1.00  0.00    -0.344 A  
HETATM   21  H   UNL     1     -11.495  13.834  65.223  1.00  0.00     0.000 HD 
HETATM   22  C   UNL     1     -11.449  12.754  66.948  1.00  0.00    -0.340 A  
HETATM   23  C   UNL     1     -10.624  10.488  67.086  1.00  0.00    -0.319 A  
HETATM   24  C   UNL     1     -10.872  11.641  66.341  1.00  0.00    -0.333 A  
HETATM   25  O   UNL     1     -11.717  13.828  66.147  1.00  0.00    -0.339 OA 
BRANCH  20  26
HETATM   26  N   UNL     1     -12.323  13.902  68.894  1.00  0.00    -0.454 N  
HETATM   27  H   UNL     1     -12.767  14.564  68.258  1.00  0.00     0.000 HD 
HETATM   28  O   UNL     1     -12.803  15.288  70.625  1.00  0.00    -0.397 OA 
HETATM   29  C   UNL     1     -12.326  14.235  70.215  1.00  0.00    -0.354 C  
ENDBRANCH  20  26
ENDBRANCH  15  18
ENDBRANCH  14  15
ENDBRANCH  12  14
ENDBRANCH  10  12
ENDBRANCH   9  10
ENDBRANCH   6   9
ENDBRANCH   2   3
TORSDOF 8
ENDMDL
MODEL      246
REMARK 921   NORMALIZED FREE ENERGY PREDICTED BY IDOCK:   -4.10 KCAL/MOL
REMARK 922        TOTAL FREE ENERGY PREDICTED BY IDOCK:   -7.51 KCAL/MOL
REMARK 923 INTER-LIGAND FREE ENERGY PREDICTED BY IDOCK:   -6.88 KCAL/MOL
REMARK 924 INTRA-LIGAND FREE ENERGY PREDICTED BY IDOCK:   -0.63 KCAL/MOL
REMARK 927      BINDING AFFINITY PREDICTED BY RF-SCORE:    0.00 PKD
ROOT
HETATM    1  C   UNL     1     -11.102   2.551  73.426  1.00  0.00    -0.188 C  
HETATM    2  O   UNL     1     -10.585   3.849  73.703  1.00  0.00    -0.166 OA 
ENDROOT
BRANCH   2   3
HETATM    3  C   UNL     1     -10.523   4.682  72.620  1.00  0.00    -0.199 A  
HETATM    4  C   UNL     1     -11.389   5.775  72.644  1.00  0.00    -0.349 A  
HETATM    5  C   UNL     1     -11.436   6.662  71.566  1.00  0.00    -0.343 A  
HETATM    6  C   UNL     1     -10.591   6.482  70.464  1.00  0.00    -0.282 A  
HETATM    7  C   UNL     1      -9.655   4.519  71.544  1.00  0.00    -0.227 A  
HETATM    8  C   UNL     1      -9.690   5.411  70.471  1.00  0.00    -0.246 A  
BRANCH   6   9
HETATM    9  C   UNL     1     -10.715   7.339  69.227  1.00  0.00    -0.212 C  
BRANCH   9  10
HETATM   10  C   UNL     1     -10.767   8.870  69.456  1.00  0.00    -0.199 C  
HETATM   11  C   UNL     1      -9.463   9.364  70.090  1.00  0.00    -0.276 C  
BRANCH  10  12
HETATM   12  N   UNL     1     -10.983   9.635  68.209  1.00  0.00    -0.458 NA 
HETATM   13  H   UNL     1     -11.976   9.692  67.984  1.00  0.00     0.000 HD 
BRANCH  12  14
HETATM   14  C   UNL     1     -10.376  10.972  68.246  1.00  0.00    -0.178 C  
BRANCH  14  15
HETATM   15  C   UNL     1      -9.551  11.317  66.979  1.00  0.00    -0.178 C  
HETATM   16  H   UNL     1      -9.158  10.457  65.256  1.00  0.00     0.000 HD 
HETATM   17  O   UNL     1      -9.663  10.245  66.033  1.00  0.00    -0.193 OA 
BRANCH  15  18
HETATM   18  C   UNL     1     -10.038  12.617  66.350  1.00  0.00    -0.263 A  
HETATM   19  C   UNL     1      -9.334  13.826  66.536  1.00  0.00    -0.249 A  
HETATM   20  C   UNL     1      -9.757  15.018  65.938  1.00  0.00    -0.342 A  
HETATM   21  H   UNL     1     -12.183  16.098  64.004  1.00  0.00     0.000 HD 
HETATM   22  C   UNL     1     -10.903  14.989  65.133  1.00  0.00    -0.407 A  
HETATM   23  C   UNL     1     -11.182  12.625  65.542  1.00  0.00    -0.337 A  
HETATM   24  C   UNL     1     -11.606  13.805  64.930  1.00  0.00    -0.362 A  
HETATM   25  O   UNL     1     -11.406  16.118  64.550  1.00  0.00    -0.497 OA 
BRANCH  20  26
HETATM   26  N   UNL     1      -9.053  16.227  66.089  1.00  0.00    -0.329 N  
HETATM   27  H   UNL     1      -8.992  16.823  65.264  1.00  0.00     0.000 HD 
HETATM   28  O   UNL     1      -7.824  17.748  67.241  1.00  0.00    -0.205 OA 
HETATM   29  C   UNL     1      -8.444  16.690  67.217  1.00  0.00    -0.194 C  
ENDBRANCH  20  26
ENDBRANCH  15  18
ENDBRANCH  14  15
ENDBRANCH  12  14
ENDBRANCH  10  12
ENDBRANCH   9  10
ENDBRANCH   6   9
ENDBRANCH   2   3
TORSDOF 8
ENDMDL
MODEL      247
REMARK 921   NORMALIZED FREE ENERGY PREDICTED BY IDOCK:   -4.10 KCAL/MOL
REMARK 922        TOTAL FREE ENERGY PREDICTED BY IDOCK:   -7.51 KCAL/MOL
REMARK 923 INTER-LIGAND FREE ENERGY PREDICTED BY IDOCK:   -6.25 KCAL/MOL
REMARK 924 INTRA-LIGAND FREE ENERGY PREDICTED BY IDOCK:   -1.26 KCAL/MOL
REMARK 927      BINDING AFFINITY PREDICTED BY RF-SCORE:    0.00 PKD
ROOT
HETATM    1  C   UNL     1     -11.548  16.189  70.910  1.00  0.00    -0.371 C  
HETATM    2  O   UNL     1     -12.624  15.493  70.288  1.00  0.00    -0.403 OA 
ENDROOT
BRANCH   2   3
HETATM    3  C   UNL     1     -12.348  14.197  69.950  1.00  0.00    -0.327 A  
HETATM    4  C   UNL     1     -12.505  13.256  70.966  1.00  0.00    -0.422 A  
HETATM    5  C   UNL     1     -12.206  11.911  70.737  1.00  0.00    -0.401 A  
HETATM    6  C   UNL     1     -11.775  11.488  69.473  1.00  0.00    -0.413 A  
HETATM    7  C   UNL     1     -11.955  13.777  68.681  1.00  0.00    -0.401 A  
HETATM    8  C   UNL     1     -11.667  12.431  68.445  1.00  0.00    -0.386 A  
BRANCH   6   9
HETATM    9  C   UNL     1     -11.311  10.071  69.231  1.00  0.00    -0.169 C  
BRANCH   9  10
HETATM   10  C   UNL     1      -9.825   9.895  68.835  1.00  0.00    -0.176 C  
HETATM   11  C   UNL     1      -9.009   9.380  70.026  1.00  0.00    -0.234 C  
BRANCH  10  12
HETATM   12  N   UNL     1      -9.631   8.953  67.712  1.00  0.00    -0.144 NA 
HETATM   13  H   UNL     1      -8.937   8.244  67.947  1.00  0.00     0.000 HD 
BRANCH  12  14
HETATM   14  C   UNL     1     -10.885   8.332  67.264  1.00  0.00    -0.033 C  
BRANCH  14  15
HETATM   15  C   UNL     1     -10.816   6.785  67.172  1.00  0.00    -0.392 C  
HETATM   16  H   UNL     1      -9.726   5.462  66.212  1.00  0.00     0.000 HD 
HETATM   17  O   UNL     1      -9.768   6.410  66.268  1.00  0.00    -0.133 OA 
BRANCH  15  18
HETATM   18  C   UNL     1     -10.566   6.169  68.543  1.00  0.00    -0.327 A  
HETATM   19  C   UNL     1      -9.422   5.380  68.791  1.00  0.00    -0.168 A  
HETATM   20  C   UNL     1      -9.170   4.836  70.055  1.00  0.00    -0.119 A  
HETATM   21  H   UNL     1     -10.545   4.746  73.037  1.00  0.00     0.000 HD 
HETATM   22  C   UNL     1     -10.079   5.098  71.086  1.00  0.00    -0.222 A  
HETATM   23  C   UNL     1     -11.457   6.408  69.597  1.00  0.00    -0.446 A  
HETATM   24  C   UNL     1     -11.208   5.882  70.865  1.00  0.00    -0.278 A  
HETATM   25  O   UNL     1      -9.927   4.568  72.337  1.00  0.00    -0.158 OA 
BRANCH  20  26
HETATM   26  N   UNL     1      -8.021   4.069  70.328  1.00  0.00    -0.051 N  
HETATM   27  H   UNL     1      -7.180   4.587  70.582  1.00  0.00     0.000 HD 
HETATM   28  O   UNL     1      -6.851   2.135  70.514  1.00  0.00    -0.032 OA 
HETATM   29  C   UNL     1      -7.909   2.712  70.291  1.00  0.00    -0.042 C  
ENDBRANCH  20  26
ENDBRANCH  15  18
ENDBRANCH  14  15
ENDBRANCH  12  14
ENDBRANCH  10  12
ENDBRANCH   9  10
ENDBRANCH   6   9
ENDBRANCH   2   3
TORSDOF 8
ENDMDL
MODEL      248
REMARK 921   NORMALIZED FREE ENERGY PREDICTED BY IDOCK:   -4.10 KCAL/MOL
REMARK 922        TOTAL FREE ENERGY PREDICTED BY IDOCK:   -7.51 KCAL/MOL
REMARK 923 INTER-LIGAND FREE ENERGY PREDICTED BY IDOCK:   -6.66 KCAL/MOL
REMARK 924 INTRA-LIGAND FREE ENERGY PREDICTED BY IDOCK:   -0.85 KCAL/MOL
REMARK 927      BINDING AFFINITY PREDICTED BY RF-SCORE:    0.00 PKD
ROOT
HETATM    1  C   UNL     1     -10.066  17.755  66.175  1.00  0.00    -0.304 C  
HETATM    2  O   UNL     1     -10.217  16.421  65.698  1.00  0.00    -0.432 OA 
ENDROOT
BRANCH   2   3
HETATM    3  C   UNL     1     -10.692  15.533  66.622  1.00  0.00    -0.306 A  
HETATM    4  C   UNL     1     -10.157  15.646  67.905  1.00  0.00    -0.225 A  
HETATM    5  C   UNL     1     -10.543  14.758  68.912  1.00  0.00    -0.250 A  
HETATM    6  C   UNL     1     -11.496  13.764  68.652  1.00  0.00    -0.336 A  
HETATM    7  C   UNL     1     -11.666  14.570  66.367  1.00  0.00    -0.372 A  
HETATM    8  C   UNL     1     -12.063  13.689  67.375  1.00  0.00    -0.375 A  
BRANCH   6   9
HETATM    9  C   UNL     1     -11.830  12.705  69.675  1.00  0.00    -0.379 C  
BRANCH   9  10
HETATM   10  C   UNL     1     -12.359  11.360  69.120  1.00  0.00    -0.031 C  
HETATM   11  C   UNL     1     -11.236  10.588  68.418  1.00  0.00    -0.339 C  
BRANCH  10  12
HETATM   12  N   UNL     1     -12.924  10.482  70.168  1.00  0.00    -0.461 NA 
HETATM   13  H   UNL     1     -13.160   9.566  69.788  1.00  0.00     0.000 HD 
BRANCH  12  14
HETATM   14  C   UNL     1     -12.049  10.356  71.341  1.00  0.00    -0.327 C  
BRANCH  14  15
HETATM   15  C   UNL     1     -12.032   8.932  71.955  1.00  0.00    -0.371 C  
HETATM   16  H   UNL     1     -13.368   7.618  72.546  1.00  0.00     0.000 HD 
HETATM   17  O   UNL     1     -13.379   8.490  72.170  1.00  0.00    -0.344 OA 
BRANCH  15  18
HETATM   18  C   UNL     1     -11.305   7.954  71.039  1.00  0.00    -0.292 A  
HETATM   19  C   UNL     1      -9.989   8.209  70.595  1.00  0.00    -0.204 A  
HETATM   20  C   UNL     1      -9.304   7.302  69.780  1.00  0.00    -0.150 A  
HETATM   21  H   UNL     1      -9.806   4.395  68.335  1.00  0.00     0.000 HD 
HETATM   22  C   UNL     1      -9.951   6.116  69.413  1.00  0.00    -0.166 A  
HETATM   23  C   UNL     1     -11.923   6.759  70.651  1.00  0.00    -0.418 A  
HETATM   24  C   UNL     1     -11.244   5.841  69.848  1.00  0.00    -0.193 A  
HETATM   25  O   UNL     1      -9.367   5.200  68.584  1.00  0.00    -0.115 OA 
BRANCH  20  26
HETATM   26  N   UNL     1      -7.983   7.527  69.350  1.00  0.00    -0.121 N  
HETATM   27  H   UNL     1      -7.306   6.795  69.564  1.00  0.00     0.000 HD 
HETATM   28  O   UNL     1      -6.327   8.733  68.374  1.00  0.00    -0.053 OA 
HETATM   29  C   UNL     1      -7.509   8.614  68.679  1.00  0.00    -0.096 C  
ENDBRANCH  20  26
ENDBRANCH  15  18
ENDBRANCH  14  15
ENDBRANCH  12  14
ENDBRANCH  10  12
ENDBRANCH   9  10
ENDBRANCH   6   9
ENDBRANCH   2   3
TORSDOF 8
ENDMDL
MODEL      249
REMARK 921   NORMALIZED FREE ENERGY PREDICTED BY IDOCK:   -4.07 KCAL/MOL
REMARK 922        TOTAL FREE ENERGY PREDICTED BY IDOCK:   -7.47 KCAL/MOL
REMARK 923 INTER-LIGAND FREE ENERGY PREDICTED BY IDOCK:   -6.85 KCAL/MOL
REMARK 924 INTRA-LIGAND FREE ENERGY PREDICTED BY IDOCK:   -0.62 KCAL/MOL
REMARK 927      BINDING AFFINITY PREDICTED BY RF-SCORE:    0.00 PKD
ROOT
HETATM    1  C   UNL     1      -6.428  21.337  66.605  1.00  0.00    -0.248 C  
HETATM    2  O   UNL     1      -7.511  21.036  67.480  1.00  0.00    -0.319 OA 
ENDROOT
BRANCH   2   3
HETATM    3  C   UNL     1      -8.049  19.790  67.316  1.00  0.00    -0.292 A  
HETATM    4  C   UNL     1      -7.299  18.900  66.548  1.00  0.00    -0.252 A  
HETATM    5  C   UNL     1      -7.781  17.615  66.284  1.00  0.00    -0.324 A  
HETATM    6  C   UNL     1      -9.007  17.197  66.814  1.00  0.00    -0.263 A  
HETATM    7  C   UNL     1      -9.252  19.367  67.876  1.00  0.00    -0.383 A  
HETATM    8  C   UNL     1      -9.730  18.080  67.625  1.00  0.00    -0.291 A  
BRANCH   6   9
HETATM    9  C   UNL     1      -9.620  15.870  66.434  1.00  0.00    -0.313 C  
BRANCH   9  10
HETATM   10  C   UNL     1      -8.908  14.606  66.977  1.00  0.00    -0.241 C  
HETATM   11  C   UNL     1      -8.477  14.815  68.433  1.00  0.00    -0.157 C  
BRANCH  10  12
HETATM   12  N   UNL     1      -9.756  13.396  66.925  1.00  0.00    -0.246 NA 
HETATM   13  H   UNL     1      -9.431  12.754  66.203  1.00  0.00     0.000 HD 
BRANCH  12  14
HETATM   14  C   UNL     1      -9.863  12.717  68.223  1.00  0.00    -0.227 C  
BRANCH  14  15
HETATM   15  C   UNL     1     -11.209  11.973  68.428  1.00  0.00    -0.262 C  
HETATM   16  H   UNL     1     -12.895  11.778  67.438  1.00  0.00     0.000 HD 
HETATM   17  O   UNL     1     -12.071  12.234  67.312  1.00  0.00    -0.548 OA 
BRANCH  15  18
HETATM   18  C   UNL     1     -10.985  10.473  68.572  1.00  0.00    -0.300 A  
HETATM   19  C   UNL     1     -10.635   9.677  67.459  1.00  0.00    -0.339 A  
HETATM   20  C   UNL     1     -10.398   8.304  67.589  1.00  0.00    -0.248 A  
HETATM   21  H   UNL     1     -10.405   5.994  69.924  1.00  0.00     0.000 HD 
HETATM   22  C   UNL     1     -10.505   7.727  68.859  1.00  0.00    -0.194 A  
HETATM   23  C   UNL     1     -11.087   9.861  69.828  1.00  0.00    -0.294 A  
HETATM   24  C   UNL     1     -10.839   8.495  69.971  1.00  0.00    -0.225 A  
HETATM   25  O   UNL     1     -10.332   6.386  69.062  1.00  0.00    -0.169 OA 
BRANCH  20  26
HETATM   26  N   UNL     1     -10.023   7.500  66.496  1.00  0.00    -0.423 N  
HETATM   27  H   UNL     1     -10.782   7.118  65.933  1.00  0.00     0.000 HD 
HETATM   28  O   UNL     1      -8.532   6.435  65.157  1.00  0.00    -0.140 OA 
HETATM   29  C   UNL     1      -8.757   7.174  66.109  1.00  0.00    -0.151 C  
ENDBRANCH  20  26
ENDBRANCH  15  18
ENDBRANCH  14  15
ENDBRANCH  12  14
ENDBRANCH  10  12
ENDBRANCH   9  10
ENDBRANCH   6   9
ENDBRANCH   2   3
TORSDOF 8
ENDMDL
MODEL      250
REMARK 921   NORMALIZED FREE ENERGY PREDICTED BY IDOCK:   -4.07 KCAL/MOL
REMARK 922        TOTAL FREE ENERGY PREDICTED BY IDOCK:   -7.46 KCAL/MOL
REMARK 923 INTER-LIGAND FREE ENERGY PREDICTED BY IDOCK:   -6.75 KCAL/MOL
REMARK 924 INTRA-LIGAND FREE ENERGY PREDICTED BY IDOCK:   -0.71 KCAL/MOL
REMARK 927      BINDING AFFINITY PREDICTED BY RF-SCORE:    0.00 PKD
ROOT
HETATM    1  C   UNL     1      -9.994  19.840  69.022  1.00  0.00    -0.355 C  
HETATM    2  O   UNL     1      -8.869  19.038  68.676  1.00  0.00    -0.345 OA 
ENDROOT
BRANCH   2   3
HETATM    3  C   UNL     1      -9.128  18.052  67.765  1.00  0.00    -0.262 A  
HETATM    4  C   UNL     1     -10.471  17.713  67.600  1.00  0.00    -0.372 A  
HETATM    5  C   UNL     1     -10.839  16.687  66.726  1.00  0.00    -0.037 A  
HETATM    6  C   UNL     1      -9.865  16.009  65.981  1.00  0.00    -0.365 A  
HETATM    7  C   UNL     1      -8.160  17.406  67.000  1.00  0.00    -0.240 A  
HETATM    8  C   UNL     1      -8.525  16.389  66.116  1.00  0.00    -0.329 A  
BRANCH   6   9
HETATM    9  C   UNL     1     -10.214  14.807  65.136  1.00  0.00    -0.410 C  
BRANCH   9  10
HETATM   10  C   UNL     1     -11.458  13.998  65.577  1.00  0.00    -0.318 C  
HETATM   11  C   UNL     1     -12.334  13.657  64.367  1.00  0.00    -0.387 C  
BRANCH  10  12
HETATM   12  N   UNL     1     -11.114  12.732  66.259  1.00  0.00    -0.280 NA 
HETATM   13  H   UNL     1     -11.887  12.068  66.206  1.00  0.00     0.000 HD 
BRANCH  12  14
HETATM   14  C   UNL     1      -9.871  12.132  65.758  1.00  0.00    -0.245 C  
BRANCH  14  15
HETATM   15  C   UNL     1     -10.093  11.074  64.646  1.00  0.00    -0.311 C  
HETATM   16  H   UNL     1      -9.600  10.869  62.755  1.00  0.00     0.000 HD 
HETATM   17  O   UNL     1      -9.464  11.517  63.436  1.00  0.00    -0.287 OA 
BRANCH  15  18
HETATM   18  C   UNL     1      -9.527   9.721  65.060  1.00  0.00    -0.337 A  
HETATM   19  C   UNL     1      -9.923   9.104  66.267  1.00  0.00    -0.352 A  
HETATM   20  C   UNL     1      -9.431   7.848  66.640  1.00  0.00    -0.211 A  
HETATM   21  H   UNL     1      -7.368   5.555  65.509  1.00  0.00     0.000 HD 
HETATM   22  C   UNL     1      -8.535   7.201  65.780  1.00  0.00    -0.146 A  
HETATM   23  C   UNL     1      -8.627   9.048  64.226  1.00  0.00    -0.171 A  
HETATM   24  C   UNL     1      -8.140   7.789  64.582  1.00  0.00    -0.123 A  
HETATM   25  O   UNL     1      -7.977   5.994  66.092  1.00  0.00    -0.102 OA 
BRANCH  20  26
HETATM   26  N   UNL     1      -9.834   7.204  67.825  1.00  0.00    -0.140 N  
HETATM   27  H   UNL     1      -9.191   7.264  68.614  1.00  0.00     0.000 HD 
HETATM   28  O   UNL     1     -11.235   5.954  69.099  1.00  0.00    -0.340 OA 
HETATM   29  C   UNL     1     -10.988   6.510  68.034  1.00  0.00    -0.282 C  
ENDBRANCH  20  26
ENDBRANCH  15  18
ENDBRANCH  14  15
ENDBRANCH  12  14
ENDBRANCH  10  12
ENDBRANCH   9  10
ENDBRANCH   6   9
ENDBRANCH   2   3
TORSDOF 8
ENDMDL
MODEL      251
REMARK 921   NORMALIZED FREE ENERGY PREDICTED BY IDOCK:   -4.07 KCAL/MOL
REMARK 922        TOTAL FREE ENERGY PREDICTED BY IDOCK:   -7.46 KCAL/MOL
REMARK 923 INTER-LIGAND FREE ENERGY PREDICTED BY IDOCK:   -6.97 KCAL/MOL
REMARK 924 INTRA-LIGAND FREE ENERGY PREDICTED BY IDOCK:   -0.50 KCAL/MOL
REMARK 927      BINDING AFFINITY PREDICTED BY RF-SCORE:    0.00 PKD
ROOT
HETATM    1  C   UNL     1     -13.484  13.802  72.417  1.00  0.00    -0.571 C  
HETATM    2  O   UNL     1     -13.649  12.444  72.018  1.00  0.00    -0.421 OA 
ENDROOT
BRANCH   2   3
HETATM    3  C   UNL     1     -12.722  11.996  71.119  1.00  0.00    -0.266 A  
HETATM    4  C   UNL     1     -12.436  10.632  71.170  1.00  0.00    -0.523 A  
HETATM    5  C   UNL     1     -11.470  10.081  70.324  1.00  0.00    -0.372 A  
HETATM    6  C   UNL     1     -10.802  10.886  69.393  1.00  0.00    -0.286 A  
HETATM    7  C   UNL     1     -12.087  12.794  70.171  1.00  0.00    -0.370 A  
HETATM    8  C   UNL     1     -11.131  12.245  69.316  1.00  0.00    -0.220 A  
BRANCH   6   9
HETATM    9  C   UNL     1      -9.658  10.352  68.565  1.00  0.00    -0.161 C  
BRANCH   9  10
HETATM   10  C   UNL     1      -9.995   9.954  67.107  1.00  0.00    -0.200 C  
HETATM   11  C   UNL     1     -11.026   8.821  67.083  1.00  0.00     0.136 C  
BRANCH  10  12
HETATM   12  N   UNL     1     -10.538  11.076  66.311  1.00  0.00    -0.254 NA 
HETATM   13  H   UNL     1     -11.343  11.497  66.776  1.00  0.00     0.000 HD 
BRANCH  12  14
HETATM   14  C   UNL     1      -9.527  12.092  65.991  1.00  0.00    -0.207 C  
BRANCH  14  15
HETATM   15  C   UNL     1     -10.119  13.504  65.742  1.00  0.00    -0.287 C  
HETATM   16  H   UNL     1     -11.902  14.330  65.784  1.00  0.00     0.000 HD 
HETATM   17  O   UNL     1     -11.539  13.465  65.937  1.00  0.00    -0.322 OA 
BRANCH  15  18
HETATM   18  C   UNL     1      -9.494  14.529  66.680  1.00  0.00    -0.301 A  
HETATM   19  C   UNL     1     -10.171  15.722  67.013  1.00  0.00    -0.280 A  
HETATM   20  C   UNL     1      -9.617  16.654  67.897  1.00  0.00    -0.234 A  
HETATM   21  H   UNL     1      -6.889  17.065  69.681  1.00  0.00     0.000 HD 
HETATM   22  C   UNL     1      -8.366  16.375  68.461  1.00  0.00    -0.202 A  
HETATM   23  C   UNL     1      -8.243  14.284  67.259  1.00  0.00    -0.212 A  
HETATM   24  C   UNL     1      -7.687  15.200  68.153  1.00  0.00    -0.117 A  
HETATM   25  O   UNL     1      -7.738  17.254  69.299  1.00  0.00    -0.132 OA 
BRANCH  20  26
HETATM   26  N   UNL     1     -10.288  17.836  68.262  1.00  0.00    -0.375 N  
HETATM   27  H   UNL     1     -11.293  17.857  68.093  1.00  0.00     0.000 HD 
HETATM   28  O   UNL     1     -10.409  19.953  69.069  1.00  0.00    -0.390 OA 
HETATM   29  C   UNL     1      -9.743  18.956  68.816  1.00  0.00    -0.400 C  
ENDBRANCH  20  26
ENDBRANCH  15  18
ENDBRANCH  14  15
ENDBRANCH  12  14
ENDBRANCH  10  12
ENDBRANCH   9  10
ENDBRANCH   6   9
ENDBRANCH   2   3
TORSDOF 8
ENDMDL
MODEL      252
REMARK 921   NORMALIZED FREE ENERGY PREDICTED BY IDOCK:   -4.06 KCAL/MOL
REMARK 922        TOTAL FREE ENERGY PREDICTED BY IDOCK:   -7.46 KCAL/MOL
REMARK 923 INTER-LIGAND FREE ENERGY PREDICTED BY IDOCK:   -6.76 KCAL/MOL
REMARK 924 INTRA-LIGAND FREE ENERGY PREDICTED BY IDOCK:   -0.69 KCAL/MOL
REMARK 927      BINDING AFFINITY PREDICTED BY RF-SCORE:    0.00 PKD
ROOT
HETATM    1  C   UNL     1     -10.957   3.315  73.512  1.00  0.00    -0.227 C  
HETATM    2  O   UNL     1     -11.562   4.599  73.382  1.00  0.00    -0.317 OA 
ENDROOT
BRANCH   2   3
HETATM    3  C   UNL     1     -10.757   5.557  72.832  1.00  0.00    -0.249 A  
HETATM    4  C   UNL     1     -10.341   5.323  71.522  1.00  0.00    -0.287 A  
HETATM    5  C   UNL     1      -9.481   6.220  70.883  1.00  0.00    -0.185 A  
HETATM    6  C   UNL     1      -9.053   7.381  71.541  1.00  0.00    -0.148 A  
HETATM    7  C   UNL     1     -10.365   6.727  73.477  1.00  0.00    -0.342 A  
HETATM    8  C   UNL     1      -9.516   7.632  72.837  1.00  0.00    -0.262 A  
BRANCH   6   9
HETATM    9  C   UNL     1      -8.017   8.295  70.932  1.00  0.00    -0.101 C  
BRANCH   9  10
HETATM   10  C   UNL     1      -8.519   9.265  69.835  1.00  0.00    -0.163 C  
HETATM   11  C   UNL     1      -8.366   8.632  68.447  1.00  0.00    -0.127 C  
BRANCH  10  12
HETATM   12  N   UNL     1      -9.938   9.648  70.004  1.00  0.00    -0.232 NA 
HETATM   13  H   UNL     1     -10.030  10.429  70.653  1.00  0.00     0.000 HD 
BRANCH  12  14
HETATM   14  C   UNL     1     -10.606   9.942  68.730  1.00  0.00    -0.222 C  
BRANCH  14  15
HETATM   15  C   UNL     1     -11.842  10.869  68.874  1.00  0.00    -0.270 C  
HETATM   16  H   UNL     1     -12.994  11.489  70.339  1.00  0.00     0.000 HD 
HETATM   17  O   UNL     1     -12.237  10.922  70.251  1.00  0.00    -0.296 OA 
BRANCH  15  18
HETATM   18  C   UNL     1     -11.532  12.272  68.367  1.00  0.00    -0.356 A  
HETATM   19  C   UNL     1     -11.556  12.573  66.988  1.00  0.00    -0.437 A  
HETATM   20  C   UNL     1     -11.303  13.866  66.518  1.00  0.00    -0.331 A  
HETATM   21  H   UNL     1     -10.543  16.833  67.704  1.00  0.00     0.000 HD 
HETATM   22  C   UNL     1     -11.029  14.872  67.451  1.00  0.00    -0.314 A  
HETATM   23  C   UNL     1     -11.251  13.303  69.273  1.00  0.00    -0.266 A  
HETATM   24  C   UNL     1     -11.010  14.599  68.816  1.00  0.00    -0.268 A  
HETATM   25  O   UNL     1     -10.728  16.150  67.070  1.00  0.00    -0.313 OA 
BRANCH  20  26
HETATM   26  N   UNL     1     -11.349  14.190  65.149  1.00  0.00    -0.323 N  
HETATM   27  H   UNL     1     -10.605  14.794  64.801  1.00  0.00     0.000 HD 
HETATM   28  O   UNL     1     -12.250  14.151  63.067  1.00  0.00    -0.330 OA 
HETATM   29  C   UNL     1     -12.277  13.786  64.237  1.00  0.00    -0.400 C  
ENDBRANCH  20  26
ENDBRANCH  15  18
ENDBRANCH  14  15
ENDBRANCH  12  14
ENDBRANCH  10  12
ENDBRANCH   9  10
ENDBRANCH   6   9
ENDBRANCH   2   3
TORSDOF 8
ENDMDL
MODEL      253
REMARK 921   NORMALIZED FREE ENERGY PREDICTED BY IDOCK:   -4.05 KCAL/MOL
REMARK 922        TOTAL FREE ENERGY PREDICTED BY IDOCK:   -7.44 KCAL/MOL
REMARK 923 INTER-LIGAND FREE ENERGY PREDICTED BY IDOCK:   -6.89 KCAL/MOL
REMARK 924 INTRA-LIGAND FREE ENERGY PREDICTED BY IDOCK:   -0.55 KCAL/MOL
REMARK 927      BINDING AFFINITY PREDICTED BY RF-SCORE:    0.00 PKD
ROOT
HETATM    1  C   UNL     1      -8.392   3.310  73.436  1.00  0.00    -0.074 C  
HETATM    2  O   UNL     1      -9.337   3.170  72.379  1.00  0.00    -0.098 OA 
ENDROOT
BRANCH   2   3
HETATM    3  C   UNL     1      -9.998   4.320  72.046  1.00  0.00    -0.180 A  
HETATM    4  C   UNL     1      -9.901   4.713  70.712  1.00  0.00    -0.284 A  
HETATM    5  C   UNL     1     -10.503   5.897  70.278  1.00  0.00    -0.327 A  
HETATM    6  C   UNL     1     -11.238   6.685  71.172  1.00  0.00    -0.340 A  
HETATM    7  C   UNL     1     -10.758   5.081  72.931  1.00  0.00    -0.299 A  
HETATM    8  C   UNL     1     -11.371   6.258  72.498  1.00  0.00    -0.313 A  
BRANCH   6   9
HETATM    9  C   UNL     1     -11.781   8.036  70.771  1.00  0.00    -0.215 C  
BRANCH   9  10
HETATM   10  C   UNL     1     -11.038   9.270  71.340  1.00  0.00    -0.367 C  
HETATM   11  C   UNL     1      -9.700   9.471  70.621  1.00  0.00    -0.311 C  
BRANCH  10  12
HETATM   12  N   UNL     1     -11.813  10.523  71.212  1.00  0.00    -0.295 NA 
HETATM   13  H   UNL     1     -11.452  11.240  71.841  1.00  0.00     0.000 HD 
BRANCH  12  14
HETATM   14  C   UNL     1     -11.877  11.017  69.831  1.00  0.00    -0.353 C  
BRANCH  14  15
HETATM   15  C   UNL     1     -12.369  12.484  69.716  1.00  0.00    -0.020 C  
HETATM   16  H   UNL     1     -12.410  14.068  70.878  1.00  0.00     0.000 HD 
HETATM   17  O   UNL     1     -12.108  13.170  70.948  1.00  0.00    -0.308 OA 
BRANCH  15  18
HETATM   18  C   UNL     1     -11.677  13.202  68.564  1.00  0.00    -0.387 A  
HETATM   19  C   UNL     1     -11.576  14.609  68.537  1.00  0.00    -0.346 A  
HETATM   20  C   UNL     1     -10.916  15.275  67.498  1.00  0.00    -0.315 A  
HETATM   21  H   UNL     1      -9.326  14.565  64.713  1.00  0.00     0.000 HD 
HETATM   22  C   UNL     1     -10.340  14.509  66.477  1.00  0.00    -0.283 A  
HETATM   23  C   UNL     1     -11.093  12.467  67.525  1.00  0.00    -0.311 A  
HETATM   24  C   UNL     1     -10.420  13.120  66.491  1.00  0.00    -0.283 A  
HETATM   25  O   UNL     1      -9.716  15.084  65.406  1.00  0.00    -0.316 OA 
BRANCH  20  26
HETATM   26  N   UNL     1     -10.782  16.675  67.467  1.00  0.00    -0.310 N  
HETATM   27  H   UNL     1     -11.636  17.209  67.306  1.00  0.00     0.000 HD 
HETATM   28  O   UNL     1      -9.618  18.621  67.551  1.00  0.00    -0.287 OA 
HETATM   29  C   UNL     1      -9.638  17.398  67.628  1.00  0.00    -0.261 C  
ENDBRANCH  20  26
ENDBRANCH  15  18
ENDBRANCH  14  15
ENDBRANCH  12  14
ENDBRANCH  10  12
ENDBRANCH   9  10
ENDBRANCH   6   9
ENDBRANCH   2   3
TORSDOF 8
ENDMDL
MODEL      254
REMARK 921   NORMALIZED FREE ENERGY PREDICTED BY IDOCK:   -4.05 KCAL/MOL
REMARK 922        TOTAL FREE ENERGY PREDICTED BY IDOCK:   -7.44 KCAL/MOL
REMARK 923 INTER-LIGAND FREE ENERGY PREDICTED BY IDOCK:   -6.15 KCAL/MOL
REMARK 924 INTRA-LIGAND FREE ENERGY PREDICTED BY IDOCK:   -1.29 KCAL/MOL
REMARK 927      BINDING AFFINITY PREDICTED BY RF-SCORE:    0.00 PKD
ROOT
HETATM    1  C   UNL     1     -12.910  13.001  65.056  1.00  0.00    -0.295 C  
HETATM    2  O   UNL     1     -12.035  13.588  66.016  1.00  0.00    -0.365 OA 
ENDROOT
BRANCH   2   3
HETATM    3  C   UNL     1     -11.028  12.771  66.447  1.00  0.00    -0.276 A  
HETATM    4  C   UNL     1     -10.641  11.764  65.564  1.00  0.00    -0.323 A  
HETATM    5  C   UNL     1      -9.650  10.848  65.926  1.00  0.00    -0.257 A  
HETATM    6  C   UNL     1      -9.012  10.951  67.169  1.00  0.00    -0.141 A  
HETATM    7  C   UNL     1     -10.371  12.901  67.669  1.00  0.00    -0.218 A  
HETATM    8  C   UNL     1      -9.372  11.995  68.029  1.00  0.00    -0.196 A  
BRANCH   6   9
HETATM    9  C   UNL     1      -8.040   9.899  67.646  1.00  0.00    -0.110 C  
BRANCH   9  10
HETATM   10  C   UNL     1      -7.698   8.774  66.638  1.00  0.00    -0.093 C  
HETATM   11  C   UNL     1      -6.182   8.571  66.553  1.00  0.00    -0.057 C  
BRANCH  10  12
HETATM   12  N   UNL     1      -8.310   7.475  66.990  1.00  0.00    -0.120 NA 
HETATM   13  H   UNL     1      -8.269   7.313  67.996  1.00  0.00     0.000 HD 
BRANCH  12  14
HETATM   14  C   UNL     1      -9.685   7.336  66.492  1.00  0.00    -0.140 C  
BRANCH  14  15
HETATM   15  C   UNL     1     -10.562   6.380  67.341  1.00  0.00    -0.295 C  
HETATM   16  H   UNL     1     -10.479   4.503  67.916  1.00  0.00     0.000 HD 
HETATM   17  O   UNL     1      -9.942   5.089  67.397  1.00  0.00    -0.165 OA 
BRANCH  15  18
HETATM   18  C   UNL     1     -10.753   6.925  68.751  1.00  0.00    -0.255 A  
HETATM   19  C   UNL     1     -10.774   8.315  69.000  1.00  0.00    -0.098 A  
HETATM   20  C   UNL     1     -10.979   8.824  70.287  1.00  0.00    -0.235 A  
HETATM   21  H   UNL     1     -11.472   7.721  73.342  1.00  0.00     0.000 HD 
HETATM   22  C   UNL     1     -11.176   7.919  71.337  1.00  0.00    -0.247 A  
HETATM   23  C   UNL     1     -10.950   6.049  69.826  1.00  0.00    -0.471 A  
HETATM   24  C   UNL     1     -11.169   6.546  71.111  1.00  0.00    -0.353 A  
HETATM   25  O   UNL     1     -11.339   8.335  72.629  1.00  0.00    -0.390 OA 
BRANCH  20  26
HETATM   26  N   UNL     1     -11.029  10.206  70.550  1.00  0.00    -0.314 N  
HETATM   27  H   UNL     1     -10.181  10.626  70.929  1.00  0.00     0.000 HD 
HETATM   28  O   UNL     1     -12.042  12.233  70.647  1.00  0.00    -0.363 OA 
HETATM   29  C   UNL     1     -12.086  11.044  70.355  1.00  0.00    -0.373 C  
ENDBRANCH  20  26
ENDBRANCH  15  18
ENDBRANCH  14  15
ENDBRANCH  12  14
ENDBRANCH  10  12
ENDBRANCH   9  10
ENDBRANCH   6   9
ENDBRANCH   2   3
TORSDOF 8
ENDMDL
MODEL      255
REMARK 921   NORMALIZED FREE ENERGY PREDICTED BY IDOCK:   -4.03 KCAL/MOL
REMARK 922        TOTAL FREE ENERGY PREDICTED BY IDOCK:   -7.41 KCAL/MOL
REMARK 923 INTER-LIGAND FREE ENERGY PREDICTED BY IDOCK:   -6.33 KCAL/MOL
REMARK 924 INTRA-LIGAND FREE ENERGY PREDICTED BY IDOCK:   -1.08 KCAL/MOL
REMARK 927      BINDING AFFINITY PREDICTED BY RF-SCORE:    0.00 PKD
ROOT
HETATM    1  C   UNL     1      -6.775   9.957  64.193  1.00  0.00    -0.126 C  
HETATM    2  O   UNL     1      -8.172  10.225  64.266  1.00  0.00    -0.163 OA 
ENDROOT
BRANCH   2   3
HETATM    3  C   UNL     1      -8.700  10.168  65.526  1.00  0.00    -0.158 A  
HETATM    4  C   UNL     1      -8.057  10.943  66.491  1.00  0.00    -0.154 A  
HETATM    5  C   UNL     1      -8.491  10.921  67.818  1.00  0.00    -0.124 A  
HETATM    6  C   UNL     1      -9.597  10.144  68.189  1.00  0.00    -0.151 A  
HETATM    7  C   UNL     1      -9.822   9.422  65.881  1.00  0.00    -0.362 A  
HETATM    8  C   UNL     1     -10.266   9.408  67.204  1.00  0.00    -0.319 A  
BRANCH   6   9
HETATM    9  C   UNL     1     -10.003   9.990  69.635  1.00  0.00    -0.263 C  
BRANCH   9  10
HETATM   10  C   UNL     1     -11.485  10.291  69.966  1.00  0.00    -0.296 C  
HETATM   11  C   UNL     1     -11.963   9.422  71.134  1.00  0.00    -0.413 C  
BRANCH  10  12
HETATM   12  N   UNL     1     -11.722  11.705  70.327  1.00  0.00    -0.492 NA 
HETATM   13  H   UNL     1     -11.002  12.044  70.964  1.00  0.00     0.000 HD 
BRANCH  12  14
HETATM   14  C   UNL     1     -11.843  12.582  69.156  1.00  0.00    -0.296 C  
BRANCH  14  15
HETATM   15  C   UNL     1     -12.276  14.031  69.503  1.00  0.00    -0.308 C  
HETATM   16  H   UNL     1     -12.831  15.003  71.118  1.00  0.00     0.000 HD 
HETATM   17  O   UNL     1     -12.566  14.117  70.905  1.00  0.00    -0.321 OA 
BRANCH  15  18
HETATM   18  C   UNL     1     -11.185  15.028  69.136  1.00  0.00    -0.293 A  
HETATM   19  C   UNL     1      -9.834  14.630  69.041  1.00  0.00    -0.178 A  
HETATM   20  C   UNL     1      -8.830  15.532  68.674  1.00  0.00    -0.193 A  
HETATM   21  H   UNL     1      -8.514  18.703  67.877  1.00  0.00     0.000 HD 
HETATM   22  C   UNL     1      -9.194  16.854  68.391  1.00  0.00    -0.253 A  
HETATM   23  C   UNL     1     -11.513  16.359  68.849  1.00  0.00    -0.216 A  
HETATM   24  C   UNL     1     -10.521  17.265  68.470  1.00  0.00    -0.375 A  
HETATM   25  O   UNL     1      -8.268  17.806  68.069  1.00  0.00    -0.234 OA 
BRANCH  20  26
HETATM   26  N   UNL     1      -7.482  15.147  68.548  1.00  0.00    -0.116 N  
HETATM   27  H   UNL     1      -6.838  15.516  69.248  1.00  0.00     0.000 HD 
HETATM   28  O   UNL     1      -5.743  14.086  67.550  1.00  0.00    -0.341 OA 
HETATM   29  C   UNL     1      -6.942  14.337  67.595  1.00  0.00    -0.184 C  
ENDBRANCH  20  26
ENDBRANCH  15  18
ENDBRANCH  14  15
ENDBRANCH  12  14
ENDBRANCH  10  12
ENDBRANCH   9  10
ENDBRANCH   6   9
ENDBRANCH   2   3
TORSDOF 8
ENDMDL
MODEL      256
REMARK 921   NORMALIZED FREE ENERGY PREDICTED BY IDOCK:   -4.02 KCAL/MOL
REMARK 922        TOTAL FREE ENERGY PREDICTED BY IDOCK:   -7.40 KCAL/MOL
REMARK 923 INTER-LIGAND FREE ENERGY PREDICTED BY IDOCK:   -5.71 KCAL/MOL
REMARK 924 INTRA-LIGAND FREE ENERGY PREDICTED BY IDOCK:   -1.69 KCAL/MOL
REMARK 927      BINDING AFFINITY PREDICTED BY RF-SCORE:    0.00 PKD
ROOT
HETATM    1  C   UNL     1     -12.666  13.350  71.525  1.00  0.00    -0.293 C  
HETATM    2  O   UNL     1     -13.203  12.266  70.774  1.00  0.00     0.140 OA 
ENDROOT
BRANCH   2   3
HETATM    3  C   UNL     1     -12.632  11.051  71.033  1.00  0.00    -0.411 A  
HETATM    4  C   UNL     1     -13.359  10.202  71.866  1.00  0.00    -0.505 A  
HETATM    5  C   UNL     1     -12.843   8.955  72.228  1.00  0.00    -0.475 A  
HETATM    6  C   UNL     1     -11.603   8.532  71.732  1.00  0.00    -0.380 A  
HETATM    7  C   UNL     1     -11.416  10.621  70.508  1.00  0.00    -0.407 A  
HETATM    8  C   UNL     1     -10.902   9.370  70.857  1.00  0.00    -0.392 A  
BRANCH   6   9
HETATM    9  C   UNL     1     -10.955   7.255  72.213  1.00  0.00    -0.286 C  
BRANCH   9  10
HETATM   10  C   UNL     1     -11.125   6.015  71.302  1.00  0.00    -0.274 C  
HETATM   11  C   UNL     1     -11.782   6.409  69.974  1.00  0.00    -0.345 C  
BRANCH  10  12
HETATM   12  N   UNL     1      -9.844   5.344  70.991  1.00  0.00    -0.178 NA 
HETATM   13  H   UNL     1      -9.896   4.855  70.098  1.00  0.00     0.000 HD 
BRANCH  12  14
HETATM   14  C   UNL     1      -8.696   6.260  71.023  1.00  0.00    -0.136 C  
BRANCH  14  15
HETATM   15  C   UNL     1      -7.996   6.430  69.650  1.00  0.00    -0.116 C  
HETATM   16  H   UNL     1      -8.199   5.682  67.845  1.00  0.00     0.000 HD 
HETATM   17  O   UNL     1      -8.628   5.578  68.686  1.00  0.00    -0.103 OA 
BRANCH  15  18
HETATM   18  C   UNL     1      -8.060   7.879  69.183  1.00  0.00    -0.124 A  
HETATM   19  C   UNL     1      -8.806   8.246  68.042  1.00  0.00    -0.135 A  
HETATM   20  C   UNL     1      -8.894   9.579  67.625  1.00  0.00    -0.118 A  
HETATM   21  H   UNL     1      -7.776  12.537  68.514  1.00  0.00     0.000 HD 
HETATM   22  C   UNL     1      -8.228  10.557  68.373  1.00  0.00    -0.121 A  
HETATM   23  C   UNL     1      -7.403   8.883  69.906  1.00  0.00    -0.054 A  
HETATM   24  C   UNL     1      -7.495  10.217  69.506  1.00  0.00    -0.133 A  
HETATM   25  O   UNL     1      -8.228  11.873  68.007  1.00  0.00    -0.140 OA 
BRANCH  20  26
HETATM   26  N   UNL     1      -9.655   9.968  66.506  1.00  0.00    -0.178 N  
HETATM   27  H   UNL     1     -10.616  10.256  66.689  1.00  0.00     0.000 HD 
HETATM   28  O   UNL     1     -10.000  10.327  64.292  1.00  0.00    -0.328 OA 
HETATM   29  C   UNL     1      -9.249  10.002  65.206  1.00  0.00    -0.218 C  
ENDBRANCH  20  26
ENDBRANCH  15  18
ENDBRANCH  14  15
ENDBRANCH  12  14
ENDBRANCH  10  12
ENDBRANCH   9  10
ENDBRANCH   6   9
ENDBRANCH   2   3
TORSDOF 8
ENDMDL
MODEL      257
REMARK 921   NORMALIZED FREE ENERGY PREDICTED BY IDOCK:   -4.02 KCAL/MOL
REMARK 922        TOTAL FREE ENERGY PREDICTED BY IDOCK:   -7.40 KCAL/MOL
REMARK 923 INTER-LIGAND FREE ENERGY PREDICTED BY IDOCK:   -6.87 KCAL/MOL
REMARK 924 INTRA-LIGAND FREE ENERGY PREDICTED BY IDOCK:   -0.53 KCAL/MOL
REMARK 927      BINDING AFFINITY PREDICTED BY RF-SCORE:    0.00 PKD
ROOT
HETATM    1  C   UNL     1     -10.596  20.499  69.589  1.00  0.00     0.742 C  
HETATM    2  O   UNL     1     -10.268  20.321  68.214  1.00  0.00    -0.384 OA 
ENDROOT
BRANCH   2   3
HETATM    3  C   UNL     1      -9.696  19.116  67.914  1.00  0.00    -0.333 A  
HETATM    4  C   UNL     1      -8.330  19.010  68.172  1.00  0.00    -0.347 A  
HETATM    5  C   UNL     1      -7.640  17.836  67.860  1.00  0.00    -0.212 A  
HETATM    6  C   UNL     1      -8.321  16.740  67.314  1.00  0.00    -0.197 A  
HETATM    7  C   UNL     1     -10.384  18.017  67.405  1.00  0.00    -0.391 A  
HETATM    8  C   UNL     1      -9.701  16.838  67.104  1.00  0.00    -0.251 A  
BRANCH   6   9
HETATM    9  C   UNL     1      -7.583  15.512  66.837  1.00  0.00    -0.162 C  
BRANCH   9  10
HETATM   10  C   UNL     1      -7.605  14.288  67.786  1.00  0.00    -0.165 C  
HETATM   11  C   UNL     1      -8.006  14.714  69.203  1.00  0.00    -0.097 C  
BRANCH  10  12
HETATM   12  N   UNL     1      -8.542  13.231  67.348  1.00  0.00    -0.194 NA 
HETATM   13  H   UNL     1      -8.081  12.572  66.722  1.00  0.00     0.000 HD 
BRANCH  12  14
HETATM   14  C   UNL     1      -9.179  12.531  68.471  1.00  0.00    -0.070 C  
BRANCH  14  15
HETATM   15  C   UNL     1     -10.726  12.469  68.370  1.00  0.00    -0.240 C  
HETATM   16  H   UNL     1     -12.247  13.361  69.236  1.00  0.00     0.000 HD 
HETATM   17  O   UNL     1     -11.300  13.399  69.298  1.00  0.00    -0.261 OA 
BRANCH  15  18
HETATM   18  C   UNL     1     -11.192  12.792  66.956  1.00  0.00    -0.336 A  
HETATM   19  C   UNL     1     -10.667  12.105  65.840  1.00  0.00    -0.302 A  
HETATM   20  C   UNL     1     -11.112  12.374  64.541  1.00  0.00    -0.316 A  
HETATM   21  H   UNL     1     -13.238  14.353  63.006  1.00  0.00     0.000 HD 
HETATM   22  C   UNL     1     -12.107  13.343  64.365  1.00  0.00    -0.416 A  
HETATM   23  C   UNL     1     -12.183  13.758  66.743  1.00  0.00    -0.440 A  
HETATM   24  C   UNL     1     -12.644  14.025  65.453  1.00  0.00    -0.529 A  
HETATM   25  O   UNL     1     -12.564  13.695  63.126  1.00  0.00    -0.792 OA 
BRANCH  20  26
HETATM   26  N   UNL     1     -10.620  11.681  63.419  1.00  0.00    -0.548 N  
HETATM   27  H   UNL     1     -11.018  11.940  62.516  1.00  0.00     0.000 HD 
HETATM   28  O   UNL     1      -9.332  10.133  62.374  1.00  0.00    -0.283 OA 
HETATM   29  C   UNL     1      -9.672  10.703  63.405  1.00  0.00    -0.339 C  
ENDBRANCH  20  26
ENDBRANCH  15  18
ENDBRANCH  14  15
ENDBRANCH  12  14
ENDBRANCH  10  12
ENDBRANCH   9  10
ENDBRANCH   6   9
ENDBRANCH   2   3
TORSDOF 8
ENDMDL
MODEL      258
REMARK 921   NORMALIZED FREE ENERGY PREDICTED BY IDOCK:   -4.01 KCAL/MOL
REMARK 922        TOTAL FREE ENERGY PREDICTED BY IDOCK:   -7.38 KCAL/MOL
REMARK 923 INTER-LIGAND FREE ENERGY PREDICTED BY IDOCK:   -6.63 KCAL/MOL
REMARK 924 INTRA-LIGAND FREE ENERGY PREDICTED BY IDOCK:   -0.75 KCAL/MOL
REMARK 927      BINDING AFFINITY PREDICTED BY RF-SCORE:    0.00 PKD
ROOT
HETATM    1  C   UNL     1      -7.060  19.757  68.592  1.00  0.00    -0.331 C  
HETATM    2  O   UNL     1      -6.300  18.554  68.519  1.00  0.00    -0.203 OA 
ENDROOT
BRANCH   2   3
HETATM    3  C   UNL     1      -7.034  17.428  68.272  1.00  0.00    -0.193 A  
HETATM    4  C   UNL     1      -7.630  17.353  67.014  1.00  0.00    -0.235 A  
HETATM    5  C   UNL     1      -8.437  16.264  66.678  1.00  0.00    -0.306 A  
HETATM    6  C   UNL     1      -8.631  15.219  67.590  1.00  0.00    -0.178 A  
HETATM    7  C   UNL     1      -7.194  16.375  69.170  1.00  0.00    -0.222 A  
HETATM    8  C   UNL     1      -7.990  15.279  68.833  1.00  0.00    -0.176 A  
BRANCH   6   9
HETATM    9  C   UNL     1      -9.606  14.100  67.312  1.00  0.00    -0.234 C  
BRANCH   9  10
HETATM   10  C   UNL     1     -11.107  14.483  67.315  1.00  0.00    -0.312 C  
HETATM   11  C   UNL     1     -11.322  15.811  68.049  1.00  0.00    -0.310 C  
BRANCH  10  12
HETATM   12  N   UNL     1     -11.672  14.620  65.955  1.00  0.00    -0.341 NA 
HETATM   13  H   UNL     1     -10.936  14.597  65.250  1.00  0.00     0.000 HD 
BRANCH  12  14
HETATM   14  C   UNL     1     -12.709  13.622  65.664  1.00  0.00    -0.454 C  
BRANCH  14  15
HETATM   15  C   UNL     1     -12.300  12.598  64.573  1.00  0.00    -0.464 C  
HETATM   16  H   UNL     1     -11.498  12.670  62.781  1.00  0.00     0.000 HD 
HETATM   17  O   UNL     1     -11.748  13.297  63.449  1.00  0.00    -0.421 OA 
BRANCH  15  18
HETATM   18  C   UNL     1     -11.282  11.602  65.116  1.00  0.00    -0.262 A  
HETATM   19  C   UNL     1     -11.372  11.114  66.437  1.00  0.00     0.001 A  
HETATM   20  C   UNL     1     -10.460  10.176  66.934  1.00  0.00    -0.222 A  
HETATM   21  H   UNL     1      -7.804   8.525  65.927  1.00  0.00     0.000 HD 
HETATM   22  C   UNL     1      -9.447   9.718  66.083  1.00  0.00    -0.205 A  
HETATM   23  C   UNL     1     -10.254  11.125  64.293  1.00  0.00    -0.399 A  
HETATM   24  C   UNL     1      -9.346  10.180  64.774  1.00  0.00    -0.324 A  
HETATM   25  O   UNL     1      -8.491   8.836  66.505  1.00  0.00    -0.111 OA 
BRANCH  20  26
HETATM   26  N   UNL     1     -10.549   9.658  68.239  1.00  0.00    -0.222 N  
HETATM   27  H   UNL     1     -10.213   8.704  68.372  1.00  0.00     0.000 HD 
HETATM   28  O   UNL     1     -11.101   9.739  70.438  1.00  0.00    -0.260 OA 
HETATM   29  C   UNL     1     -11.034  10.290  69.345  1.00  0.00    -0.247 C  
ENDBRANCH  20  26
ENDBRANCH  15  18
ENDBRANCH  14  15
ENDBRANCH  12  14
ENDBRANCH  10  12
ENDBRANCH   9  10
ENDBRANCH   6   9
ENDBRANCH   2   3
TORSDOF 8
ENDMDL
MODEL      259
REMARK 921   NORMALIZED FREE ENERGY PREDICTED BY IDOCK:   -4.01 KCAL/MOL
REMARK 922        TOTAL FREE ENERGY PREDICTED BY IDOCK:   -7.38 KCAL/MOL
REMARK 923 INTER-LIGAND FREE ENERGY PREDICTED BY IDOCK:   -6.52 KCAL/MOL
REMARK 924 INTRA-LIGAND FREE ENERGY PREDICTED BY IDOCK:   -0.86 KCAL/MOL
REMARK 927      BINDING AFFINITY PREDICTED BY RF-SCORE:    0.00 PKD
ROOT
HETATM    1  C   UNL     1     -12.577  14.156  65.371  1.00  0.00    -0.466 C  
HETATM    2  O   UNL     1     -12.354  14.089  66.776  1.00  0.00    -0.439 OA 
ENDROOT
BRANCH   2   3
HETATM    3  C   UNL     1     -11.526  13.077  67.176  1.00  0.00    -0.331 A  
HETATM    4  C   UNL     1     -11.536  11.933  66.381  1.00  0.00    -0.371 A  
HETATM    5  C   UNL     1     -10.759  10.824  66.727  1.00  0.00    -0.291 A  
HETATM    6  C   UNL     1      -9.937  10.863  67.861  1.00  0.00    -0.195 A  
HETATM    7  C   UNL     1     -10.683  13.135  68.284  1.00  0.00    -0.261 A  
HETATM    8  C   UNL     1      -9.896  12.035  68.626  1.00  0.00    -0.126 A  
BRANCH   6   9
HETATM    9  C   UNL     1      -9.195   9.638  68.339  1.00  0.00    -0.133 C  
BRANCH   9  10
HETATM   10  C   UNL     1      -9.790   8.915  69.572  1.00  0.00    -0.180 C  
HETATM   11  C   UNL     1      -9.057   9.337  70.850  1.00  0.00    -0.288 C  
BRANCH  10  12
HETATM   12  N   UNL     1     -11.231   9.189  69.765  1.00  0.00    -0.420 NA 
HETATM   13  H   UNL     1     -11.801   8.457  69.342  1.00  0.00     0.000 HD 
BRANCH  12  14
HETATM   14  C   UNL     1     -11.591   9.387  71.175  1.00  0.00    -0.345 C  
BRANCH  14  15
HETATM   15  C   UNL     1     -12.320   8.173  71.808  1.00  0.00    -0.321 C  
HETATM   16  H   UNL     1     -13.640   6.839  71.222  1.00  0.00     0.000 HD 
HETATM   17  O   UNL     1     -13.193   7.583  70.835  1.00  0.00    -0.127 OA 
BRANCH  15  18
HETATM   18  C   UNL     1     -11.321   7.136  72.305  1.00  0.00    -0.303 A  
HETATM   19  C   UNL     1     -11.013   5.992  71.538  1.00  0.00    -0.335 A  
HETATM   20  C   UNL     1     -10.073   5.051  71.974  1.00  0.00    -0.196 A  
HETATM   21  H   UNL     1      -8.093   4.529  74.542  1.00  0.00     0.000 HD 
HETATM   22  C   UNL     1      -9.428   5.272  73.197  1.00  0.00    -0.142 A  
HETATM   23  C   UNL     1     -10.659   7.323  73.525  1.00  0.00    -0.408 A  
HETATM   24  C   UNL     1      -9.710   6.398  73.964  1.00  0.00    -0.246 A  
HETATM   25  O   UNL     1      -8.530   4.379  73.713  1.00  0.00    -0.099 OA 
BRANCH  20  26
HETATM   26  N   UNL     1      -9.733   3.918  71.211  1.00  0.00    -0.174 N  
HETATM   27  H   UNL     1      -9.593   3.050  71.727  1.00  0.00     0.000 HD 
HETATM   28  O   UNL     1      -9.241   2.821  69.287  1.00  0.00    -0.122 OA 
HETATM   29  C   UNL     1      -9.571   3.853  69.860  1.00  0.00    -0.200 C  
ENDBRANCH  20  26
ENDBRANCH  15  18
ENDBRANCH  14  15
ENDBRANCH  12  14
ENDBRANCH  10  12
ENDBRANCH   9  10
ENDBRANCH   6   9
ENDBRANCH   2   3
TORSDOF 8
ENDMDL
MODEL      260
REMARK 921   NORMALIZED FREE ENERGY PREDICTED BY IDOCK:   -4.01 KCAL/MOL
REMARK 922        TOTAL FREE ENERGY PREDICTED BY IDOCK:   -7.38 KCAL/MOL
REMARK 923 INTER-LIGAND FREE ENERGY PREDICTED BY IDOCK:   -6.63 KCAL/MOL
REMARK 924 INTRA-LIGAND FREE ENERGY PREDICTED BY IDOCK:   -0.74 KCAL/MOL
REMARK 927      BINDING AFFINITY PREDICTED BY RF-SCORE:    0.00 PKD
ROOT
HETATM    1  C   UNL     1     -12.810  15.539  74.041  1.00  0.00    -0.411 C  
HETATM    2  O   UNL     1     -12.786  16.193  72.775  1.00  0.00    -0.442 OA 
ENDROOT
BRANCH   2   3
HETATM    3  C   UNL     1     -12.271  15.444  71.754  1.00  0.00    -0.379 A  
HETATM    4  C   UNL     1     -12.675  14.110  71.713  1.00  0.00    -0.420 A  
HETATM    5  C   UNL     1     -12.171  13.249  70.736  1.00  0.00    -0.390 A  
HETATM    6  C   UNL     1     -11.279  13.724  69.766  1.00  0.00    -0.122 A  
HETATM    7  C   UNL     1     -11.412  15.931  70.771  1.00  0.00    -0.437 A  
HETATM    8  C   UNL     1     -10.917  15.076  69.785  1.00  0.00    -0.291 A  
BRANCH   6   9
HETATM    9  C   UNL     1     -10.610  12.791  68.785  1.00  0.00    -0.216 C  
BRANCH   9  10
HETATM   10  C   UNL     1     -11.523  12.172  67.698  1.00  0.00    -0.331 C  
HETATM   11  C   UNL     1     -10.784  12.090  66.358  1.00  0.00    -0.294 C  
BRANCH  10  12
HETATM   12  N   UNL     1     -11.991  10.811  68.040  1.00  0.00    -0.773 NA 
HETATM   13  H   UNL     1     -12.071  10.232  67.204  1.00  0.00     0.000 HD 
BRANCH  12  14
HETATM   14  C   UNL     1     -11.154  10.157  69.053  1.00  0.00    -0.205 C  
BRANCH  14  15
HETATM   15  C   UNL     1     -10.821   8.677  68.726  1.00  0.00     0.030 C  
HETATM   16  H   UNL     1      -9.435   7.719  67.716  1.00  0.00     0.000 HD 
HETATM   17  O   UNL     1      -9.638   8.625  67.916  1.00  0.00    -0.144 OA 
BRANCH  15  18
HETATM   18  C   UNL     1     -10.613   7.871  70.002  1.00  0.00    -0.242 A  
HETATM   19  C   UNL     1      -9.886   6.661  69.991  1.00  0.00    -0.178 A  
HETATM   20  C   UNL     1      -9.664   5.931  71.164  1.00  0.00    -0.174 A  
HETATM   21  H   UNL     1     -10.387   6.097  74.364  1.00  0.00     0.000 HD 
HETATM   22  C   UNL     1     -10.176   6.432  72.367  1.00  0.00    -0.186 A  
HETATM   23  C   UNL     1     -11.113   8.342  71.223  1.00  0.00    -0.296 A  
HETATM   24  C   UNL     1     -10.887   7.628  72.401  1.00  0.00    -0.341 A  
HETATM   25  O   UNL     1     -10.040   5.757  73.548  1.00  0.00    -0.170 OA 
BRANCH  20  26
HETATM   26  N   UNL     1      -8.920   4.737  71.177  1.00  0.00    -0.128 N  
HETATM   27  H   UNL     1      -9.263   3.995  71.786  1.00  0.00     0.000 HD 
HETATM   28  O   UNL     1      -7.191   3.398  70.571  1.00  0.00    -0.037 OA 
HETATM   29  C   UNL     1      -7.790   4.463  70.466  1.00  0.00    -0.053 C  
ENDBRANCH  20  26
ENDBRANCH  15  18
ENDBRANCH  14  15
ENDBRANCH  12  14
ENDBRANCH  10  12
ENDBRANCH   9  10
ENDBRANCH   6   9
ENDBRANCH   2   3
TORSDOF 8
ENDMDL
MODEL      261
REMARK 921   NORMALIZED FREE ENERGY PREDICTED BY IDOCK:   -4.00 KCAL/MOL
REMARK 922        TOTAL FREE ENERGY PREDICTED BY IDOCK:   -7.37 KCAL/MOL
REMARK 923 INTER-LIGAND FREE ENERGY PREDICTED BY IDOCK:   -6.43 KCAL/MOL
REMARK 924 INTRA-LIGAND FREE ENERGY PREDICTED BY IDOCK:   -0.94 KCAL/MOL
REMARK 927      BINDING AFFINITY PREDICTED BY RF-SCORE:    0.00 PKD
ROOT
HETATM    1  C   UNL     1     -11.516   4.404  73.287  1.00  0.00    -0.184 C  
HETATM    2  O   UNL     1     -10.246   5.036  73.159  1.00  0.00    -0.164 OA 
ENDROOT
BRANCH   2   3
HETATM    3  C   UNL     1     -10.276   6.264  72.559  1.00  0.00    -0.184 A  
HETATM    4  C   UNL     1     -10.867   6.310  71.297  1.00  0.00    -0.317 A  
HETATM    5  C   UNL     1     -10.910   7.509  70.580  1.00  0.00    -0.251 A  
HETATM    6  C   UNL     1     -10.387   8.684  71.135  1.00  0.00    -0.294 A  
HETATM    7  C   UNL     1      -9.788   7.437  73.131  1.00  0.00    -0.304 A  
HETATM    8  C   UNL     1      -9.840   8.639  72.422  1.00  0.00    -0.315 A  
BRANCH   6   9
HETATM    9  C   UNL     1     -10.292   9.960  70.333  1.00  0.00    -0.322 C  
BRANCH   9  10
HETATM   10  C   UNL     1     -11.633  10.640  69.965  1.00  0.00    -0.325 C  
HETATM   11  C   UNL     1     -12.696  10.342  71.028  1.00  0.00    -0.490 C  
BRANCH  10  12
HETATM   12  N   UNL     1     -11.522  12.109  69.835  1.00  0.00    -0.506 NA 
HETATM   13  H   UNL     1     -11.059  12.513  70.649  1.00  0.00     0.000 HD 
BRANCH  12  14
HETATM   14  C   UNL     1     -10.857  12.524  68.593  1.00  0.00    -0.248 C  
BRANCH  14  15
HETATM   15  C   UNL     1     -11.447  11.864  67.320  1.00  0.00    -0.317 C  
HETATM   16  H   UNL     1     -12.612  12.417  65.837  1.00  0.00     0.000 HD 
HETATM   17  O   UNL     1     -12.250  12.821  66.617  1.00  0.00    -0.481 OA 
BRANCH  15  18
HETATM   18  C   UNL     1     -10.338  11.349  66.410  1.00  0.00    -0.284 A  
HETATM   19  C   UNL     1      -9.188  10.726  66.941  1.00  0.00    -0.172 A  
HETATM   20  C   UNL     1      -8.180  10.223  66.112  1.00  0.00    -0.138 A  
HETATM   21  H   UNL     1      -7.484   9.999  62.909  1.00  0.00     0.000 HD 
HETATM   22  C   UNL     1      -8.337  10.343  64.726  1.00  0.00    -0.157 A  
HETATM   23  C   UNL     1     -10.460  11.456  65.019  1.00  0.00    -0.361 A  
HETATM   24  C   UNL     1      -9.467  10.946  64.181  1.00  0.00    -0.295 A  
HETATM   25  O   UNL     1      -7.378   9.918  63.849  1.00  0.00    -0.124 OA 
BRANCH  20  26
HETATM   26  N   UNL     1      -7.040   9.574  66.622  1.00  0.00    -0.085 N  
HETATM   27  H   UNL     1      -6.211   9.581  66.028  1.00  0.00     0.000 HD 
HETATM   28  O   UNL     1      -5.889   8.372  68.164  1.00  0.00    -0.037 OA 
HETATM   29  C   UNL     1      -6.921   8.939  67.821  1.00  0.00    -0.075 C  
ENDBRANCH  20  26
ENDBRANCH  15  18
ENDBRANCH  14  15
ENDBRANCH  12  14
ENDBRANCH  10  12
ENDBRANCH   9  10
ENDBRANCH   6   9
ENDBRANCH   2   3
TORSDOF 8
ENDMDL
MODEL      262
REMARK 921   NORMALIZED FREE ENERGY PREDICTED BY IDOCK:   -4.00 KCAL/MOL
REMARK 922        TOTAL FREE ENERGY PREDICTED BY IDOCK:   -7.37 KCAL/MOL
REMARK 923 INTER-LIGAND FREE ENERGY PREDICTED BY IDOCK:   -6.76 KCAL/MOL
REMARK 924 INTRA-LIGAND FREE ENERGY PREDICTED BY IDOCK:   -0.60 KCAL/MOL
REMARK 927      BINDING AFFINITY PREDICTED BY RF-SCORE:    0.00 PKD
ROOT
HETATM    1  C   UNL     1     -11.249   3.748  73.732  1.00  0.00    -0.155 C  
HETATM    2  O   UNL     1     -11.036   5.120  73.410  1.00  0.00    -0.297 OA 
ENDROOT
BRANCH   2   3
HETATM    3  C   UNL     1     -10.954   5.387  72.072  1.00  0.00    -0.178 A  
HETATM    4  C   UNL     1     -11.823   6.366  71.593  1.00  0.00    -0.361 A  
HETATM    5  C   UNL     1     -11.849   6.683  70.232  1.00  0.00    -0.378 A  
HETATM    6  C   UNL     1     -10.979   6.043  69.340  1.00  0.00    -0.455 A  
HETATM    7  C   UNL     1     -10.062   4.773  71.196  1.00  0.00    -0.261 A  
HETATM    8  C   UNL     1     -10.076   5.097  69.838  1.00  0.00    -0.342 A  
BRANCH   6   9
HETATM    9  C   UNL     1     -11.079   6.260  67.849  1.00  0.00    -0.360 C  
BRANCH   9  10
HETATM   10  C   UNL     1      -9.904   7.022  67.188  1.00  0.00    -0.173 C  
HETATM   11  C   UNL     1      -9.212   6.140  66.143  1.00  0.00    -0.150 C  
BRANCH  10  12
HETATM   12  N   UNL     1     -10.326   8.271  66.518  1.00  0.00    -0.423 NA 
HETATM   13  H   UNL     1     -11.291   8.502  66.754  1.00  0.00     0.000 HD 
BRANCH  12  14
HETATM   14  C   UNL     1      -9.432   9.401  66.799  1.00  0.00    -0.165 C  
BRANCH  14  15
HETATM   15  C   UNL     1      -9.542  10.555  65.768  1.00  0.00    -0.210 C  
HETATM   16  H   UNL     1     -10.419  10.835  64.032  1.00  0.00     0.000 HD 
HETATM   17  O   UNL     1     -10.351  10.129  64.664  1.00  0.00    -0.198 OA 
BRANCH  15  18
HETATM   18  C   UNL     1     -10.148  11.799  66.407  1.00  0.00    -0.239 A  
HETATM   19  C   UNL     1      -9.519  13.057  66.294  1.00  0.00    -0.199 A  
HETATM   20  C   UNL     1     -10.085  14.209  66.851  1.00  0.00    -0.258 A  
HETATM   21  H   UNL     1     -12.731  15.083  68.590  1.00  0.00     0.000 HD 
HETATM   22  C   UNL     1     -11.307  14.093  67.524  1.00  0.00    -0.322 A  
HETATM   23  C   UNL     1     -11.368  11.718  67.090  1.00  0.00    -0.387 A  
HETATM   24  C   UNL     1     -11.948  12.863  67.638  1.00  0.00    -0.344 A  
HETATM   25  O   UNL     1     -11.902  15.162  68.133  1.00  0.00    -0.333 OA 
BRANCH  20  26
HETATM   26  N   UNL     1      -9.486  15.477  66.725  1.00  0.00    -0.225 N  
HETATM   27  H   UNL     1     -10.003  16.171  66.186  1.00  0.00     0.000 HD 
HETATM   28  O   UNL     1      -7.838  17.002  67.053  1.00  0.00    -0.166 OA 
HETATM   29  C   UNL     1      -8.293  15.880  67.246  1.00  0.00    -0.186 C  
ENDBRANCH  20  26
ENDBRANCH  15  18
ENDBRANCH  14  15
ENDBRANCH  12  14
ENDBRANCH  10  12
ENDBRANCH   9  10
ENDBRANCH   6   9
ENDBRANCH   2   3
TORSDOF 8
ENDMDL
MODEL      263
REMARK 921   NORMALIZED FREE ENERGY PREDICTED BY IDOCK:   -3.99 KCAL/MOL
REMARK 922        TOTAL FREE ENERGY PREDICTED BY IDOCK:   -7.35 KCAL/MOL
REMARK 923 INTER-LIGAND FREE ENERGY PREDICTED BY IDOCK:   -6.71 KCAL/MOL
REMARK 924 INTRA-LIGAND FREE ENERGY PREDICTED BY IDOCK:   -0.64 KCAL/MOL
REMARK 927      BINDING AFFINITY PREDICTED BY RF-SCORE:    0.00 PKD
ROOT
HETATM    1  C   UNL     1     -10.683   4.171  73.250  1.00  0.00    -0.210 C  
HETATM    2  O   UNL     1     -11.701   5.145  73.039  1.00  0.00    -0.303 OA 
ENDROOT
BRANCH   2   3
HETATM    3  C   UNL     1     -11.385   6.116  72.130  1.00  0.00    -0.299 A  
HETATM    4  C   UNL     1     -11.561   7.431  72.559  1.00  0.00    -0.319 A  
HETATM    5  C   UNL     1     -11.308   8.496  71.691  1.00  0.00    -0.362 A  
HETATM    6  C   UNL     1     -10.843   8.256  70.392  1.00  0.00    -0.241 A  
HETATM    7  C   UNL     1     -10.889   5.872  70.852  1.00  0.00    -0.347 A  
HETATM    8  C   UNL     1     -10.622   6.935  69.987  1.00  0.00    -0.254 A  
BRANCH   6   9
HETATM    9  C   UNL     1     -10.695   9.374  69.388  1.00  0.00    -0.234 C  
BRANCH   9  10
HETATM   10  C   UNL     1      -9.503  10.338  69.608  1.00  0.00    -0.151 C  
HETATM   11  C   UNL     1      -8.185   9.558  69.673  1.00  0.00    -0.143 C  
BRANCH  10  12
HETATM   12  N   UNL     1      -9.375  11.355  68.541  1.00  0.00    -0.188 NA 
HETATM   13  H   UNL     1      -8.464  11.294  68.087  1.00  0.00     0.000 HD 
BRANCH  12  14
HETATM   14  C   UNL     1     -10.460  11.286  67.554  1.00  0.00    -0.201 C  
BRANCH  14  15
HETATM   15  C   UNL     1     -10.373  12.379  66.456  1.00  0.00    -0.228 C  
HETATM   16  H   UNL     1     -11.392  12.869  64.849  1.00  0.00     0.000 HD 
HETATM   17  O   UNL     1     -11.446  12.200  65.522  1.00  0.00    -0.340 OA 
BRANCH  15  18
HETATM   18  C   UNL     1     -10.444  13.772  67.068  1.00  0.00    -0.274 A  
HETATM   19  C   UNL     1      -9.582  14.803  66.639  1.00  0.00    -0.289 A  
HETATM   20  C   UNL     1      -9.662  16.094  67.174  1.00  0.00    -0.233 A  
HETATM   21  H   UNL     1     -11.403  17.746  69.417  1.00  0.00     0.000 HD 
HETATM   22  C   UNL     1     -10.631  16.350  68.151  1.00  0.00    -0.318 A  
HETATM   23  C   UNL     1     -11.400  14.063  68.050  1.00  0.00    -0.320 A  
HETATM   24  C   UNL     1     -11.498  15.350  68.581  1.00  0.00    -0.357 A  
HETATM   25  O   UNL     1     -10.745  17.571  68.754  1.00  0.00    -0.285 OA 
BRANCH  20  26
HETATM   26  N   UNL     1      -8.828  17.141  66.740  1.00  0.00    -0.235 N  
HETATM   27  H   UNL     1      -9.203  18.085  66.829  1.00  0.00     0.000 HD 
HETATM   28  O   UNL     1      -6.939  18.009  65.831  1.00  0.00    -0.279 OA 
HETATM   29  C   UNL     1      -7.576  17.034  66.213  1.00  0.00    -0.305 C  
ENDBRANCH  20  26
ENDBRANCH  15  18
ENDBRANCH  14  15
ENDBRANCH  12  14
ENDBRANCH  10  12
ENDBRANCH   9  10
ENDBRANCH   6   9
ENDBRANCH   2   3
TORSDOF 8
ENDMDL
MODEL      264
REMARK 921   NORMALIZED FREE ENERGY PREDICTED BY IDOCK:   -3.98 KCAL/MOL
REMARK 922        TOTAL FREE ENERGY PREDICTED BY IDOCK:   -7.34 KCAL/MOL
REMARK 923 INTER-LIGAND FREE ENERGY PREDICTED BY IDOCK:   -6.13 KCAL/MOL
REMARK 924 INTRA-LIGAND FREE ENERGY PREDICTED BY IDOCK:   -1.21 KCAL/MOL
REMARK 927      BINDING AFFINITY PREDICTED BY RF-SCORE:    0.00 PKD
ROOT
HETATM    1  C   UNL     1      -5.565  12.462  70.304  1.00  0.00    -0.156 C  
HETATM    2  O   UNL     1      -5.300  13.216  69.124  1.00  0.00    -0.069 OA 
ENDROOT
BRANCH   2   3
HETATM    3  C   UNL     1      -5.972  14.403  69.041  1.00  0.00    -0.089 A  
HETATM    4  C   UNL     1      -7.363  14.312  68.994  1.00  0.00    -0.117 A  
HETATM    5  C   UNL     1      -8.142  15.465  68.863  1.00  0.00    -0.185 A  
HETATM    6  C   UNL     1      -7.536  16.726  68.811  1.00  0.00    -0.231 A  
HETATM    7  C   UNL     1      -5.366  15.657  69.026  1.00  0.00    -0.103 A  
HETATM    8  C   UNL     1      -6.142  16.811  68.909  1.00  0.00    -0.157 A  
BRANCH   6   9
HETATM    9  C   UNL     1      -8.337  17.975  68.531  1.00  0.00    -0.313 C  
BRANCH   9  10
HETATM   10  C   UNL     1      -8.664  18.260  67.045  1.00  0.00    -0.263 C  
HETATM   11  C   UNL     1      -7.574  17.684  66.134  1.00  0.00    -0.315 C  
BRANCH  10  12
HETATM   12  N   UNL     1      -9.960  17.690  66.616  1.00  0.00    -0.313 NA 
HETATM   13  H   UNL     1     -10.460  18.338  66.008  1.00  0.00     0.000 HD 
BRANCH  12  14
HETATM   14  C   UNL     1      -9.822  16.373  65.981  1.00  0.00    -0.335 C  
BRANCH  14  15
HETATM   15  C   UNL     1     -11.157  15.590  65.875  1.00  0.00    -0.205 C  
HETATM   16  H   UNL     1     -11.936  14.259  64.657  1.00  0.00     0.000 HD 
HETATM   17  O   UNL     1     -11.118  14.738  64.722  1.00  0.00    -0.387 OA 
BRANCH  15  18
HETATM   18  C   UNL     1     -11.401  14.758  67.128  1.00  0.00    -0.363 A  
HETATM   19  C   UNL     1     -11.090  13.382  67.162  1.00  0.00    -0.303 A  
HETATM   20  C   UNL     1     -11.282  12.617  68.318  1.00  0.00    -0.272 A  
HETATM   21  H   UNL     1     -12.385  12.997  71.389  1.00  0.00     0.000 HD 
HETATM   22  C   UNL     1     -11.786  13.252  69.459  1.00  0.00    -0.327 A  
HETATM   23  C   UNL     1     -11.907  15.360  68.287  1.00  0.00    -0.225 A  
HETATM   24  C   UNL     1     -12.090  14.610  69.450  1.00  0.00    -0.317 A  
HETATM   25  O   UNL     1     -12.043  12.567  70.614  1.00  0.00    -0.356 OA 
BRANCH  20  26
HETATM   26  N   UNL     1     -10.953  11.250  68.379  1.00  0.00    -0.201 N  
HETATM   27  H   UNL     1     -10.797  10.862  69.309  1.00  0.00     0.000 HD 
HETATM   28  O   UNL     1     -10.496   9.215  67.487  1.00  0.00    -0.245 OA 
HETATM   29  C   UNL     1     -10.819  10.387  67.333  1.00  0.00    -0.286 C  
ENDBRANCH  20  26
ENDBRANCH  15  18
ENDBRANCH  14  15
ENDBRANCH  12  14
ENDBRANCH  10  12
ENDBRANCH   9  10
ENDBRANCH   6   9
ENDBRANCH   2   3
TORSDOF 8
ENDMDL
MODEL      265
REMARK 921   NORMALIZED FREE ENERGY PREDICTED BY IDOCK:   -3.97 KCAL/MOL
REMARK 922        TOTAL FREE ENERGY PREDICTED BY IDOCK:   -7.32 KCAL/MOL
REMARK 923 INTER-LIGAND FREE ENERGY PREDICTED BY IDOCK:   -6.77 KCAL/MOL
REMARK 924 INTRA-LIGAND FREE ENERGY PREDICTED BY IDOCK:   -0.54 KCAL/MOL
REMARK 927      BINDING AFFINITY PREDICTED BY RF-SCORE:    0.00 PKD
ROOT
HETATM    1  C   UNL     1      -9.394  20.326  67.146  1.00  0.00    -0.405 C  
HETATM    2  O   UNL     1      -8.488  19.273  67.461  1.00  0.00    -0.282 OA 
ENDROOT
BRANCH   2   3
HETATM    3  C   UNL     1      -9.080  18.109  67.863  1.00  0.00    -0.265 A  
HETATM    4  C   UNL     1      -8.274  17.236  68.593  1.00  0.00    -0.262 A  
HETATM    5  C   UNL     1      -8.771  16.000  69.013  1.00  0.00    -0.245 A  
HETATM    6  C   UNL     1     -10.094  15.637  68.733  1.00  0.00    -0.211 A  
HETATM    7  C   UNL     1     -10.408  17.769  67.614  1.00  0.00    -0.375 A  
HETATM    8  C   UNL     1     -10.911  16.540  68.043  1.00  0.00    -0.320 A  
BRANCH   6   9
HETATM    9  C   UNL     1     -10.617  14.256  69.050  1.00  0.00    -0.243 C  
BRANCH   9  10
HETATM   10  C   UNL     1     -10.048  13.096  68.197  1.00  0.00    -0.237 C  
HETATM   11  C   UNL     1      -9.809  13.556  66.755  1.00  0.00    -0.267 C  
BRANCH  10  12
HETATM   12  N   UNL     1      -8.771  12.564  68.720  1.00  0.00    -0.380 NA 
HETATM   13  H   UNL     1      -8.827  12.406  69.726  1.00  0.00     0.000 HD 
BRANCH  12  14
HETATM   14  C   UNL     1      -8.328  11.350  68.022  1.00  0.00    -0.143 C  
BRANCH  14  15
HETATM   15  C   UNL     1      -7.750  10.264  68.966  1.00  0.00    -0.110 C  
HETATM   16  H   UNL     1      -6.925  10.219  70.749  1.00  0.00     0.000 HD 
HETATM   17  O   UNL     1      -7.280  10.884  70.171  1.00  0.00    -0.121 OA 
BRANCH  15  18
HETATM   18  C   UNL     1      -8.803   9.214  69.298  1.00  0.00    -0.144 A  
HETATM   19  C   UNL     1     -10.043   9.579  69.866  1.00  0.00    -0.262 A  
HETATM   20  C   UNL     1     -11.027   8.624  70.145  1.00  0.00    -0.226 A  
HETATM   21  H   UNL     1     -11.472   5.378  69.914  1.00  0.00     0.000 HD 
HETATM   22  C   UNL     1     -10.761   7.285  69.840  1.00  0.00    -0.242 A  
HETATM   23  C   UNL     1      -8.569   7.865  69.008  1.00  0.00    -0.135 A  
HETATM   24  C   UNL     1      -9.549   6.906  69.270  1.00  0.00    -0.149 A  
HETATM   25  O   UNL     1     -11.653   6.287  70.122  1.00  0.00    -0.413 OA 
BRANCH  20  26
HETATM   26  N   UNL     1     -12.279   8.972  70.687  1.00  0.00    -0.487 N  
HETATM   27  H   UNL     1     -13.017   9.194  70.018  1.00  0.00     0.000 HD 
HETATM   28  O   UNL     1     -13.730   9.389  72.380  1.00  0.00    -0.454 OA 
HETATM   29  C   UNL     1     -12.616   9.043  72.005  1.00  0.00    -0.394 C  
ENDBRANCH  20  26
ENDBRANCH  15  18
ENDBRANCH  14  15
ENDBRANCH  12  14
ENDBRANCH  10  12
ENDBRANCH   9  10
ENDBRANCH   6   9
ENDBRANCH   2   3
TORSDOF 8
ENDMDL
MODEL      266
REMARK 921   NORMALIZED FREE ENERGY PREDICTED BY IDOCK:   -3.96 KCAL/MOL
REMARK 922        TOTAL FREE ENERGY PREDICTED BY IDOCK:   -7.31 KCAL/MOL
REMARK 923 INTER-LIGAND FREE ENERGY PREDICTED BY IDOCK:   -6.42 KCAL/MOL
REMARK 924 INTRA-LIGAND FREE ENERGY PREDICTED BY IDOCK:   -0.88 KCAL/MOL
REMARK 927      BINDING AFFINITY PREDICTED BY RF-SCORE:    0.00 PKD
ROOT
HETATM    1  C   UNL     1      -9.999   4.146  66.201  1.00  0.00    -0.173 C  
HETATM    2  O   UNL     1     -11.005   5.155  66.172  1.00  0.00    -0.237 OA 
ENDROOT
BRANCH   2   3
HETATM    3  C   UNL     1     -10.847   6.146  67.100  1.00  0.00    -0.360 A  
HETATM    4  C   UNL     1     -10.527   7.406  66.596  1.00  0.00    -0.201 A  
HETATM    5  C   UNL     1     -10.301   8.478  67.464  1.00  0.00    -0.334 A  
HETATM    6  C   UNL     1     -10.425   8.306  68.848  1.00  0.00    -0.209 A  
HETATM    7  C   UNL     1     -11.007   5.978  68.474  1.00  0.00    -0.350 A  
HETATM    8  C   UNL     1     -10.795   7.050  69.343  1.00  0.00    -0.253 A  
BRANCH   6   9
HETATM    9  C   UNL     1     -10.053   9.403  69.816  1.00  0.00    -0.229 C  
BRANCH   9  10
HETATM   10  C   UNL     1      -8.593   9.395  70.332  1.00  0.00    -0.230 C  
HETATM   11  C   UNL     1      -7.822   8.207  69.746  1.00  0.00    -0.105 C  
BRANCH  10  12
HETATM   12  N   UNL     1      -7.851  10.629  69.991  1.00  0.00    -0.382 NA 
HETATM   13  H   UNL     1      -7.063  10.766  70.624  1.00  0.00     0.000 HD 
BRANCH  12  14
HETATM   14  C   UNL     1      -7.413  10.663  68.590  1.00  0.00    -0.098 C  
BRANCH  14  15
HETATM   15  C   UNL     1      -7.267  12.098  68.018  1.00  0.00    -0.099 C  
HETATM   16  H   UNL     1      -6.464  12.922  66.426  1.00  0.00     0.000 HD 
HETATM   17  O   UNL     1      -6.553  12.044  66.776  1.00  0.00    -0.096 OA 
BRANCH  15  18
HETATM   18  C   UNL     1      -8.632  12.740  67.806  1.00  0.00    -0.184 A  
HETATM   19  C   UNL     1      -9.534  12.237  66.843  1.00  0.00    -0.217 A  
HETATM   20  C   UNL     1     -10.801  12.802  66.664  1.00  0.00    -0.264 A  
HETATM   21  H   UNL     1     -12.619  15.255  67.877  1.00  0.00     0.000 HD 
HETATM   22  C   UNL     1     -11.168  13.885  67.472  1.00  0.00    -0.303 A  
HETATM   23  C   UNL     1      -9.031  13.826  68.595  1.00  0.00    -0.050 A  
HETATM   24  C   UNL     1     -10.297  14.390  68.433  1.00  0.00    -0.244 A  
HETATM   25  O   UNL     1     -12.370  14.520  67.329  1.00  0.00    -0.276 OA 
BRANCH  20  26
HETATM   26  N   UNL     1     -11.724  12.298  65.728  1.00  0.00    -0.401 N  
HETATM   27  H   UNL     1     -12.227  11.454  65.998  1.00  0.00     0.000 HD 
HETATM   28  O   UNL     1     -12.818  12.280  63.740  1.00  0.00    -0.735 OA 
HETATM   29  C   UNL     1     -12.018  12.814  64.501  1.00  0.00    -0.393 C  
ENDBRANCH  20  26
ENDBRANCH  15  18
ENDBRANCH  14  15
ENDBRANCH  12  14
ENDBRANCH  10  12
ENDBRANCH   9  10
ENDBRANCH   6   9
ENDBRANCH   2   3
TORSDOF 8
ENDMDL
MODEL      267
REMARK 921   NORMALIZED FREE ENERGY PREDICTED BY IDOCK:   -3.96 KCAL/MOL
REMARK 922        TOTAL FREE ENERGY PREDICTED BY IDOCK:   -7.31 KCAL/MOL
REMARK 923 INTER-LIGAND FREE ENERGY PREDICTED BY IDOCK:   -5.91 KCAL/MOL
REMARK 924 INTRA-LIGAND FREE ENERGY PREDICTED BY IDOCK:   -1.40 KCAL/MOL
REMARK 927      BINDING AFFINITY PREDICTED BY RF-SCORE:    0.00 PKD
ROOT
HETATM    1  C   UNL     1     -11.662  15.666  70.136  1.00  0.00    -0.360 C  
HETATM    2  O   UNL     1     -12.592  15.037  69.259  1.00  0.00    -0.045 OA 
ENDROOT
BRANCH   2   3
HETATM    3  C   UNL     1     -12.064  14.047  68.478  1.00  0.00    -0.294 A  
HETATM    4  C   UNL     1     -11.870  12.816  69.104  1.00  0.00    -0.352 A  
HETATM    5  C   UNL     1     -11.295  11.752  68.407  1.00  0.00    -0.328 A  
HETATM    6  C   UNL     1     -10.935  11.899  67.061  1.00  0.00    -0.326 A  
HETATM    7  C   UNL     1     -11.742  14.189  67.131  1.00  0.00    -0.430 A  
HETATM    8  C   UNL     1     -11.178  13.123  66.427  1.00  0.00    -0.328 A  
BRANCH   6   9
HETATM    9  C   UNL     1     -10.186  10.817  66.321  1.00  0.00    -0.301 C  
BRANCH   9  10
HETATM   10  C   UNL     1      -8.766  11.183  65.826  1.00  0.00    -0.150 C  
HETATM   11  C   UNL     1      -7.836  11.457  67.012  1.00  0.00    -0.158 C  
BRANCH  10  12
HETATM   12  N   UNL     1      -8.148  10.122  65.001  1.00  0.00    -0.145 NA 
HETATM   13  H   UNL     1      -7.186   9.948  65.293  1.00  0.00     0.000 HD 
BRANCH  12  14
HETATM   14  C   UNL     1      -8.927   8.878  64.993  1.00  0.00    -0.108 C  
BRANCH  14  15
HETATM   15  C   UNL     1      -8.255   7.716  65.770  1.00  0.00    -0.133 C  
HETATM   16  H   UNL     1      -6.550   7.423  66.702  1.00  0.00     0.000 HD 
HETATM   17  O   UNL     1      -6.962   8.135  66.226  1.00  0.00    -0.061 OA 
BRANCH  15  18
HETATM   18  C   UNL     1      -9.111   7.289  66.957  1.00  0.00    -0.152 A  
HETATM   19  C   UNL     1      -8.855   7.779  68.255  1.00  0.00    -0.129 A  
HETATM   20  C   UNL     1      -9.655   7.416  69.344  1.00  0.00    -0.155 A  
HETATM   21  H   UNL     1     -12.267   5.529  69.984  1.00  0.00     0.000 HD 
HETATM   22  C   UNL     1     -10.733   6.552  69.119  1.00  0.00    -0.275 A  
HETATM   23  C   UNL     1     -10.196   6.424  66.768  1.00  0.00    -0.259 A  
HETATM   24  C   UNL     1     -11.009   6.065  67.845  1.00  0.00    -0.334 A  
HETATM   25  O   UNL     1     -11.535   6.115  70.137  1.00  0.00    -0.391 OA 
BRANCH  20  26
HETATM   26  N   UNL     1      -9.432   7.915  70.641  1.00  0.00    -0.162 N  
HETATM   27  H   UNL     1     -10.196   7.806  71.307  1.00  0.00     0.000 HD 
HETATM   28  O   UNL     1      -8.220   8.961  72.250  1.00  0.00    -0.379 OA 
HETATM   29  C   UNL     1      -8.307   8.529  71.106  1.00  0.00    -0.150 C  
ENDBRANCH  20  26
ENDBRANCH  15  18
ENDBRANCH  14  15
ENDBRANCH  12  14
ENDBRANCH  10  12
ENDBRANCH   9  10
ENDBRANCH   6   9
ENDBRANCH   2   3
TORSDOF 8
ENDMDL
MODEL      268
REMARK 921   NORMALIZED FREE ENERGY PREDICTED BY IDOCK:   -3.94 KCAL/MOL
REMARK 922        TOTAL FREE ENERGY PREDICTED BY IDOCK:   -7.27 KCAL/MOL
REMARK 923 INTER-LIGAND FREE ENERGY PREDICTED BY IDOCK:   -6.78 KCAL/MOL
REMARK 924 INTRA-LIGAND FREE ENERGY PREDICTED BY IDOCK:   -0.49 KCAL/MOL
REMARK 927      BINDING AFFINITY PREDICTED BY RF-SCORE:    0.00 PKD
ROOT
HETATM    1  C   UNL     1     -10.502   9.536  70.453  1.00  0.00    -0.278 C  
HETATM    2  O   UNL     1     -11.832   9.689  70.942  1.00  0.00    -0.287 OA 
ENDROOT
BRANCH   2   3
HETATM    3  C   UNL     1     -12.283  10.979  70.977  1.00  0.00    -0.351 A  
HETATM    4  C   UNL     1     -11.889  11.791  69.914  1.00  0.00    -0.423 A  
HETATM    5  C   UNL     1     -12.260  13.137  69.877  1.00  0.00    -0.293 A  
HETATM    6  C   UNL     1     -13.061  13.678  70.891  1.00  0.00    -0.184 A  
HETATM    7  C   UNL     1     -13.109  11.502  71.969  1.00  0.00    -0.430 A  
HETATM    8  C   UNL     1     -13.493  12.844  71.929  1.00  0.00    -0.478 A  
BRANCH   6   9
HETATM    9  C   UNL     1     -13.362  15.156  70.954  1.00  0.00    -0.463 C  
BRANCH   9  10
HETATM   10  C   UNL     1     -12.234  16.063  71.506  1.00  0.00    -0.422 C  
HETATM   11  C   UNL     1     -11.549  15.398  72.705  1.00  0.00    -0.504 C  
BRANCH  10  12
HETATM   12  N   UNL     1     -11.192  16.369  70.501  1.00  0.00    -0.462 NA 
HETATM   13  H   UNL     1     -10.431  15.691  70.548  1.00  0.00     0.000 HD 
BRANCH  12  14
HETATM   14  C   UNL     1     -11.726  16.467  69.137  1.00  0.00    -0.029 C  
BRANCH  14  15
HETATM   15  C   UNL     1     -10.687  16.959  68.096  1.00  0.00    -0.375 C  
HETATM   16  H   UNL     1      -9.458  18.483  67.919  1.00  0.00     0.000 HD 
HETATM   17  O   UNL     1     -10.095  18.181  68.557  1.00  0.00    -0.366 OA 
BRANCH  15  18
HETATM   18  C   UNL     1      -9.604  15.911  67.869  1.00  0.00    -0.215 A  
HETATM   19  C   UNL     1      -8.836  15.411  68.943  1.00  0.00    -0.211 A  
HETATM   20  C   UNL     1      -7.861  14.426  68.748  1.00  0.00    -0.138 A  
HETATM   21  H   UNL     1      -6.570  12.665  66.294  1.00  0.00     0.000 HD 
HETATM   22  C   UNL     1      -7.665  13.931  67.453  1.00  0.00    -0.148 A  
HETATM   23  C   UNL     1      -9.379  15.395  66.587  1.00  0.00    -0.288 A  
HETATM   24  C   UNL     1      -8.419  14.403  66.383  1.00  0.00     0.353 A  
HETATM   25  O   UNL     1      -6.704  13.001  67.173  1.00  0.00    -0.137 OA 
BRANCH  20  26
HETATM   26  N   UNL     1      -7.104  13.897  69.810  1.00  0.00    -0.344 N  
HETATM   27  H   UNL     1      -7.134  12.885  69.928  1.00  0.00     0.000 HD 
HETATM   28  O   UNL     1      -5.735  14.037  71.613  1.00  0.00    -0.228 OA 
HETATM   29  C   UNL     1      -6.334  14.588  70.697  1.00  0.00    -0.081 C  
ENDBRANCH  20  26
ENDBRANCH  15  18
ENDBRANCH  14  15
ENDBRANCH  12  14
ENDBRANCH  10  12
ENDBRANCH   9  10
ENDBRANCH   6   9
ENDBRANCH   2   3
TORSDOF 8
ENDMDL
MODEL      269
REMARK 921   NORMALIZED FREE ENERGY PREDICTED BY IDOCK:   -3.93 KCAL/MOL
REMARK 922        TOTAL FREE ENERGY PREDICTED BY IDOCK:   -7.26 KCAL/MOL
REMARK 923 INTER-LIGAND FREE ENERGY PREDICTED BY IDOCK:   -6.01 KCAL/MOL
REMARK 924 INTRA-LIGAND FREE ENERGY PREDICTED BY IDOCK:   -1.25 KCAL/MOL
REMARK 927      BINDING AFFINITY PREDICTED BY RF-SCORE:    0.00 PKD
ROOT
HETATM    1  C   UNL     1     -11.023  11.485  63.445  1.00  0.00    -0.315 C  
HETATM    2  O   UNL     1     -10.160  10.385  63.714  1.00  0.00    -0.274 OA 
ENDROOT
BRANCH   2   3
HETATM    3  C   UNL     1      -9.197  10.629  64.654  1.00  0.00    -0.227 A  
HETATM    4  C   UNL     1      -9.595  11.398  65.747  1.00  0.00    -0.260 A  
HETATM    5  C   UNL     1      -8.676  11.742  66.741  1.00  0.00    -0.192 A  
HETATM    6  C   UNL     1      -7.352  11.291  66.667  1.00  0.00    -0.131 A  
HETATM    7  C   UNL     1      -7.892  10.148  64.594  1.00  0.00    -0.144 A  
HETATM    8  C   UNL     1      -6.974  10.479  65.592  1.00  0.00    -0.113 A  
BRANCH   6   9
HETATM    9  C   UNL     1      -6.304  11.759  67.648  1.00  0.00    -0.082 C  
BRANCH   9  10
HETATM   10  C   UNL     1      -6.827  12.408  68.953  1.00  0.00    -0.099 C  
HETATM   11  C   UNL     1      -6.185  11.748  70.178  1.00  0.00    -0.104 C  
BRANCH  10  12
HETATM   12  N   UNL     1      -6.556  13.860  69.027  1.00  0.00    -0.102 NA 
HETATM   13  H   UNL     1      -5.648  14.039  69.456  1.00  0.00     0.000 HD 
BRANCH  12  14
HETATM   14  C   UNL     1      -6.662  14.529  67.724  1.00  0.00    -0.174 C  
BRANCH  14  15
HETATM   15  C   UNL     1      -7.553  15.798  67.746  1.00  0.00    -0.140 C  
HETATM   16  H   UNL     1      -8.183  17.120  66.436  1.00  0.00     0.000 HD 
HETATM   17  O   UNL     1      -7.638  16.342  66.422  1.00  0.00    -0.259 OA 
BRANCH  15  18
HETATM   18  C   UNL     1      -8.949  15.474  68.265  1.00  0.00    -0.185 A  
HETATM   19  C   UNL     1      -9.925  14.899  67.423  1.00  0.00    -0.223 A  
HETATM   20  C   UNL     1     -11.199  14.570  67.900  1.00  0.00    -0.295 A  
HETATM   21  H   UNL     1     -12.922  14.733  70.692  1.00  0.00     0.000 HD 
HETATM   22  C   UNL     1     -11.490  14.817  69.246  1.00  0.00    -0.296 A  
HETATM   23  C   UNL     1      -9.276  15.711  69.606  1.00  0.00    -0.189 A  
HETATM   24  C   UNL     1     -10.539  15.375  70.095  1.00  0.00    -0.314 A  
HETATM   25  O   UNL     1     -12.724  14.565  69.778  1.00  0.00    -0.216 OA 
BRANCH  20  26
HETATM   26  N   UNL     1     -12.176  13.971  67.083  1.00  0.00    -0.532 N  
HETATM   27  H   UNL     1     -12.759  13.259  67.521  1.00  0.00     0.000 HD 
HETATM   28  O   UNL     1     -13.285  13.635  65.132  1.00  0.00    -0.739 OA 
HETATM   29  C   UNL     1     -12.429  14.237  65.771  1.00  0.00    -0.403 C  
ENDBRANCH  20  26
ENDBRANCH  15  18
ENDBRANCH  14  15
ENDBRANCH  12  14
ENDBRANCH  10  12
ENDBRANCH   9  10
ENDBRANCH   6   9
ENDBRANCH   2   3
TORSDOF 8
ENDMDL
MODEL      270
REMARK 921   NORMALIZED FREE ENERGY PREDICTED BY IDOCK:   -3.93 KCAL/MOL
REMARK 922        TOTAL FREE ENERGY PREDICTED BY IDOCK:   -7.25 KCAL/MOL
REMARK 923 INTER-LIGAND FREE ENERGY PREDICTED BY IDOCK:   -6.54 KCAL/MOL
REMARK 924 INTRA-LIGAND FREE ENERGY PREDICTED BY IDOCK:   -0.72 KCAL/MOL
REMARK 927      BINDING AFFINITY PREDICTED BY RF-SCORE:    0.00 PKD
ROOT
HETATM    1  C   UNL     1      -9.043   4.393  72.204  1.00  0.00    -0.121 C  
HETATM    2  O   UNL     1      -8.569   5.600  72.795  1.00  0.00    -0.120 OA 
ENDROOT
BRANCH   2   3
HETATM    3  C   UNL     1      -8.830   6.731  72.073  1.00  0.00    -0.134 A  
HETATM    4  C   UNL     1      -8.134   6.861  70.872  1.00  0.00    -0.114 A  
HETATM    5  C   UNL     1      -8.296   8.001  70.081  1.00  0.00    -0.126 A  
HETATM    6  C   UNL     1      -9.184   9.012  70.471  1.00  0.00    -0.261 A  
HETATM    7  C   UNL     1      -9.741   7.715  72.447  1.00  0.00    -0.231 A  
HETATM    8  C   UNL     1      -9.916   8.850  71.653  1.00  0.00    -0.397 A  
BRANCH   6   9
HETATM    9  C   UNL     1      -9.278  10.315  69.713  1.00  0.00    -0.101 C  
BRANCH   9  10
HETATM   10  C   UNL     1      -9.323  10.208  68.169  1.00  0.00    -0.135 C  
HETATM   11  C   UNL     1     -10.711   9.756  67.702  1.00  0.00    -0.334 C  
BRANCH  10  12
HETATM   12  N   UNL     1      -9.010  11.484  67.490  1.00  0.00    -0.156 NA 
HETATM   13  H   UNL     1      -9.596  11.611  66.665  1.00  0.00     0.000 HD 
BRANCH  12  14
HETATM   14  C   UNL     1      -9.103  12.645  68.385  1.00  0.00    -0.128 C  
BRANCH  14  15
HETATM   15  C   UNL     1     -10.522  13.267  68.453  1.00  0.00    -0.253 C  
HETATM   16  H   UNL     1     -11.480  14.505  69.641  1.00  0.00     0.000 HD 
HETATM   17  O   UNL     1     -10.611  14.124  69.599  1.00  0.00    -0.053 OA 
BRANCH  15  18
HETATM   18  C   UNL     1     -10.832  14.057  67.188  1.00  0.00    -0.288 A  
HETATM   19  C   UNL     1     -11.556  13.478  66.124  1.00  0.00    -0.371 A  
HETATM   20  C   UNL     1     -11.870  14.206  64.971  1.00  0.00    -0.389 A  
HETATM   21  H   UNL     1     -11.405  17.213  63.733  1.00  0.00     0.000 HD 
HETATM   22  C   UNL     1     -11.457  15.541  64.894  1.00  0.00    -0.279 A  
HETATM   23  C   UNL     1     -10.430  15.394  67.076  1.00  0.00    -0.295 A  
HETATM   24  C   UNL     1     -10.750  16.135  65.937  1.00  0.00    -0.261 A  
HETATM   25  O   UNL     1     -11.686  16.307  63.786  1.00  0.00    -0.969 OA 
BRANCH  20  26
HETATM   26  N   UNL     1     -12.614  13.654  63.912  1.00  0.00    -0.694 N  
HETATM   27  H   UNL     1     -13.055  14.316  63.273  1.00  0.00     0.000 HD 
HETATM   28  O   UNL     1     -13.507  11.948  62.711  1.00  0.00    -0.027 OA 
HETATM   29  C   UNL     1     -12.811  12.332  63.645  1.00  0.00    -0.306 C  
ENDBRANCH  20  26
ENDBRANCH  15  18
ENDBRANCH  14  15
ENDBRANCH  12  14
ENDBRANCH  10  12
ENDBRANCH   9  10
ENDBRANCH   6   9
ENDBRANCH   2   3
TORSDOF 8
ENDMDL
MODEL      271
REMARK 921   NORMALIZED FREE ENERGY PREDICTED BY IDOCK:   -3.92 KCAL/MOL
REMARK 922        TOTAL FREE ENERGY PREDICTED BY IDOCK:   -7.24 KCAL/MOL
REMARK 923 INTER-LIGAND FREE ENERGY PREDICTED BY IDOCK:   -6.02 KCAL/MOL
REMARK 924 INTRA-LIGAND FREE ENERGY PREDICTED BY IDOCK:   -1.22 KCAL/MOL
REMARK 927      BINDING AFFINITY PREDICTED BY RF-SCORE:    0.00 PKD
ROOT
HETATM    1  C   UNL     1     -11.512   4.249  73.412  1.00  0.00    -0.171 C  
HETATM    2  O   UNL     1     -10.235   4.879  73.367  1.00  0.00    -0.154 OA 
ENDROOT
BRANCH   2   3
HETATM    3  C   UNL     1     -10.227   6.116  72.786  1.00  0.00    -0.185 A  
HETATM    4  C   UNL     1     -10.846   6.207  71.540  1.00  0.00    -0.313 A  
HETATM    5  C   UNL     1     -10.854   7.417  70.842  1.00  0.00    -0.255 A  
HETATM    6  C   UNL     1     -10.268   8.560  71.400  1.00  0.00    -0.303 A  
HETATM    7  C   UNL     1      -9.676   7.258  73.363  1.00  0.00    -0.297 A  
HETATM    8  C   UNL     1      -9.693   8.472  72.673  1.00  0.00    -0.285 A  
BRANCH   6   9
HETATM    9  C   UNL     1     -10.137   9.843  70.615  1.00  0.00    -0.146 C  
BRANCH   9  10
HETATM   10  C   UNL     1     -11.461  10.511  70.167  1.00  0.00    -0.325 C  
HETATM   11  C   UNL     1     -12.466  10.541  71.324  1.00  0.00    -0.524 C  
BRANCH  10  12
HETATM   12  N   UNL     1     -11.278  11.899  69.690  1.00  0.00    -0.455 NA 
HETATM   13  H   UNL     1     -10.723  12.441  70.352  1.00  0.00     0.000 HD 
BRANCH  12  14
HETATM   14  C   UNL     1     -10.702  11.968  68.341  1.00  0.00    -0.229 C  
BRANCH  14  15
HETATM   15  C   UNL     1     -11.227  10.867  67.382  1.00  0.00    -0.273 C  
HETATM   16  H   UNL     1     -12.156  10.809  65.652  1.00  0.00     0.000 HD 
HETATM   17  O   UNL     1     -11.835  11.483  66.239  1.00  0.00    -0.354 OA 
BRANCH  15  18
HETATM   18  C   UNL     1     -10.095   9.949  66.938  1.00  0.00    -0.285 A  
HETATM   19  C   UNL     1     -10.177   8.551  67.115  1.00  0.00    -0.355 A  
HETATM   20  C   UNL     1      -9.156   7.698  66.682  1.00  0.00    -0.164 A  
HETATM   21  H   UNL     1      -6.224   7.885  65.213  1.00  0.00     0.000 HD 
HETATM   22  C   UNL     1      -8.040   8.262  66.052  1.00  0.00    -0.110 A  
HETATM   23  C   UNL     1      -8.963  10.479  66.307  1.00  0.00    -0.174 A  
HETATM   24  C   UNL     1      -7.944   9.637  65.859  1.00  0.00    -0.112 A  
HETATM   25  O   UNL     1      -6.981   7.503  65.640  1.00  0.00    -0.058 OA 
BRANCH  20  26
HETATM   26  N   UNL     1      -9.231   6.300  66.826  1.00  0.00    -0.133 N  
HETATM   27  H   UNL     1      -8.587   5.878  67.494  1.00  0.00     0.000 HD 
HETATM   28  O   UNL     1     -10.037   4.235  66.342  1.00  0.00    -0.227 OA 
HETATM   29  C   UNL     1     -10.070   5.449  66.171  1.00  0.00    -0.135 C  
ENDBRANCH  20  26
ENDBRANCH  15  18
ENDBRANCH  14  15
ENDBRANCH  12  14
ENDBRANCH  10  12
ENDBRANCH   9  10
ENDBRANCH   6   9
ENDBRANCH   2   3
TORSDOF 8
ENDMDL
MODEL      272
REMARK 921   NORMALIZED FREE ENERGY PREDICTED BY IDOCK:   -3.91 KCAL/MOL
REMARK 922        TOTAL FREE ENERGY PREDICTED BY IDOCK:   -7.23 KCAL/MOL
REMARK 923 INTER-LIGAND FREE ENERGY PREDICTED BY IDOCK:   -6.48 KCAL/MOL
REMARK 924 INTRA-LIGAND FREE ENERGY PREDICTED BY IDOCK:   -0.75 KCAL/MOL
REMARK 927      BINDING AFFINITY PREDICTED BY RF-SCORE:    0.00 PKD
ROOT
HETATM    1  C   UNL     1     -12.135  15.782  64.806  1.00  0.00     0.233 C  
HETATM    2  O   UNL     1     -12.793  14.526  64.673  1.00  0.00    -0.614 OA 
ENDROOT
BRANCH   2   3
HETATM    3  C   UNL     1     -11.958  13.458  64.496  1.00  0.00    -0.407 A  
HETATM    4  C   UNL     1     -10.816  13.440  65.295  1.00  0.00    -0.318 A  
HETATM    5  C   UNL     1      -9.875  12.416  65.161  1.00  0.00    -0.157 A  
HETATM    6  C   UNL     1     -10.085  11.378  64.244  1.00  0.00    -0.347 A  
HETATM    7  C   UNL     1     -12.190  12.410  63.608  1.00  0.00    -0.653 A  
HETATM    8  C   UNL     1     -11.259  11.378  63.480  1.00  0.00    -0.322 A  
BRANCH   6   9
HETATM    9  C   UNL     1      -9.026  10.336  63.976  1.00  0.00    -0.261 C  
BRANCH   9  10
HETATM   10  C   UNL     1      -8.838   9.254  65.068  1.00  0.00    -0.198 C  
HETATM   11  C   UNL     1      -7.645   9.599  65.966  1.00  0.00    -0.102 C  
BRANCH  10  12
HETATM   12  N   UNL     1     -10.025   9.092  65.934  1.00  0.00    -0.416 NA 
HETATM   13  H   UNL     1     -10.655   8.382  65.561  1.00  0.00     0.000 HD 
BRANCH  12  14
HETATM   14  C   UNL     1      -9.677   8.804  67.332  1.00  0.00    -0.174 C  
BRANCH  14  15
HETATM   15  C   UNL     1     -10.113   7.392  67.803  1.00  0.00    -0.184 C  
HETATM   16  H   UNL     1      -9.378   5.572  67.720  1.00  0.00     0.000 HD 
HETATM   17  O   UNL     1      -9.111   6.436  67.431  1.00  0.00    -0.113 OA 
BRANCH  15  18
HETATM   18  C   UNL     1     -10.323   7.363  69.312  1.00  0.00    -0.204 A  
HETATM   19  C   UNL     1      -9.418   8.000  70.188  1.00  0.00    -0.160 A  
HETATM   20  C   UNL     1      -9.620   8.004  71.572  1.00  0.00    -0.163 A  
HETATM   21  H   UNL     1     -11.775   6.853  73.768  1.00  0.00     0.000 HD 
HETATM   22  C   UNL     1     -10.757   7.365  72.081  1.00  0.00    -0.225 A  
HETATM   23  C   UNL     1     -11.448   6.730  69.856  1.00  0.00    -0.355 A  
HETATM   24  C   UNL     1     -11.667   6.740  71.234  1.00  0.00    -0.384 A  
HETATM   25  O   UNL     1     -11.004   7.287  73.423  1.00  0.00    -0.358 OA 
BRANCH  20  26
HETATM   26  N   UNL     1      -8.743   8.656  72.459  1.00  0.00    -0.151 N  
HETATM   27  H   UNL     1      -9.118   9.463  72.956  1.00  0.00     0.000 HD 
HETATM   28  O   UNL     1      -6.750   8.981  73.494  1.00  0.00    -0.335 OA 
HETATM   29  C   UNL     1      -7.447   8.328  72.726  1.00  0.00    -0.108 C  
ENDBRANCH  20  26
ENDBRANCH  15  18
ENDBRANCH  14  15
ENDBRANCH  12  14
ENDBRANCH  10  12
ENDBRANCH   9  10
ENDBRANCH   6   9
ENDBRANCH   2   3
TORSDOF 8
ENDMDL
MODEL      273
REMARK 921   NORMALIZED FREE ENERGY PREDICTED BY IDOCK:   -3.89 KCAL/MOL
REMARK 922        TOTAL FREE ENERGY PREDICTED BY IDOCK:   -7.21 KCAL/MOL
REMARK 923 INTER-LIGAND FREE ENERGY PREDICTED BY IDOCK:   -6.47 KCAL/MOL
REMARK 924 INTRA-LIGAND FREE ENERGY PREDICTED BY IDOCK:   -0.73 KCAL/MOL
REMARK 927      BINDING AFFINITY PREDICTED BY RF-SCORE:    0.00 PKD
ROOT
HETATM    1  C   UNL     1     -12.392  15.545  70.270  1.00  0.00    -0.396 C  
HETATM    2  O   UNL     1     -11.983  15.912  68.956  1.00  0.00    -0.378 OA 
ENDROOT
BRANCH   2   3
HETATM    3  C   UNL     1     -11.248  14.964  68.300  1.00  0.00    -0.294 A  
HETATM    4  C   UNL     1     -11.928  14.233  67.327  1.00  0.00    -0.439 A  
HETATM    5  C   UNL     1     -11.279  13.211  66.629  1.00  0.00    -0.335 A  
HETATM    6  C   UNL     1      -9.929  12.931  66.878  1.00  0.00    -0.238 A  
HETATM    7  C   UNL     1      -9.897  14.714  68.526  1.00  0.00    -0.228 A  
HETATM    8  C   UNL     1      -9.242  13.702  67.822  1.00  0.00    -0.214 A  
BRANCH   6   9
HETATM    9  C   UNL     1      -9.240  11.745  66.245  1.00  0.00    -0.227 C  
BRANCH   9  10
HETATM   10  C   UNL     1     -10.154  10.572  65.812  1.00  0.00    -0.265 C  
HETATM   11  C   UNL     1      -9.492   9.759  64.695  1.00  0.00    -0.295 C  
BRANCH  10  12
HETATM   12  N   UNL     1     -10.470   9.645  66.920  1.00  0.00    -0.233 NA 
HETATM   13  H   UNL     1     -11.468   9.657  67.131  1.00  0.00     0.000 HD 
BRANCH  12  14
HETATM   14  C   UNL     1     -10.002   8.276  66.671  1.00  0.00    -0.278 C  
BRANCH  14  15
HETATM   15  C   UNL     1     -10.909   7.184  67.296  1.00  0.00    -0.312 C  
HETATM   16  H   UNL     1     -11.366   5.314  66.901  1.00  0.00     0.000 HD 
HETATM   17  O   UNL     1     -10.810   5.983  66.519  1.00  0.00    -0.257 OA 
BRANCH  15  18
HETATM   18  C   UNL     1     -10.507   6.903  68.739  1.00  0.00    -0.223 A  
HETATM   19  C   UNL     1      -9.271   7.349  69.252  1.00  0.00    -0.147 A  
HETATM   20  C   UNL     1      -8.908   7.122  70.585  1.00  0.00    -0.149 A  
HETATM   21  H   UNL     1     -10.123   5.683  73.276  1.00  0.00     0.000 HD 
HETATM   22  C   UNL     1      -9.809   6.443  71.413  1.00  0.00    -0.176 A  
HETATM   23  C   UNL     1     -11.383   6.224  69.595  1.00  0.00    -0.492 A  
HETATM   24  C   UNL     1     -11.037   6.003  70.929  1.00  0.00    -0.352 A  
HETATM   25  O   UNL     1      -9.512   6.144  72.714  1.00  0.00    -0.152 OA 
BRANCH  20  26
HETATM   26  N   UNL     1      -7.691   7.583  71.122  1.00  0.00    -0.088 N  
HETATM   27  H   UNL     1      -6.921   6.915  71.138  1.00  0.00     0.000 HD 
HETATM   28  O   UNL     1      -6.340   9.119  72.102  1.00  0.00    -0.241 OA 
HETATM   29  C   UNL     1      -7.429   8.822  71.624  1.00  0.00    -0.065 C  
ENDBRANCH  20  26
ENDBRANCH  15  18
ENDBRANCH  14  15
ENDBRANCH  12  14
ENDBRANCH  10  12
ENDBRANCH   9  10
ENDBRANCH   6   9
ENDBRANCH   2   3
TORSDOF 8
ENDMDL
MODEL      274
REMARK 921   NORMALIZED FREE ENERGY PREDICTED BY IDOCK:   -3.89 KCAL/MOL
REMARK 922        TOTAL FREE ENERGY PREDICTED BY IDOCK:   -7.20 KCAL/MOL
REMARK 923 INTER-LIGAND FREE ENERGY PREDICTED BY IDOCK:   -6.70 KCAL/MOL
REMARK 924 INTRA-LIGAND FREE ENERGY PREDICTED BY IDOCK:   -0.50 KCAL/MOL
REMARK 927      BINDING AFFINITY PREDICTED BY RF-SCORE:    0.00 PKD
ROOT
HETATM    1  C   UNL     1      -9.355   4.480  66.593  1.00  0.00    -0.149 C  
HETATM    2  O   UNL     1     -10.127   4.592  67.785  1.00  0.00    -0.102 OA 
ENDROOT
BRANCH   2   3
HETATM    3  C   UNL     1     -10.138   5.838  68.346  1.00  0.00    -0.170 A  
HETATM    4  C   UNL     1     -10.475   6.887  67.491  1.00  0.00    -0.314 A  
HETATM    5  C   UNL     1     -10.472   8.205  67.954  1.00  0.00    -0.259 A  
HETATM    6  C   UNL     1     -10.161   8.485  69.291  1.00  0.00    -0.203 A  
HETATM    7  C   UNL     1      -9.863   6.107  69.684  1.00  0.00    -0.196 A  
HETATM    8  C   UNL     1      -9.872   7.421  70.154  1.00  0.00    -0.180 A  
BRANCH   6   9
HETATM    9  C   UNL     1     -10.012   9.903  69.786  1.00  0.00    -0.275 C  
BRANCH   9  10
HETATM   10  C   UNL     1      -8.640  10.576  69.536  1.00  0.00    -0.029 C  
HETATM   11  C   UNL     1      -7.712   9.633  68.764  1.00  0.00    -0.080 C  
BRANCH  10  12
HETATM   12  N   UNL     1      -8.743  11.837  68.771  1.00  0.00    -0.361 NA 
HETATM   13  H   UNL     1      -7.905  11.994  68.212  1.00  0.00     0.000 HD 
BRANCH  12  14
HETATM   14  C   UNL     1      -9.950  11.902  67.936  1.00  0.00    -0.191 C  
BRANCH  14  15
HETATM   15  C   UNL     1      -9.655  12.135  66.431  1.00  0.00    -0.234 C  
HETATM   16  H   UNL     1     -10.243  11.354  64.727  1.00  0.00     0.000 HD 
HETATM   17  O   UNL     1     -10.424  11.212  65.648  1.00  0.00    -0.254 OA 
BRANCH  15  18
HETATM   18  C   UNL     1      -9.989  13.565  66.026  1.00  0.00    -0.308 A  
HETATM   19  C   UNL     1      -9.314  14.663  66.600  1.00  0.00    -0.293 A  
HETATM   20  C   UNL     1      -9.594  15.978  66.211  1.00  0.00    -0.307 A  
HETATM   21  H   UNL     1     -11.582  17.585  64.147  1.00  0.00     0.000 HD 
HETATM   22  C   UNL     1     -10.562  16.187  65.222  1.00  0.00    -0.369 A  
HETATM   23  C   UNL     1     -10.955  13.811  65.042  1.00  0.00    -0.359 A  
HETATM   24  C   UNL     1     -11.233  15.118  64.636  1.00  0.00    -0.352 A  
HETATM   25  O   UNL     1     -10.924  17.442  64.818  1.00  0.00    -0.964 OA 
BRANCH  20  26
HETATM   26  N   UNL     1      -8.913  17.084  66.753  1.00  0.00    -0.233 N  
HETATM   27  H   UNL     1      -8.663  17.827  66.100  1.00  0.00     0.000 HD 
HETATM   28  O   UNL     1      -7.926  18.260  68.423  1.00  0.00    -0.289 OA 
HETATM   29  C   UNL     1      -8.550  17.272  68.053  1.00  0.00    -0.234 C  
ENDBRANCH  20  26
ENDBRANCH  15  18
ENDBRANCH  14  15
ENDBRANCH  12  14
ENDBRANCH  10  12
ENDBRANCH   9  10
ENDBRANCH   6   9
ENDBRANCH   2   3
TORSDOF 8
ENDMDL
MODEL      275
REMARK 921   NORMALIZED FREE ENERGY PREDICTED BY IDOCK:   -3.89 KCAL/MOL
REMARK 922        TOTAL FREE ENERGY PREDICTED BY IDOCK:   -7.20 KCAL/MOL
REMARK 923 INTER-LIGAND FREE ENERGY PREDICTED BY IDOCK:   -6.91 KCAL/MOL
REMARK 924 INTRA-LIGAND FREE ENERGY PREDICTED BY IDOCK:   -0.29 KCAL/MOL
REMARK 927      BINDING AFFINITY PREDICTED BY RF-SCORE:    0.00 PKD
ROOT
HETATM    1  C   UNL     1      -8.131   8.770  63.538  1.00  0.00    -0.170 C  
HETATM    2  O   UNL     1      -9.154   9.630  63.046  1.00  0.00    -0.260 OA 
ENDROOT
BRANCH   2   3
HETATM    3  C   UNL     1      -9.600  10.559  63.944  1.00  0.00    -0.309 A  
HETATM    4  C   UNL     1     -10.753  11.254  63.579  1.00  0.00    -0.408 A  
HETATM    5  C   UNL     1     -11.266  12.256  64.407  1.00  0.00    -0.389 A  
HETATM    6  C   UNL     1     -10.647  12.551  65.628  1.00  0.00    -0.298 A  
HETATM    7  C   UNL     1      -9.002  10.823  65.174  1.00  0.00    -0.215 A  
HETATM    8  C   UNL     1      -9.519  11.815  66.009  1.00  0.00    -0.245 A  
BRANCH   6   9
HETATM    9  C   UNL     1     -11.092  13.718  66.476  1.00  0.00    -0.309 C  
BRANCH   9  10
HETATM   10  C   UNL     1     -11.417  13.404  67.957  1.00  0.00    -0.304 C  
HETATM   11  C   UNL     1     -11.777  11.924  68.126  1.00  0.00    -0.388 C  
BRANCH  10  12
HETATM   12  N   UNL     1     -10.296  13.705  68.873  1.00  0.00    -0.397 NA 
HETATM   13  H   UNL     1      -9.952  12.854  69.319  1.00  0.00     0.000 HD 
BRANCH  12  14
HETATM   14  C   UNL     1      -9.203  14.434  68.218  1.00  0.00    -0.201 C  
BRANCH  14  15
HETATM   15  C   UNL     1      -8.097  14.910  69.197  1.00  0.00    -0.160 C  
HETATM   16  H   UNL     1      -6.276  14.346  69.671  1.00  0.00     0.000 HD 
HETATM   17  O   UNL     1      -6.952  14.055  69.072  1.00  0.00    -0.106 OA 
BRANCH  15  18
HETATM   18  C   UNL     1      -7.701  16.353  68.910  1.00  0.00    -0.230 A  
HETATM   19  C   UNL     1      -8.475  17.165  68.053  1.00  0.00    -0.219 A  
HETATM   20  C   UNL     1      -8.135  18.501  67.809  1.00  0.00    -0.251 A  
HETATM   21  H   UNL     1      -5.814  20.665  68.657  1.00  0.00     0.000 HD 
HETATM   22  C   UNL     1      -7.005  19.027  68.445  1.00  0.00    -0.261 A  
HETATM   23  C   UNL     1      -6.575  16.911  69.527  1.00  0.00    -0.203 A  
HETATM   24  C   UNL     1      -6.234  18.246  69.301  1.00  0.00    -0.255 A  
HETATM   25  O   UNL     1      -6.582  20.308  68.225  1.00  0.00    -0.279 OA 
BRANCH  20  26
HETATM   26  N   UNL     1      -8.909  19.334  66.980  1.00  0.00    -0.284 N  
HETATM   27  H   UNL     1      -8.404  20.050  66.458  1.00  0.00     0.000 HD 
HETATM   28  O   UNL     1     -10.848  20.085  66.073  1.00  0.00    -0.358 OA 
HETATM   29  C   UNL     1     -10.258  19.290  66.796  1.00  0.00    -0.409 C  
ENDBRANCH  20  26
ENDBRANCH  15  18
ENDBRANCH  14  15
ENDBRANCH  12  14
ENDBRANCH  10  12
ENDBRANCH   9  10
ENDBRANCH   6   9
ENDBRANCH   2   3
TORSDOF 8
ENDMDL
MODEL      276
REMARK 921   NORMALIZED FREE ENERGY PREDICTED BY IDOCK:   -3.88 KCAL/MOL
REMARK 922        TOTAL FREE ENERGY PREDICTED BY IDOCK:   -7.20 KCAL/MOL
REMARK 923 INTER-LIGAND FREE ENERGY PREDICTED BY IDOCK:   -6.04 KCAL/MOL
REMARK 924 INTRA-LIGAND FREE ENERGY PREDICTED BY IDOCK:   -1.16 KCAL/MOL
REMARK 927      BINDING AFFINITY PREDICTED BY RF-SCORE:    0.00 PKD
ROOT
HETATM    1  C   UNL     1      -6.975  19.778  69.793  1.00  0.00    -0.162 C  
HETATM    2  O   UNL     1      -8.309  19.759  69.292  1.00  0.00    -0.157 OA 
ENDROOT
BRANCH   2   3
HETATM    3  C   UNL     1      -8.612  18.677  68.514  1.00  0.00    -0.340 A  
HETATM    4  C   UNL     1      -7.927  18.587  67.303  1.00  0.00    -0.241 A  
HETATM    5  C   UNL     1      -8.195  17.543  66.415  1.00  0.00    -0.305 A  
HETATM    6  C   UNL     1      -9.134  16.557  66.745  1.00  0.00    -0.262 A  
HETATM    7  C   UNL     1      -9.520  17.680  68.864  1.00  0.00    -0.183 A  
HETATM    8  C   UNL     1      -9.781  16.628  67.984  1.00  0.00    -0.241 A  
BRANCH   6   9
HETATM    9  C   UNL     1      -9.548  15.497  65.752  1.00  0.00    -0.367 C  
BRANCH   9  10
HETATM   10  C   UNL     1     -11.016  15.551  65.265  1.00  0.00    -0.380 C  
HETATM   11  C   UNL     1     -11.354  16.946  64.727  1.00  0.00     0.303 C  
BRANCH  10  12
HETATM   12  N   UNL     1     -11.310  14.571  64.198  1.00  0.00    -0.606 NA 
HETATM   13  H   UNL     1     -10.516  13.948  64.047  1.00  0.00     0.000 HD 
BRANCH  12  14
HETATM   14  C   UNL     1     -12.538  13.806  64.446  1.00  0.00    -0.169 C  
BRANCH  14  15
HETATM   15  C   UNL     1     -12.301  12.281  64.607  1.00  0.00    -0.369 C  
HETATM   16  H   UNL     1     -11.578  10.827  63.502  1.00  0.00     0.000 HD 
HETATM   17  O   UNL     1     -11.722  11.760  63.403  1.00  0.00    -0.427 OA 
BRANCH  15  18
HETATM   18  C   UNL     1     -11.384  11.996  65.790  1.00  0.00    -0.384 A  
HETATM   19  C   UNL     1     -10.225  11.205  65.641  1.00  0.00    -0.310 A  
HETATM   20  C   UNL     1      -9.361  10.964  66.715  1.00  0.00    -0.165 A  
HETATM   21  H   UNL     1      -9.106  11.698  69.907  1.00  0.00     0.000 HD 
HETATM   22  C   UNL     1      -9.667  11.535  67.956  1.00  0.00    -0.186 A  
HETATM   23  C   UNL     1     -11.662  12.548  67.047  1.00  0.00    -0.437 A  
HETATM   24  C   UNL     1     -10.801  12.325  68.122  1.00  0.00    -0.258 A  
HETATM   25  O   UNL     1      -8.899  11.311  69.064  1.00  0.00    -0.094 OA 
BRANCH  20  26
HETATM   26  N   UNL     1      -8.186  10.201  66.579  1.00  0.00    -0.122 N  
HETATM   27  H   UNL     1      -7.459  10.360  67.276  1.00  0.00     0.000 HD 
HETATM   28  O   UNL     1      -6.841   8.681  65.566  1.00  0.00    -0.072 OA 
HETATM   29  C   UNL     1      -7.913   9.273  65.619  1.00  0.00    -0.103 C  
ENDBRANCH  20  26
ENDBRANCH  15  18
ENDBRANCH  14  15
ENDBRANCH  12  14
ENDBRANCH  10  12
ENDBRANCH   9  10
ENDBRANCH   6   9
ENDBRANCH   2   3
TORSDOF 8
ENDMDL
MODEL      277
REMARK 921   NORMALIZED FREE ENERGY PREDICTED BY IDOCK:   -3.87 KCAL/MOL
REMARK 922        TOTAL FREE ENERGY PREDICTED BY IDOCK:   -7.17 KCAL/MOL
REMARK 923 INTER-LIGAND FREE ENERGY PREDICTED BY IDOCK:   -6.35 KCAL/MOL
REMARK 924 INTRA-LIGAND FREE ENERGY PREDICTED BY IDOCK:   -0.82 KCAL/MOL
REMARK 927      BINDING AFFINITY PREDICTED BY RF-SCORE:    0.00 PKD
ROOT
HETATM    1  C   UNL     1      -6.015  11.092  66.226  1.00  0.00    -0.143 C  
HETATM    2  O   UNL     1      -7.179  10.567  65.594  1.00  0.00    -0.146 OA 
ENDROOT
BRANCH   2   3
HETATM    3  C   UNL     1      -8.361  10.939  66.170  1.00  0.00    -0.168 A  
HETATM    4  C   UNL     1      -8.371  12.191  66.783  1.00  0.00    -0.111 A  
HETATM    5  C   UNL     1      -9.517  12.648  67.440  1.00  0.00    -0.189 A  
HETATM    6  C   UNL     1     -10.678  11.865  67.462  1.00  0.00    -0.263 A  
HETATM    7  C   UNL     1      -9.524  10.172  66.158  1.00  0.00    -0.238 A  
HETATM    8  C   UNL     1     -10.674  10.631  66.802  1.00  0.00    -0.272 A  
BRANCH   6   9
HETATM    9  C   UNL     1     -11.883  12.265  68.279  1.00  0.00    -0.367 C  
BRANCH   9  10
HETATM   10  C   UNL     1     -11.662  12.399  69.806  1.00  0.00    -0.291 C  
HETATM   11  C   UNL     1     -12.048  13.803  70.284  1.00  0.00    -0.425 C  
BRANCH  10  12
HETATM   12  N   UNL     1     -12.445  11.422  70.593  1.00  0.00    -0.340 NA 
HETATM   13  H   UNL     1     -13.403  11.361  70.249  1.00  0.00     0.000 HD 
BRANCH  12  14
HETATM   14  C   UNL     1     -11.819  10.095  70.642  1.00  0.00    -0.342 C  
BRANCH  14  15
HETATM   15  C   UNL     1     -12.453   9.145  71.692  1.00  0.00    -0.359 C  
HETATM   16  H   UNL     1     -14.138   8.153  71.883  1.00  0.00     0.000 HD 
HETATM   17  O   UNL     1     -13.750   8.734  71.240  1.00  0.00    -0.283 OA 
BRANCH  15  18
HETATM   18  C   UNL     1     -11.571   7.924  71.923  1.00  0.00    -0.338 A  
HETATM   19  C   UNL     1     -11.408   6.942  70.922  1.00  0.00    -0.348 A  
HETATM   20  C   UNL     1     -10.576   5.834  71.114  1.00  0.00    -0.251 A  
HETATM   21  H   UNL     1      -8.634   4.563  73.438  1.00  0.00     0.000 HD 
HETATM   22  C   UNL     1      -9.893   5.717  72.330  1.00  0.00    -0.164 A  
HETATM   23  C   UNL     1     -10.876   7.773  73.129  1.00  0.00    -0.401 A  
HETATM   24  C   UNL     1     -10.033   6.678  73.327  1.00  0.00    -0.211 A  
HETATM   25  O   UNL     1      -9.097   4.642  72.613  1.00  0.00    -0.125 OA 
BRANCH  20  26
HETATM   26  N   UNL     1     -10.379   4.859  70.118  1.00  0.00    -0.244 N  
HETATM   27  H   UNL     1     -10.777   3.938  70.300  1.00  0.00     0.000 HD 
HETATM   28  O   UNL     1      -9.569   4.087  68.144  1.00  0.00    -0.165 OA 
HETATM   29  C   UNL     1      -9.716   5.010  68.937  1.00  0.00    -0.167 C  
ENDBRANCH  20  26
ENDBRANCH  15  18
ENDBRANCH  14  15
ENDBRANCH  12  14
ENDBRANCH  10  12
ENDBRANCH   9  10
ENDBRANCH   6   9
ENDBRANCH   2   3
TORSDOF 8
ENDMDL
MODEL      278
REMARK 921   NORMALIZED FREE ENERGY PREDICTED BY IDOCK:   -3.85 KCAL/MOL
REMARK 922        TOTAL FREE ENERGY PREDICTED BY IDOCK:   -7.15 KCAL/MOL
REMARK 923 INTER-LIGAND FREE ENERGY PREDICTED BY IDOCK:   -6.48 KCAL/MOL
REMARK 924 INTRA-LIGAND FREE ENERGY PREDICTED BY IDOCK:   -0.67 KCAL/MOL
REMARK 927      BINDING AFFINITY PREDICTED BY RF-SCORE:    0.00 PKD
ROOT
HETATM    1  C   UNL     1     -10.405   3.702  73.860  1.00  0.00    -0.169 C  
HETATM    2  O   UNL     1     -10.987   4.957  74.201  1.00  0.00    -0.310 OA 
ENDROOT
BRANCH   2   3
HETATM    3  C   UNL     1     -10.838   5.932  73.255  1.00  0.00    -0.261 A  
HETATM    4  C   UNL     1     -10.084   7.041  73.638  1.00  0.00    -0.376 A  
HETATM    5  C   UNL     1      -9.908   8.114  72.761  1.00  0.00    -0.353 A  
HETATM    6  C   UNL     1     -10.460   8.073  71.474  1.00  0.00    -0.265 A  
HETATM    7  C   UNL     1     -11.358   5.870  71.965  1.00  0.00    -0.325 A  
HETATM    8  C   UNL     1     -11.174   6.935  71.080  1.00  0.00    -0.314 A  
BRANCH   6   9
HETATM    9  C   UNL     1     -10.407   9.270  70.555  1.00  0.00    -0.312 C  
BRANCH   9  10
HETATM   10  C   UNL     1      -8.999   9.713  70.088  1.00  0.00    -0.236 C  
HETATM   11  C   UNL     1      -8.223   8.522  69.516  1.00  0.00    -0.116 C  
BRANCH  10  12
HETATM   12  N   UNL     1      -9.038  10.768  69.052  1.00  0.00    -0.282 NA 
HETATM   13  H   UNL     1      -8.831  10.382  68.131  1.00  0.00     0.000 HD 
BRANCH  12  14
HETATM   14  C   UNL     1     -10.305  11.510  69.038  1.00  0.00    -0.118 C  
BRANCH  14  15
HETATM   15  C   UNL     1     -11.259  11.092  67.889  1.00  0.00    -0.310 C  
HETATM   16  H   UNL     1     -12.769  11.900  66.925  1.00  0.00     0.000 HD 
HETATM   17  O   UNL     1     -12.184  12.156  67.629  1.00  0.00    -0.462 OA 
BRANCH  15  18
HETATM   18  C   UNL     1     -10.476  10.762  66.624  1.00  0.00    -0.302 A  
HETATM   19  C   UNL     1      -9.999   9.456  66.381  1.00  0.00    -0.346 A  
HETATM   20  C   UNL     1      -9.305   9.139  65.208  1.00  0.00    -0.156 A  
HETATM   21  H   UNL     1      -8.253  10.618  62.470  1.00  0.00     0.000 HD 
HETATM   22  C   UNL     1      -9.098  10.150  64.262  1.00  0.00    -0.250 A  
HETATM   23  C   UNL     1     -10.248  11.750  65.659  1.00  0.00    -0.284 A  
HETATM   24  C   UNL     1      -9.570  11.442  64.479  1.00  0.00    -0.221 A  
HETATM   25  O   UNL     1      -8.393   9.932  63.112  1.00  0.00    -0.142 OA 
BRANCH  20  26
HETATM   26  N   UNL     1      -8.845   7.837  64.935  1.00  0.00    -0.361 N  
HETATM   27  H   UNL     1      -9.219   7.389  64.099  1.00  0.00     0.000 HD 
HETATM   28  O   UNL     1      -7.639   5.963  65.362  1.00  0.00    -0.079 OA 
HETATM   29  C   UNL     1      -7.955   7.108  65.665  1.00  0.00    -0.126 C  
ENDBRANCH  20  26
ENDBRANCH  15  18
ENDBRANCH  14  15
ENDBRANCH  12  14
ENDBRANCH  10  12
ENDBRANCH   9  10
ENDBRANCH   6   9
ENDBRANCH   2   3
TORSDOF 8
ENDMDL
MODEL      279
REMARK 921   NORMALIZED FREE ENERGY PREDICTED BY IDOCK:   -3.85 KCAL/MOL
REMARK 922        TOTAL FREE ENERGY PREDICTED BY IDOCK:   -7.15 KCAL/MOL
REMARK 923 INTER-LIGAND FREE ENERGY PREDICTED BY IDOCK:   -6.58 KCAL/MOL
REMARK 924 INTRA-LIGAND FREE ENERGY PREDICTED BY IDOCK:   -0.57 KCAL/MOL
REMARK 927      BINDING AFFINITY PREDICTED BY RF-SCORE:    0.00 PKD
ROOT
HETATM    1  C   UNL     1     -10.460   4.998  74.494  1.00  0.00    -0.234 C  
HETATM    2  O   UNL     1     -11.352   4.906  73.387  1.00  0.00    -0.333 OA 
ENDROOT
BRANCH   2   3
HETATM    3  C   UNL     1     -11.091   5.779  72.368  1.00  0.00    -0.281 A  
HETATM    4  C   UNL     1      -9.887   5.583  71.693  1.00  0.00    -0.221 A  
HETATM    5  C   UNL     1      -9.505   6.447  70.664  1.00  0.00    -0.176 A  
HETATM    6  C   UNL     1     -10.343   7.501  70.278  1.00  0.00    -0.215 A  
HETATM    7  C   UNL     1     -11.945   6.803  71.964  1.00  0.00    -0.355 A  
HETATM    8  C   UNL     1     -11.572   7.661  70.928  1.00  0.00    -0.299 A  
BRANCH   6   9
HETATM    9  C   UNL     1      -9.898   8.533  69.269  1.00  0.00    -0.185 C  
BRANCH   9  10
HETATM   10  C   UNL     1     -10.114   8.171  67.779  1.00  0.00    -0.204 C  
HETATM   11  C   UNL     1     -10.993   6.923  67.650  1.00  0.00    -0.304 C  
BRANCH  10  12
HETATM   12  N   UNL     1     -10.754   9.257  67.005  1.00  0.00    -0.227 NA 
HETATM   13  H   UNL     1     -11.761   9.112  66.938  1.00  0.00     0.000 HD 
BRANCH  12  14
HETATM   14  C   UNL     1     -10.450  10.593  67.535  1.00  0.00    -0.230 C  
BRANCH  14  15
HETATM   15  C   UNL     1     -11.710  11.415  67.912  1.00  0.00    -0.228 C  
HETATM   16  H   UNL     1     -13.155  11.282  69.236  1.00  0.00     0.000 HD 
HETATM   17  O   UNL     1     -12.383  10.779  69.006  1.00  0.00    -0.422 OA 
BRANCH  15  18
HETATM   18  C   UNL     1     -11.335  12.842  68.292  1.00  0.00    -0.326 A  
HETATM   19  C   UNL     1     -10.225  13.486  67.704  1.00  0.00    -0.239 A  
HETATM   20  C   UNL     1      -9.892  14.807  68.025  1.00  0.00    -0.218 A  
HETATM   21  H   UNL     1     -10.956  17.232  69.968  1.00  0.00     0.000 HD 
HETATM   22  C   UNL     1     -10.695  15.491  68.945  1.00  0.00    -0.242 A  
HETATM   23  C   UNL     1     -12.114  13.555  69.211  1.00  0.00    -0.335 A  
HETATM   24  C   UNL     1     -11.799  14.877  69.529  1.00  0.00    -0.360 A  
HETATM   25  O   UNL     1     -10.411  16.767  69.344  1.00  0.00    -0.321 OA 
BRANCH  20  26
HETATM   26  N   UNL     1      -8.805  15.474  67.429  1.00  0.00    -0.184 N  
HETATM   27  H   UNL     1      -9.035  16.192  66.743  1.00  0.00     0.000 HD 
HETATM   28  O   UNL     1      -6.602  15.881  67.072  1.00  0.00    -0.269 OA 
HETATM   29  C   UNL     1      -7.480  15.268  67.669  1.00  0.00    -0.176 C  
ENDBRANCH  20  26
ENDBRANCH  15  18
ENDBRANCH  14  15
ENDBRANCH  12  14
ENDBRANCH  10  12
ENDBRANCH   9  10
ENDBRANCH   6   9
ENDBRANCH   2   3
TORSDOF 8
ENDMDL
MODEL      280
REMARK 921   NORMALIZED FREE ENERGY PREDICTED BY IDOCK:   -3.85 KCAL/MOL
REMARK 922        TOTAL FREE ENERGY PREDICTED BY IDOCK:   -7.14 KCAL/MOL
REMARK 923 INTER-LIGAND FREE ENERGY PREDICTED BY IDOCK:   -5.57 KCAL/MOL
REMARK 924 INTRA-LIGAND FREE ENERGY PREDICTED BY IDOCK:   -1.58 KCAL/MOL
REMARK 927      BINDING AFFINITY PREDICTED BY RF-SCORE:    0.00 PKD
ROOT
HETATM    1  C   UNL     1     -10.927  14.625  64.848  1.00  0.00    -0.407 C  
HETATM    2  O   UNL     1     -11.503  13.391  64.429  1.00  0.00    -0.355 OA 
ENDROOT
BRANCH   2   3
HETATM    3  C   UNL     1     -11.189  12.318  65.216  1.00  0.00    -0.328 A  
HETATM    4  C   UNL     1     -10.376  11.349  64.627  1.00  0.00    -0.362 A  
HETATM    5  C   UNL     1     -10.034  10.192  65.331  1.00  0.00    -0.377 A  
HETATM    6  C   UNL     1     -10.476  10.008  66.647  1.00  0.00    -0.244 A  
HETATM    7  C   UNL     1     -11.601  12.157  66.536  1.00  0.00    -0.425 A  
HETATM    8  C   UNL     1     -11.250  11.008  67.247  1.00  0.00    -0.330 A  
BRANCH   6   9
HETATM    9  C   UNL     1     -10.241   8.710  67.384  1.00  0.00    -0.329 C  
BRANCH   9  10
HETATM   10  C   UNL     1      -9.092   8.710  68.421  1.00  0.00    -0.138 C  
HETATM   11  C   UNL     1      -9.014   7.357  69.137  1.00  0.00    -0.135 C  
BRANCH  10  12
HETATM   12  N   UNL     1      -7.768   8.981  67.820  1.00  0.00    -0.096 NA 
HETATM   13  H   UNL     1      -7.855   9.184  66.825  1.00  0.00     0.000 HD 
BRANCH  12  14
HETATM   14  C   UNL     1      -7.034  10.048  68.512  1.00  0.00    -0.066 C  
BRANCH  14  15
HETATM   15  C   UNL     1      -6.456  11.126  67.559  1.00  0.00    -0.069 C  
HETATM   16  H   UNL     1      -6.578  11.548  65.644  1.00  0.00     0.000 HD 
HETATM   17  O   UNL     1      -6.932  10.888  66.228  1.00  0.00    -0.130 OA 
BRANCH  15  18
HETATM   18  C   UNL     1      -6.858  12.525  68.012  1.00  0.00    -0.094 A  
HETATM   19  C   UNL     1      -8.193  12.971  67.904  1.00  0.00    -0.166 A  
HETATM   20  C   UNL     1      -8.576  14.242  68.346  1.00  0.00    -0.175 A  
HETATM   21  H   UNL     1      -7.224  16.906  69.712  1.00  0.00     0.000 HD 
HETATM   22  C   UNL     1      -7.601  15.072  68.912  1.00  0.00    -0.144 A  
HETATM   23  C   UNL     1      -5.908  13.382  68.580  1.00  0.00    -0.084 A  
HETATM   24  C   UNL     1      -6.282  14.647  69.036  1.00  0.00    -0.091 A  
HETATM   25  O   UNL     1      -7.886  16.343  69.328  1.00  0.00    -0.238 OA 
BRANCH  20  26
HETATM   26  N   UNL     1      -9.907  14.695  68.272  1.00  0.00    -0.216 N  
HETATM   27  H   UNL     1     -10.146  15.268  67.464  1.00  0.00     0.000 HD 
HETATM   28  O   UNL     1     -12.036  14.919  69.025  1.00  0.00    -0.308 OA 
HETATM   29  C   UNL     1     -10.911  14.451  69.161  1.00  0.00    -0.257 C  
ENDBRANCH  20  26
ENDBRANCH  15  18
ENDBRANCH  14  15
ENDBRANCH  12  14
ENDBRANCH  10  12
ENDBRANCH   9  10
ENDBRANCH   6   9
ENDBRANCH   2   3
TORSDOF 8
ENDMDL
MODEL      281
REMARK 921   NORMALIZED FREE ENERGY PREDICTED BY IDOCK:   -3.85 KCAL/MOL
REMARK 922        TOTAL FREE ENERGY PREDICTED BY IDOCK:   -7.14 KCAL/MOL
REMARK 923 INTER-LIGAND FREE ENERGY PREDICTED BY IDOCK:   -6.28 KCAL/MOL
REMARK 924 INTRA-LIGAND FREE ENERGY PREDICTED BY IDOCK:   -0.86 KCAL/MOL
REMARK 927      BINDING AFFINITY PREDICTED BY RF-SCORE:    0.00 PKD
ROOT
HETATM    1  C   UNL     1      -7.621   4.171  67.933  1.00  0.00    -0.068 C  
HETATM    2  O   UNL     1      -8.547   4.616  66.946  1.00  0.00    -0.106 OA 
ENDROOT
BRANCH   2   3
HETATM    3  C   UNL     1      -8.750   5.967  66.919  1.00  0.00    -0.112 A  
HETATM    4  C   UNL     1     -10.079   6.382  66.860  1.00  0.00    -0.244 A  
HETATM    5  C   UNL     1     -10.393   7.742  66.784  1.00  0.00    -0.348 A  
HETATM    6  C   UNL     1      -9.375   8.704  66.798  1.00  0.00    -0.229 A  
HETATM    7  C   UNL     1      -7.736   6.921  66.970  1.00  0.00    -0.103 A  
HETATM    8  C   UNL     1      -8.045   8.280  66.907  1.00  0.00    -0.103 A  
BRANCH   6   9
HETATM    9  C   UNL     1      -9.671  10.168  66.577  1.00  0.00    -0.252 C  
BRANCH   9  10
HETATM   10  C   UNL     1     -10.943  10.722  67.265  1.00  0.00    -0.297 C  
HETATM   11  C   UNL     1     -10.568  11.577  68.480  1.00  0.00    -0.236 C  
BRANCH  10  12
HETATM   12  N   UNL     1     -11.774  11.552  66.366  1.00  0.00    -0.367 NA 
HETATM   13  H   UNL     1     -12.132  12.372  66.856  1.00  0.00     0.000 HD 
BRANCH  12  14
HETATM   14  C   UNL     1     -11.072  11.940  65.136  1.00  0.00    -0.305 C  
BRANCH  14  15
HETATM   15  C   UNL     1     -11.659  13.205  64.457  1.00  0.00    -0.364 C  
HETATM   16  H   UNL     1     -13.435  14.021  64.257  1.00  0.00     0.000 HD 
HETATM   17  O   UNL     1     -13.076  13.246  64.673  1.00  0.00    -0.665 OA 
BRANCH  15  18
HETATM   18  C   UNL     1     -11.012  14.469  65.010  1.00  0.00    -0.408 A  
HETATM   19  C   UNL     1     -10.039  14.405  66.030  1.00  0.00    -0.338 A  
HETATM   20  C   UNL     1      -9.418  15.558  66.522  1.00  0.00    -0.273 A  
HETATM   21  H   UNL     1      -9.493  18.808  66.052  1.00  0.00     0.000 HD 
HETATM   22  C   UNL     1      -9.777  16.794  65.971  1.00  0.00    -0.259 A  
HETATM   23  C   UNL     1     -11.350  15.722  64.484  1.00  0.00    -0.324 A  
HETATM   24  C   UNL     1     -10.727  16.878  64.957  1.00  0.00    -0.057 A  
HETATM   25  O   UNL     1      -9.249  17.970  66.425  1.00  0.00    -0.310 OA 
BRANCH  20  26
HETATM   26  N   UNL     1      -8.426  15.511  67.519  1.00  0.00    -0.165 N  
HETATM   27  H   UNL     1      -7.569  16.030  67.331  1.00  0.00     0.000 HD 
HETATM   28  O   UNL     1      -7.551  14.842  69.503  1.00  0.00    -0.177 OA 
HETATM   29  C   UNL     1      -8.485  14.850  68.709  1.00  0.00    -0.172 C  
ENDBRANCH  20  26
ENDBRANCH  15  18
ENDBRANCH  14  15
ENDBRANCH  12  14
ENDBRANCH  10  12
ENDBRANCH   9  10
ENDBRANCH   6   9
ENDBRANCH   2   3
TORSDOF 8
ENDMDL
MODEL      282
REMARK 921   NORMALIZED FREE ENERGY PREDICTED BY IDOCK:   -3.84 KCAL/MOL
REMARK 922        TOTAL FREE ENERGY PREDICTED BY IDOCK:   -7.13 KCAL/MOL
REMARK 923 INTER-LIGAND FREE ENERGY PREDICTED BY IDOCK:   -6.20 KCAL/MOL
REMARK 924 INTRA-LIGAND FREE ENERGY PREDICTED BY IDOCK:   -0.93 KCAL/MOL
REMARK 927      BINDING AFFINITY PREDICTED BY RF-SCORE:    0.00 PKD
ROOT
HETATM    1  C   UNL     1      -5.638  13.909  70.854  1.00  0.00    -0.192 C  
HETATM    2  O   UNL     1      -5.552  14.754  69.711  1.00  0.00    -0.094 OA 
ENDROOT
BRANCH   2   3
HETATM    3  C   UNL     1      -6.749  15.248  69.272  1.00  0.00    -0.148 A  
HETATM    4  C   UNL     1      -7.808  14.341  69.245  1.00  0.00     0.085 A  
HETATM    5  C   UNL     1      -9.062  14.733  68.772  1.00  0.00    -0.191 A  
HETATM    6  C   UNL     1      -9.279  16.051  68.350  1.00  0.00    -0.196 A  
HETATM    7  C   UNL     1      -6.968  16.569  68.888  1.00  0.00    -0.191 A  
HETATM    8  C   UNL     1      -8.224  16.968  68.427  1.00  0.00    -0.250 A  
BRANCH   6   9
HETATM    9  C   UNL     1     -10.578  16.469  67.705  1.00  0.00    -0.321 C  
BRANCH   9  10
HETATM   10  C   UNL     1     -10.905  15.818  66.338  1.00  0.00    -0.226 C  
HETATM   11  C   UNL     1      -9.618  15.518  65.564  1.00  0.00    -0.257 C  
BRANCH  10  12
HETATM   12  N   UNL     1     -11.663  14.555  66.465  1.00  0.00    -0.380 NA 
HETATM   13  H   UNL     1     -12.452  14.665  67.102  1.00  0.00     0.000 HD 
BRANCH  12  14
HETATM   14  C   UNL     1     -12.104  14.020  65.170  1.00  0.00    -0.410 C  
BRANCH  14  15
HETATM   15  C   UNL     1     -12.265  12.478  65.154  1.00  0.00    -0.448 C  
HETATM   16  H   UNL     1     -13.387  11.172  64.207  1.00  0.00     0.000 HD 
HETATM   17  O   UNL     1     -13.288  12.116  64.216  1.00  0.00    -0.761 OA 
BRANCH  15  18
HETATM   18  C   UNL     1     -10.954  11.797  64.781  1.00  0.00    -0.360 A  
HETATM   19  C   UNL     1     -10.329  10.885  65.658  1.00  0.00    -0.305 A  
HETATM   20  C   UNL     1      -9.141  10.233  65.310  1.00  0.00    -0.191 A  
HETATM   21  H   UNL     1      -7.017  10.115  62.807  1.00  0.00     0.000 HD 
HETATM   22  C   UNL     1      -8.579  10.498  64.056  1.00  0.00    -0.147 A  
HETATM   23  C   UNL     1     -10.362  12.042  63.535  1.00  0.00    -0.492 A  
HETATM   24  C   UNL     1      -9.185  11.387  63.172  1.00  0.00    -0.242 A  
HETATM   25  O   UNL     1      -7.399   9.936  63.658  1.00  0.00    -0.119 OA 
BRANCH  20  26
HETATM   26  N   UNL     1      -8.518   9.300  66.160  1.00  0.00    -0.125 N  
HETATM   27  H   UNL     1      -7.909   8.616  65.713  1.00  0.00     0.000 HD 
HETATM   28  O   UNL     1      -8.079   8.337  68.167  1.00  0.00    -0.120 OA 
HETATM   29  C   UNL     1      -8.640   9.210  67.515  1.00  0.00    -0.116 C  
ENDBRANCH  20  26
ENDBRANCH  15  18
ENDBRANCH  14  15
ENDBRANCH  12  14
ENDBRANCH  10  12
ENDBRANCH   9  10
ENDBRANCH   6   9
ENDBRANCH   2   3
TORSDOF 8
ENDMDL
MODEL      283
REMARK 921   NORMALIZED FREE ENERGY PREDICTED BY IDOCK:   -3.84 KCAL/MOL
REMARK 922        TOTAL FREE ENERGY PREDICTED BY IDOCK:   -7.12 KCAL/MOL
REMARK 923 INTER-LIGAND FREE ENERGY PREDICTED BY IDOCK:   -5.43 KCAL/MOL
REMARK 924 INTRA-LIGAND FREE ENERGY PREDICTED BY IDOCK:   -1.69 KCAL/MOL
REMARK 927      BINDING AFFINITY PREDICTED BY RF-SCORE:    0.00 PKD
ROOT
HETATM    1  C   UNL     1     -11.055  12.376  66.554  1.00  0.00    -0.301 C  
HETATM    2  O   UNL     1     -10.796  11.660  67.759  1.00  0.00    -0.197 OA 
ENDROOT
BRANCH   2   3
HETATM    3  C   UNL     1     -10.459  10.347  67.583  1.00  0.00    -0.233 A  
HETATM    4  C   UNL     1      -9.921  10.019  66.340  1.00  0.00    -0.300 A  
HETATM    5  C   UNL     1      -9.584   8.696  66.043  1.00  0.00    -0.265 A  
HETATM    6  C   UNL     1      -9.752   7.690  67.004  1.00  0.00    -0.255 A  
HETATM    7  C   UNL     1     -10.595   9.358  68.555  1.00  0.00    -0.234 A  
HETATM    8  C   UNL     1     -10.247   8.038  68.266  1.00  0.00    -0.243 A  
BRANCH   6   9
HETATM    9  C   UNL     1      -9.530   6.235  66.669  1.00  0.00    -0.178 C  
BRANCH   9  10
HETATM   10  C   UNL     1      -8.102   5.687  66.908  1.00  0.00    -0.102 C  
HETATM   11  C   UNL     1      -7.212   6.763  67.540  1.00  0.00    -0.090 C  
BRANCH  10  12
HETATM   12  N   UNL     1      -8.076   4.501  67.792  1.00  0.00    -0.098 NA 
HETATM   13  H   UNL     1      -7.392   4.619  68.539  1.00  0.00     0.000 HD 
BRANCH  12  14
HETATM   14  C   UNL     1      -9.397   4.165  68.336  1.00  0.00    -0.155 C  
BRANCH  14  15
HETATM   15  C   UNL     1      -9.393   3.903  69.865  1.00  0.00    -0.174 C  
HETATM   16  H   UNL     1      -8.205   3.019  71.156  1.00  0.00     0.000 HD 
HETATM   17  O   UNL     1      -8.207   3.180  70.220  1.00  0.00    -0.045 OA 
BRANCH  15  18
HETATM   18  C   UNL     1      -9.456   5.212  70.642  1.00  0.00    -0.229 A  
HETATM   19  C   UNL     1     -10.684   5.726  71.109  1.00  0.00    -0.327 A  
HETATM   20  C   UNL     1     -10.747   6.911  71.850  1.00  0.00    -0.218 A  
HETATM   21  H   UNL     1      -8.721   9.228  73.000  1.00  0.00     0.000 HD 
HETATM   22  C   UNL     1      -9.552   7.584  72.130  1.00  0.00    -0.152 A  
HETATM   23  C   UNL     1      -8.280   5.913  70.938  1.00  0.00    -0.125 A  
HETATM   24  C   UNL     1      -8.329   7.090  71.687  1.00  0.00    -0.108 A  
HETATM   25  O   UNL     1      -9.531   8.771  72.809  1.00  0.00    -0.236 OA 
BRANCH  20  26
HETATM   26  N   UNL     1     -11.959   7.425  72.347  1.00  0.00    -0.476 N  
HETATM   27  H   UNL     1     -12.021   7.543  73.358  1.00  0.00     0.000 HD 
HETATM   28  O   UNL     1     -14.086   8.191  72.157  1.00  0.00    -0.349 OA 
HETATM   29  C   UNL     1     -13.059   7.782  71.627  1.00  0.00    -0.345 C  
ENDBRANCH  20  26
ENDBRANCH  15  18
ENDBRANCH  14  15
ENDBRANCH  12  14
ENDBRANCH  10  12
ENDBRANCH   9  10
ENDBRANCH   6   9
ENDBRANCH   2   3
TORSDOF 8
ENDMDL
MODEL      284
REMARK 921   NORMALIZED FREE ENERGY PREDICTED BY IDOCK:   -3.82 KCAL/MOL
REMARK 922        TOTAL FREE ENERGY PREDICTED BY IDOCK:   -7.09 KCAL/MOL
REMARK 923 INTER-LIGAND FREE ENERGY PREDICTED BY IDOCK:   -5.16 KCAL/MOL
REMARK 924 INTRA-LIGAND FREE ENERGY PREDICTED BY IDOCK:   -1.94 KCAL/MOL
REMARK 927      BINDING AFFINITY PREDICTED BY RF-SCORE:    0.00 PKD
ROOT
HETATM    1  C   UNL     1     -12.445  12.838  65.340  1.00  0.00    -0.416 C  
HETATM    2  O   UNL     1     -11.180  13.207  65.883  1.00  0.00    -0.284 OA 
ENDROOT
BRANCH   2   3
HETATM    3  C   UNL     1     -10.216  12.242  65.792  1.00  0.00    -0.255 A  
HETATM    4  C   UNL     1     -10.442  11.243  64.846  1.00  0.00    -0.375 A  
HETATM    5  C   UNL     1      -9.538  10.187  64.704  1.00  0.00    -0.379 A  
HETATM    6  C   UNL     1      -8.379  10.138  65.488  1.00  0.00    -0.160 A  
HETATM    7  C   UNL     1      -9.047  12.218  66.549  1.00  0.00    -0.188 A  
HETATM    8  C   UNL     1      -8.135  11.171  66.401  1.00  0.00    -0.159 A  
BRANCH   6   9
HETATM    9  C   UNL     1      -7.457   8.942  65.458  1.00  0.00    -0.086 C  
BRANCH   9  10
HETATM   10  C   UNL     1      -8.021   7.658  64.804  1.00  0.00    -0.137 C  
HETATM   11  C   UNL     1      -7.313   7.376  63.474  1.00  0.00    -0.087 C  
BRANCH  10  12
HETATM   12  N   UNL     1      -7.876   6.460  65.658  1.00  0.00    -0.094 NA 
HETATM   13  H   UNL     1      -7.514   6.710  66.578  1.00  0.00     0.000 HD 
BRANCH  12  14
HETATM   14  C   UNL     1      -9.118   5.686  65.774  1.00  0.00    -0.128 C  
BRANCH  14  15
HETATM   15  C   UNL     1      -9.609   5.511  67.235  1.00  0.00    -0.125 C  
HETATM   16  H   UNL     1      -8.939   4.651  68.870  1.00  0.00     0.000 HD 
HETATM   17  O   UNL     1      -8.638   4.759  67.976  1.00  0.00    -0.102 OA 
BRANCH  15  18
HETATM   18  C   UNL     1      -9.834   6.864  67.899  1.00  0.00    -0.155 A  
HETATM   19  C   UNL     1      -9.199   7.195  69.116  1.00  0.00    -0.139 A  
HETATM   20  C   UNL     1      -9.376   8.446  69.716  1.00  0.00    -0.158 A  
HETATM   21  H   UNL     1     -11.016  11.242  69.185  1.00  0.00     0.000 HD 
HETATM   22  C   UNL     1     -10.199   9.381  69.076  1.00  0.00    -0.205 A  
HETATM   23  C   UNL     1     -10.653   7.822  67.289  1.00  0.00    -0.376 A  
HETATM   24  C   UNL     1     -10.826   9.078  67.872  1.00  0.00    -0.118 A  
HETATM   25  O   UNL     1     -10.458  10.608  69.619  1.00  0.00    -0.228 OA 
BRANCH  20  26
HETATM   26  N   UNL     1      -8.730   8.804  70.914  1.00  0.00    -0.175 N  
HETATM   27  H   UNL     1      -7.973   9.483  70.837  1.00  0.00     0.000 HD 
HETATM   28  O   UNL     1      -8.361   8.693  73.150  1.00  0.00    -0.405 OA 
HETATM   29  C   UNL     1      -9.005   8.343  72.167  1.00  0.00    -0.223 C  
ENDBRANCH  20  26
ENDBRANCH  15  18
ENDBRANCH  14  15
ENDBRANCH  12  14
ENDBRANCH  10  12
ENDBRANCH   9  10
ENDBRANCH   6   9
ENDBRANCH   2   3
TORSDOF 8
ENDMDL
MODEL      285
REMARK 921   NORMALIZED FREE ENERGY PREDICTED BY IDOCK:   -3.80 KCAL/MOL
REMARK 922        TOTAL FREE ENERGY PREDICTED BY IDOCK:   -7.07 KCAL/MOL
REMARK 923 INTER-LIGAND FREE ENERGY PREDICTED BY IDOCK:   -6.42 KCAL/MOL
REMARK 924 INTRA-LIGAND FREE ENERGY PREDICTED BY IDOCK:   -0.65 KCAL/MOL
REMARK 927      BINDING AFFINITY PREDICTED BY RF-SCORE:    0.00 PKD
ROOT
HETATM    1  C   UNL     1     -10.676   1.556  62.778  1.00  0.00    -0.136 C  
HETATM    2  O   UNL     1      -9.295   1.728  63.086  1.00  0.00    -0.090 OA 
ENDROOT
BRANCH   2   3
HETATM    3  C   UNL     1      -8.950   2.992  63.477  1.00  0.00    -0.092 A  
HETATM    4  C   UNL     1      -9.474   3.415  64.698  1.00  0.00    -0.154 A  
HETATM    5  C   UNL     1      -9.217   4.705  65.168  1.00  0.00    -0.156 A  
HETATM    6  C   UNL     1      -8.405   5.577  64.433  1.00  0.00    -0.115 A  
HETATM    7  C   UNL     1      -8.112   3.841  62.760  1.00  0.00    -0.075 A  
HETATM    8  C   UNL     1      -7.843   5.127  63.232  1.00  0.00    -0.083 A  
BRANCH   6   9
HETATM    9  C   UNL     1      -8.223   7.019  64.842  1.00  0.00    -0.076 C  
BRANCH   9  10
HETATM   10  C   UNL     1      -8.744   7.403  66.248  1.00  0.00    -0.149 C  
HETATM   11  C   UNL     1      -7.750   8.331  66.955  1.00  0.00    -0.095 C  
BRANCH  10  12
HETATM   12  N   UNL     1     -10.055   8.086  66.215  1.00  0.00    -0.481 NA 
HETATM   13  H   UNL     1     -10.761   7.544  66.713  1.00  0.00     0.000 HD 
BRANCH  12  14
HETATM   14  C   UNL     1      -9.996   9.463  66.721  1.00  0.00    -0.239 C  
BRANCH  14  15
HETATM   15  C   UNL     1     -11.010   9.753  67.859  1.00  0.00    -0.188 C  
HETATM   16  H   UNL     1     -11.103   9.443  69.797  1.00  0.00     0.000 HD 
HETATM   17  O   UNL     1     -10.482   9.266  69.100  1.00  0.00    -0.210 OA 
BRANCH  15  18
HETATM   18  C   UNL     1     -11.296  11.246  67.966  1.00  0.00    -0.372 A  
HETATM   19  C   UNL     1     -11.658  12.002  66.831  1.00  0.00    -0.389 A  
HETATM   20  C   UNL     1     -11.953  13.367  66.925  1.00  0.00    -0.385 A  
HETATM   21  H   UNL     1     -12.076  15.725  69.209  1.00  0.00     0.000 HD 
HETATM   22  C   UNL     1     -11.889  13.976  68.184  1.00  0.00    -0.367 A  
HETATM   23  C   UNL     1     -11.239  11.887  69.209  1.00  0.00    -0.304 A  
HETATM   24  C   UNL     1     -11.543  13.245  69.318  1.00  0.00    -0.370 A  
HETATM   25  O   UNL     1     -12.119  15.312  68.354  1.00  0.00    -0.236 OA 
BRANCH  20  26
HETATM   26  N   UNL     1     -12.341  14.132  65.810  1.00  0.00    -0.458 N  
HETATM   27  H   UNL     1     -12.800  15.021  66.007  1.00  0.00     0.000 HD 
HETATM   28  O   UNL     1     -12.578  14.537  63.590  1.00  0.00    -0.798 OA 
HETATM   29  C   UNL     1     -12.173  13.816  64.495  1.00  0.00    -0.403 C  
ENDBRANCH  20  26
ENDBRANCH  15  18
ENDBRANCH  14  15
ENDBRANCH  12  14
ENDBRANCH  10  12
ENDBRANCH   9  10
ENDBRANCH   6   9
ENDBRANCH   2   3
TORSDOF 8
ENDMDL
MODEL      286
REMARK 921   NORMALIZED FREE ENERGY PREDICTED BY IDOCK:   -3.79 KCAL/MOL
REMARK 922        TOTAL FREE ENERGY PREDICTED BY IDOCK:   -7.06 KCAL/MOL
REMARK 923 INTER-LIGAND FREE ENERGY PREDICTED BY IDOCK:   -6.28 KCAL/MOL
REMARK 924 INTRA-LIGAND FREE ENERGY PREDICTED BY IDOCK:   -0.78 KCAL/MOL
REMARK 927      BINDING AFFINITY PREDICTED BY RF-SCORE:    0.00 PKD
ROOT
HETATM    1  C   UNL     1     -10.247  20.191  68.309  1.00  0.00    -0.324 C  
HETATM    2  O   UNL     1      -9.470  19.935  67.143  1.00  0.00    -0.331 OA 
ENDROOT
BRANCH   2   3
HETATM    3  C   UNL     1      -8.651  18.844  67.229  1.00  0.00    -0.277 A  
HETATM    4  C   UNL     1      -7.840  18.780  68.362  1.00  0.00    -0.351 A  
HETATM    5  C   UNL     1      -6.936  17.728  68.524  1.00  0.00    -0.238 A  
HETATM    6  C   UNL     1      -6.856  16.708  67.567  1.00  0.00    -0.177 A  
HETATM    7  C   UNL     1      -8.603  17.814  66.292  1.00  0.00    -0.217 A  
HETATM    8  C   UNL     1      -7.709  16.755  66.458  1.00  0.00    -0.334 A  
BRANCH   6   9
HETATM    9  C   UNL     1      -5.796  15.636  67.642  1.00  0.00    -0.146 C  
BRANCH   9  10
HETATM   10  C   UNL     1      -6.242  14.271  68.223  1.00  0.00    -0.117 C  
HETATM   11  C   UNL     1      -7.369  14.463  69.243  1.00  0.00    -0.088 C  
BRANCH  10  12
HETATM   12  N   UNL     1      -6.722  13.330  67.188  1.00  0.00    -0.452 NA 
HETATM   13  H   UNL     1      -6.107  12.520  67.119  1.00  0.00     0.000 HD 
BRANCH  12  14
HETATM   14  C   UNL     1      -8.116  12.917  67.394  1.00  0.00    -0.181 C  
BRANCH  14  15
HETATM   15  C   UNL     1      -8.279  11.404  67.695  1.00  0.00    -0.128 C  
HETATM   16  H   UNL     1      -7.217  10.003  68.572  1.00  0.00     0.000 HD 
HETATM   17  O   UNL     1      -7.118  10.929  68.389  1.00  0.00    -0.068 OA 
BRANCH  15  18
HETATM   18  C   UNL     1      -9.526  11.147  68.532  1.00  0.00    -0.193 A  
HETATM   19  C   UNL     1      -9.636   9.997  69.343  1.00  0.00    -0.237 A  
HETATM   20  C   UNL     1     -10.764   9.769  70.139  1.00  0.00    -0.289 A  
HETATM   21  H   UNL     1     -13.643  11.193  70.828  1.00  0.00     0.000 HD 
HETATM   22  C   UNL     1     -11.792  10.719  70.124  1.00  0.00    -0.343 A  
HETATM   23  C   UNL     1     -10.575  12.075  68.539  1.00  0.00    -0.252 A  
HETATM   24  C   UNL     1     -11.699  11.864  69.339  1.00  0.00    -0.401 A  
HETATM   25  O   UNL     1     -12.945  10.549  70.838  1.00  0.00    -0.374 OA 
BRANCH  20  26
HETATM   26  N   UNL     1     -10.881   8.641  70.973  1.00  0.00    -0.235 N  
HETATM   27  H   UNL     1     -10.800   8.809  71.976  1.00  0.00     0.000 HD 
HETATM   28  O   UNL     1     -11.144   6.428  71.395  1.00  0.00    -0.255 OA 
HETATM   29  C   UNL     1     -11.089   7.350  70.590  1.00  0.00    -0.266 C  
ENDBRANCH  20  26
ENDBRANCH  15  18
ENDBRANCH  14  15
ENDBRANCH  12  14
ENDBRANCH  10  12
ENDBRANCH   9  10
ENDBRANCH   6   9
ENDBRANCH   2   3
TORSDOF 8
ENDMDL
MODEL      287
REMARK 921   NORMALIZED FREE ENERGY PREDICTED BY IDOCK:   -3.79 KCAL/MOL
REMARK 922        TOTAL FREE ENERGY PREDICTED BY IDOCK:   -7.05 KCAL/MOL
REMARK 923 INTER-LIGAND FREE ENERGY PREDICTED BY IDOCK:   -6.01 KCAL/MOL
REMARK 924 INTRA-LIGAND FREE ENERGY PREDICTED BY IDOCK:   -1.04 KCAL/MOL
REMARK 927      BINDING AFFINITY PREDICTED BY RF-SCORE:    0.00 PKD
ROOT
HETATM    1  C   UNL     1     -12.168  14.770  64.056  1.00  0.00    -0.155 C  
HETATM    2  O   UNL     1     -12.804  14.123  65.154  1.00  0.00    -0.686 OA 
ENDROOT
BRANCH   2   3
HETATM    3  C   UNL     1     -12.070  13.125  65.733  1.00  0.00    -0.447 A  
HETATM    4  C   UNL     1     -11.298  12.355  64.864  1.00  0.00    -0.361 A  
HETATM    5  C   UNL     1     -10.545  11.283  65.349  1.00  0.00    -0.312 A  
HETATM    6  C   UNL     1     -10.533  10.989  66.719  1.00  0.00    -0.300 A  
HETATM    7  C   UNL     1     -12.034  12.861  67.100  1.00  0.00    -0.374 A  
HETATM    8  C   UNL     1     -11.273  11.798  67.590  1.00  0.00    -0.345 A  
BRANCH   6   9
HETATM    9  C   UNL     1      -9.845   9.757  67.255  1.00  0.00    -0.228 C  
BRANCH   9  10
HETATM   10  C   UNL     1      -8.980   8.961  66.247  1.00  0.00    -0.170 C  
HETATM   11  C   UNL     1      -7.491   9.228  66.488  1.00  0.00    -0.093 C  
BRANCH  10  12
HETATM   12  N   UNL     1      -9.197   7.500  66.323  1.00  0.00    -0.262 NA 
HETATM   13  H   UNL     1      -8.331   7.016  66.559  1.00  0.00     0.000 HD 
BRANCH  12  14
HETATM   14  C   UNL     1     -10.275   7.130  67.248  1.00  0.00    -0.245 C  
BRANCH  14  15
HETATM   15  C   UNL     1      -9.955   5.881  68.111  1.00  0.00    -0.145 C  
HETATM   16  H   UNL     1      -8.508   4.556  68.217  1.00  0.00     0.000 HD 
HETATM   17  O   UNL     1      -8.704   5.321  67.689  1.00  0.00    -0.108 OA 
BRANCH  15  18
HETATM   18  C   UNL     1      -9.889   6.243  69.589  1.00  0.00    -0.192 A  
HETATM   19  C   UNL     1      -8.889   7.106  70.086  1.00  0.00    -0.145 A  
HETATM   20  C   UNL     1      -8.840   7.468  71.437  1.00  0.00    -0.132 A  
HETATM   21  H   UNL     1     -10.481   6.885  74.222  1.00  0.00     0.000 HD 
HETATM   22  C   UNL     1      -9.820   6.959  72.298  1.00  0.00    -0.150 A  
HETATM   23  C   UNL     1     -10.852   5.751  70.479  1.00  0.00    -0.348 A  
HETATM   24  C   UNL     1     -10.821   6.115  71.826  1.00  0.00    -0.303 A  
HETATM   25  O   UNL     1      -9.817   7.230  73.638  1.00  0.00    -0.252 OA 
BRANCH  20  26
HETATM   26  N   UNL     1      -7.866   8.347  71.945  1.00  0.00    -0.120 N  
HETATM   27  H   UNL     1      -8.187   9.033  72.628  1.00  0.00     0.000 HD 
HETATM   28  O   UNL     1      -5.775   9.214  72.101  1.00  0.00    -0.074 OA 
HETATM   29  C   UNL     1      -6.542   8.384  71.626  1.00  0.00    -0.067 C  
ENDBRANCH  20  26
ENDBRANCH  15  18
ENDBRANCH  14  15
ENDBRANCH  12  14
ENDBRANCH  10  12
ENDBRANCH   9  10
ENDBRANCH   6   9
ENDBRANCH   2   3
TORSDOF 8
ENDMDL
MODEL      288
REMARK 921   NORMALIZED FREE ENERGY PREDICTED BY IDOCK:   -3.79 KCAL/MOL
REMARK 922        TOTAL FREE ENERGY PREDICTED BY IDOCK:   -7.05 KCAL/MOL
REMARK 923 INTER-LIGAND FREE ENERGY PREDICTED BY IDOCK:   -5.56 KCAL/MOL
REMARK 924 INTRA-LIGAND FREE ENERGY PREDICTED BY IDOCK:   -1.49 KCAL/MOL
REMARK 927      BINDING AFFINITY PREDICTED BY RF-SCORE:    0.00 PKD
ROOT
HETATM    1  C   UNL     1     -12.325   9.157  72.066  1.00  0.00    -0.377 C  
HETATM    2  O   UNL     1     -11.369   8.223  72.561  1.00  0.00    -0.375 OA 
ENDROOT
BRANCH   2   3
HETATM    3  C   UNL     1     -10.920   7.321  71.637  1.00  0.00    -0.226 A  
HETATM    4  C   UNL     1     -11.694   7.193  70.485  1.00  0.00    -0.314 A  
HETATM    5  C   UNL     1     -11.346   6.267  69.499  1.00  0.00    -0.475 A  
HETATM    6  C   UNL     1     -10.197   5.479  69.642  1.00  0.00    -0.336 A  
HETATM    7  C   UNL     1      -9.757   6.566  71.769  1.00  0.00    -0.168 A  
HETATM    8  C   UNL     1      -9.398   5.649  70.779  1.00  0.00    -0.194 A  
BRANCH   6   9
HETATM    9  C   UNL     1      -9.870   4.374  68.666  1.00  0.00    -0.141 C  
BRANCH   9  10
HETATM   10  C   UNL     1      -9.421   4.820  67.253  1.00  0.00    -0.146 C  
HETATM   11  C   UNL     1     -10.631   5.240  66.411  1.00  0.00    -0.338 C  
BRANCH  10  12
HETATM   12  N   UNL     1      -8.471   5.954  67.277  1.00  0.00    -0.105 NA 
HETATM   13  H   UNL     1      -7.686   5.758  67.898  1.00  0.00     0.000 HD 
BRANCH  12  14
HETATM   14  C   UNL     1      -8.000   6.334  65.939  1.00  0.00    -0.116 C  
BRANCH  14  15
HETATM   15  C   UNL     1      -7.912   7.867  65.722  1.00  0.00    -0.109 C  
HETATM   16  H   UNL     1      -8.323   9.126  64.271  1.00  0.00     0.000 HD 
HETATM   17  O   UNL     1      -8.377   8.187  64.404  1.00  0.00    -0.134 OA 
BRANCH  15  18
HETATM   18  C   UNL     1      -8.741   8.612  66.761  1.00  0.00    -0.135 A  
HETATM   19  C   UNL     1      -8.243   8.847  68.060  1.00  0.00    -0.110 A  
HETATM   20  C   UNL     1      -8.985   9.557  69.010  1.00  0.00    -0.144 A  
HETATM   21  H   UNL     1     -11.904  11.041  69.275  1.00  0.00     0.000 HD 
HETATM   22  C   UNL     1     -10.244  10.045  68.642  1.00  0.00    -0.180 A  
HETATM   23  C   UNL     1     -10.006   9.112  66.427  1.00  0.00    -0.358 A  
HETATM   24  C   UNL     1     -10.750   9.833  67.363  1.00  0.00    -0.314 A  
HETATM   25  O   UNL     1     -11.049  10.710  69.524  1.00  0.00    -0.235 OA 
BRANCH  20  26
HETATM   26  N   UNL     1      -8.494   9.824  70.302  1.00  0.00    -0.269 N  
HETATM   27  H   UNL     1      -8.938  10.591  70.806  1.00  0.00     0.000 HD 
HETATM   28  O   UNL     1      -7.111   9.501  72.072  1.00  0.00    -0.146 OA 
HETATM   29  C   UNL     1      -7.492   9.171  70.954  1.00  0.00    -0.118 C  
ENDBRANCH  20  26
ENDBRANCH  15  18
ENDBRANCH  14  15
ENDBRANCH  12  14
ENDBRANCH  10  12
ENDBRANCH   9  10
ENDBRANCH   6   9
ENDBRANCH   2   3
TORSDOF 8
ENDMDL
MODEL      289
REMARK 921   NORMALIZED FREE ENERGY PREDICTED BY IDOCK:   -3.78 KCAL/MOL
REMARK 922        TOTAL FREE ENERGY PREDICTED BY IDOCK:   -7.05 KCAL/MOL
REMARK 923 INTER-LIGAND FREE ENERGY PREDICTED BY IDOCK:   -5.50 KCAL/MOL
REMARK 924 INTRA-LIGAND FREE ENERGY PREDICTED BY IDOCK:   -1.55 KCAL/MOL
REMARK 927      BINDING AFFINITY PREDICTED BY RF-SCORE:    0.00 PKD
ROOT
HETATM    1  C   UNL     1     -13.410  13.377  71.772  1.00  0.00    -0.394 C  
HETATM    2  O   UNL     1     -13.126  12.558  70.642  1.00  0.00     0.117 OA 
ENDROOT
BRANCH   2   3
HETATM    3  C   UNL     1     -12.545  11.356  70.938  1.00  0.00    -0.356 A  
HETATM    4  C   UNL     1     -13.190  10.591  71.908  1.00  0.00    -0.526 A  
HETATM    5  C   UNL     1     -12.653   9.366  72.315  1.00  0.00    -0.378 A  
HETATM    6  C   UNL     1     -11.478   8.880  71.728  1.00  0.00    -0.423 A  
HETATM    7  C   UNL     1     -11.396  10.860  70.326  1.00  0.00    -0.342 A  
HETATM    8  C   UNL     1     -10.864   9.631  70.720  1.00  0.00    -0.400 A  
BRANCH   6   9
HETATM    9  C   UNL     1     -10.799   7.633  72.242  1.00  0.00    -0.318 C  
BRANCH   9  10
HETATM   10  C   UNL     1     -11.345   6.286  71.707  1.00  0.00    -0.294 C  
HETATM   11  C   UNL     1     -11.604   6.371  70.199  1.00  0.00    -0.449 C  
BRANCH  10  12
HETATM   12  N   UNL     1     -10.425   5.152  71.945  1.00  0.00    -0.215 NA 
HETATM   13  H   UNL     1     -10.560   4.421  71.247  1.00  0.00     0.000 HD 
BRANCH  12  14
HETATM   14  C   UNL     1      -9.016   5.563  72.011  1.00  0.00    -0.134 C  
BRANCH  14  15
HETATM   15  C   UNL     1      -8.154   5.019  70.842  1.00  0.00    -0.096 C  
HETATM   16  H   UNL     1      -8.152   3.425  69.694  1.00  0.00     0.000 HD 
HETATM   17  O   UNL     1      -8.680   3.758  70.409  1.00  0.00    -0.073 OA 
BRANCH  15  18
HETATM   18  C   UNL     1      -8.136   6.001  69.676  1.00  0.00    -0.107 A  
HETATM   19  C   UNL     1      -8.360   5.567  68.352  1.00  0.00    -0.098 A  
HETATM   20  C   UNL     1      -8.376   6.466  67.281  1.00  0.00    -0.112 A  
HETATM   21  H   UNL     1      -7.989   9.683  66.736  1.00  0.00     0.000 HD 
HETATM   22  C   UNL     1      -8.171   7.825  67.549  1.00  0.00    -0.124 A  
HETATM   23  C   UNL     1      -7.932   7.367  69.908  1.00  0.00    -0.121 A  
HETATM   24  C   UNL     1      -7.958   8.275  68.849  1.00  0.00    -0.113 A  
HETATM   25  O   UNL     1      -8.128   8.761  66.554  1.00  0.00    -0.101 OA 
BRANCH  20  26
HETATM   26  N   UNL     1      -8.623   6.056  65.958  1.00  0.00    -0.142 N  
HETATM   27  H   UNL     1      -8.565   6.778  65.240  1.00  0.00     0.000 HD 
HETATM   28  O   UNL     1      -9.165   4.547  64.352  1.00  0.00    -0.155 OA 
HETATM   29  C   UNL     1      -8.933   4.800  65.529  1.00  0.00    -0.146 C  
ENDBRANCH  20  26
ENDBRANCH  15  18
ENDBRANCH  14  15
ENDBRANCH  12  14
ENDBRANCH  10  12
ENDBRANCH   9  10
ENDBRANCH   6   9
ENDBRANCH   2   3
TORSDOF 8
ENDMDL
MODEL      290
REMARK 921   NORMALIZED FREE ENERGY PREDICTED BY IDOCK:   -3.77 KCAL/MOL
REMARK 922        TOTAL FREE ENERGY PREDICTED BY IDOCK:   -7.03 KCAL/MOL
REMARK 923 INTER-LIGAND FREE ENERGY PREDICTED BY IDOCK:   -5.83 KCAL/MOL
REMARK 924 INTRA-LIGAND FREE ENERGY PREDICTED BY IDOCK:   -1.20 KCAL/MOL
REMARK 927      BINDING AFFINITY PREDICTED BY RF-SCORE:    0.00 PKD
ROOT
HETATM    1  C   UNL     1     -10.635  11.300  63.126  1.00  0.00    -0.161 C  
HETATM    2  O   UNL     1      -9.569  10.357  63.043  1.00  0.00    -0.313 OA 
ENDROOT
BRANCH   2   3
HETATM    3  C   UNL     1      -8.939  10.102  64.229  1.00  0.00    -0.237 A  
HETATM    4  C   UNL     1      -9.770   9.787  65.304  1.00  0.00    -0.371 A  
HETATM    5  C   UNL     1      -9.228   9.552  66.570  1.00  0.00    -0.201 A  
HETATM    6  C   UNL     1      -7.842   9.598  66.767  1.00  0.00    -0.102 A  
HETATM    7  C   UNL     1      -7.558  10.114  64.411  1.00  0.00    -0.130 A  
HETATM    8  C   UNL     1      -7.013   9.867  65.672  1.00  0.00    -0.108 A  
BRANCH   6   9
HETATM    9  C   UNL     1      -7.237   9.488  68.146  1.00  0.00    -0.080 C  
BRANCH   9  10
HETATM   10  C   UNL     1      -7.956  10.269  69.274  1.00  0.00    -0.149 C  
HETATM   11  C   UNL     1      -7.943   9.463  70.578  1.00  0.00    -0.199 C  
BRANCH  10  12
HETATM   12  N   UNL     1      -7.341  11.586  69.549  1.00  0.00    -0.347 NA 
HETATM   13  H   UNL     1      -6.644  11.515  70.290  1.00  0.00     0.000 HD 
BRANCH  12  14
HETATM   14  C   UNL     1      -6.772  12.213  68.349  1.00  0.00    -0.062 C  
BRANCH  14  15
HETATM   15  C   UNL     1      -7.022  13.741  68.267  1.00  0.00    -0.109 C  
HETATM   16  H   UNL     1      -6.057  15.308  67.577  1.00  0.00     0.000 HD 
HETATM   17  O   UNL     1      -5.904  14.372  67.627  1.00  0.00    -0.301 OA 
BRANCH  15  18
HETATM   18  C   UNL     1      -8.300  14.042  67.494  1.00  0.00    -0.200 A  
HETATM   19  C   UNL     1      -8.670  15.369  67.184  1.00  0.00    -0.243 A  
HETATM   20  C   UNL     1      -9.826  15.652  66.448  1.00  0.00    -0.274 A  
HETATM   21  H   UNL     1     -12.318  14.050  65.028  1.00  0.00     0.000 HD 
HETATM   22  C   UNL     1     -10.616  14.582  66.011  1.00  0.00    -0.307 A  
HETATM   23  C   UNL     1      -9.115  12.996  67.043  1.00  0.00    -0.230 A  
HETATM   24  C   UNL     1     -10.263  13.266  66.297  1.00  0.00    -0.296 A  
HETATM   25  O   UNL     1     -11.782  14.776  65.325  1.00  0.00    -0.351 OA 
BRANCH  20  26
HETATM   26  N   UNL     1     -10.198  16.966  66.107  1.00  0.00    -0.335 N  
HETATM   27  H   UNL     1     -10.725  17.078  65.242  1.00  0.00     0.000 HD 
HETATM   28  O   UNL     1     -10.271  19.214  66.407  1.00  0.00    -0.375 OA 
HETATM   29  C   UNL     1      -9.931  18.105  66.805  1.00  0.00    -0.351 C  
ENDBRANCH  20  26
ENDBRANCH  15  18
ENDBRANCH  14  15
ENDBRANCH  12  14
ENDBRANCH  10  12
ENDBRANCH   9  10
ENDBRANCH   6   9
ENDBRANCH   2   3
TORSDOF 8
ENDMDL
MODEL      291
REMARK 921   NORMALIZED FREE ENERGY PREDICTED BY IDOCK:   -3.77 KCAL/MOL
REMARK 922        TOTAL FREE ENERGY PREDICTED BY IDOCK:   -7.03 KCAL/MOL
REMARK 923 INTER-LIGAND FREE ENERGY PREDICTED BY IDOCK:   -5.40 KCAL/MOL
REMARK 924 INTRA-LIGAND FREE ENERGY PREDICTED BY IDOCK:   -1.63 KCAL/MOL
REMARK 927      BINDING AFFINITY PREDICTED BY RF-SCORE:    0.00 PKD
ROOT
HETATM    1  C   UNL     1     -12.223  14.155  64.870  1.00  0.00    -0.438 C  
HETATM    2  O   UNL     1     -11.651  13.473  63.757  1.00  0.00    -0.357 OA 
ENDROOT
BRANCH   2   3
HETATM    3  C   UNL     1     -10.932  12.356  64.079  1.00  0.00    -0.391 A  
HETATM    4  C   UNL     1     -10.026  11.917  63.114  1.00  0.00    -0.327 A  
HETATM    5  C   UNL     1      -9.274  10.759  63.326  1.00  0.00    -0.295 A  
HETATM    6  C   UNL     1      -9.397  10.044  64.524  1.00  0.00    -0.345 A  
HETATM    7  C   UNL     1     -11.032  11.670  65.287  1.00  0.00    -0.327 A  
HETATM    8  C   UNL     1     -10.273  10.520  65.508  1.00  0.00    -0.325 A  
BRANCH   6   9
HETATM    9  C   UNL     1      -8.705   8.718  64.727  1.00  0.00    -0.133 C  
BRANCH   9  10
HETATM   10  C   UNL     1      -7.446   8.732  65.628  1.00  0.00    -0.085 C  
HETATM   11  C   UNL     1      -6.869  10.149  65.723  1.00  0.00    -0.118 C  
BRANCH  10  12
HETATM   12  N   UNL     1      -7.712   8.258  67.003  1.00  0.00    -0.095 NA 
HETATM   13  H   UNL     1      -7.515   7.262  67.090  1.00  0.00     0.000 HD 
BRANCH  12  14
HETATM   14  C   UNL     1      -6.988   9.028  68.023  1.00  0.00    -0.077 C  
BRANCH  14  15
HETATM   15  C   UNL     1      -7.741   9.134  69.375  1.00  0.00    -0.080 C  
HETATM   16  H   UNL     1      -7.294   9.645  71.219  1.00  0.00     0.000 HD 
HETATM   17  O   UNL     1      -6.833   9.580  70.391  1.00  0.00    -0.074 OA 
BRANCH  15  18
HETATM   18  C   UNL     1      -8.916  10.098  69.269  1.00  0.00    -0.193 A  
HETATM   19  C   UNL     1      -8.738  11.418  68.804  1.00  0.00    -0.080 A  
HETATM   20  C   UNL     1      -9.817  12.300  68.674  1.00  0.00    -0.089 A  
HETATM   21  H   UNL     1     -13.062  12.340  69.184  1.00  0.00     0.000 HD 
HETATM   22  C   UNL     1     -11.096  11.840  69.012  1.00  0.00    -0.246 A  
HETATM   23  C   UNL     1     -10.209   9.673  69.601  1.00  0.00    -0.239 A  
HETATM   24  C   UNL     1     -11.294  10.539  69.464  1.00  0.00    -0.341 A  
HETATM   25  O   UNL     1     -12.194  12.652  68.955  1.00  0.00    -0.185 OA 
BRANCH  20  26
HETATM   26  N   UNL     1      -9.663  13.611  68.187  1.00  0.00    -0.224 N  
HETATM   27  H   UNL     1     -10.514  14.168  68.106  1.00  0.00     0.000 HD 
HETATM   28  O   UNL     1      -8.476  15.361  67.365  1.00  0.00    -0.160 OA 
HETATM   29  C   UNL     1      -8.503  14.219  67.810  1.00  0.00    -0.176 C  
ENDBRANCH  20  26
ENDBRANCH  15  18
ENDBRANCH  14  15
ENDBRANCH  12  14
ENDBRANCH  10  12
ENDBRANCH   9  10
ENDBRANCH   6   9
ENDBRANCH   2   3
TORSDOF 8
ENDMDL
MODEL      292
REMARK 921   NORMALIZED FREE ENERGY PREDICTED BY IDOCK:   -3.77 KCAL/MOL
REMARK 922        TOTAL FREE ENERGY PREDICTED BY IDOCK:   -7.03 KCAL/MOL
REMARK 923 INTER-LIGAND FREE ENERGY PREDICTED BY IDOCK:   -6.35 KCAL/MOL
REMARK 924 INTRA-LIGAND FREE ENERGY PREDICTED BY IDOCK:   -0.68 KCAL/MOL
REMARK 927      BINDING AFFINITY PREDICTED BY RF-SCORE:    0.00 PKD
ROOT
HETATM    1  C   UNL     1     -10.584   3.451  64.061  1.00  0.00    -0.207 C  
HETATM    2  O   UNL     1      -9.537   3.751  64.979  1.00  0.00    -0.159 OA 
ENDROOT
BRANCH   2   3
HETATM    3  C   UNL     1      -9.571   5.019  65.490  1.00  0.00    -0.089 A  
HETATM    4  C   UNL     1     -10.654   5.313  66.317  1.00  0.00    -0.308 A  
HETATM    5  C   UNL     1     -10.806   6.593  66.855  1.00  0.00    -0.415 A  
HETATM    6  C   UNL     1      -9.854   7.587  66.596  1.00  0.00    -0.274 A  
HETATM    7  C   UNL     1      -8.602   5.992  65.259  1.00  0.00    -0.103 A  
HETATM    8  C   UNL     1      -8.743   7.269  65.805  1.00  0.00    -0.129 A  
BRANCH   6   9
HETATM    9  C   UNL     1     -10.060   9.013  67.045  1.00  0.00    -0.318 C  
BRANCH   9  10
HETATM   10  C   UNL     1     -10.983   9.219  68.271  1.00  0.00     0.008 C  
HETATM   11  C   UNL     1     -10.162   9.238  69.565  1.00  0.00    -0.214 C  
BRANCH  10  12
HETATM   12  N   UNL     1     -11.759  10.476  68.209  1.00  0.00    -0.744 NA 
HETATM   13  H   UNL     1     -12.753  10.285  68.082  1.00  0.00     0.000 HD 
BRANCH  12  14
HETATM   14  C   UNL     1     -11.535  11.344  69.372  1.00  0.00    -0.310 C  
BRANCH  14  15
HETATM   15  C   UNL     1     -11.894  12.832  69.118  1.00  0.00    -0.301 C  
HETATM   16  H   UNL     1     -12.562  14.339  70.187  1.00  0.00     0.000 HD 
HETATM   17  O   UNL     1     -12.342  13.429  70.342  1.00  0.00    -0.336 OA 
BRANCH  15  18
HETATM   18  C   UNL     1     -10.692  13.596  68.576  1.00  0.00    -0.269 A  
HETATM   19  C   UNL     1     -10.471  14.947  68.920  1.00  0.00    -0.242 A  
HETATM   20  C   UNL     1      -9.354  15.647  68.451  1.00  0.00    -0.195 A  
HETATM   21  H   UNL     1      -6.730  15.140  66.541  1.00  0.00     0.000 HD 
HETATM   22  C   UNL     1      -8.442  14.973  67.632  1.00  0.00    -0.160 A  
HETATM   23  C   UNL     1      -9.761  12.953  67.751  1.00  0.00    -0.214 A  
HETATM   24  C   UNL     1      -8.636  13.638  67.289  1.00  0.00    -0.220 A  
HETATM   25  O   UNL     1      -7.349  15.597  67.098  1.00  0.00    -0.208 OA 
BRANCH  20  26
HETATM   26  N   UNL     1      -9.103  16.986  68.805  1.00  0.00    -0.267 N  
HETATM   27  H   UNL     1      -8.443  17.138  69.567  1.00  0.00     0.000 HD 
HETATM   28  O   UNL     1      -9.386  19.232  68.643  1.00  0.00    -0.361 OA 
HETATM   29  C   UNL     1      -9.644  18.103  68.241  1.00  0.00    -0.317 C  
ENDBRANCH  20  26
ENDBRANCH  15  18
ENDBRANCH  14  15
ENDBRANCH  12  14
ENDBRANCH  10  12
ENDBRANCH   9  10
ENDBRANCH   6   9
ENDBRANCH   2   3
TORSDOF 8
ENDMDL
MODEL      293
REMARK 921   NORMALIZED FREE ENERGY PREDICTED BY IDOCK:   -3.77 KCAL/MOL
REMARK 922        TOTAL FREE ENERGY PREDICTED BY IDOCK:   -7.03 KCAL/MOL
REMARK 923 INTER-LIGAND FREE ENERGY PREDICTED BY IDOCK:   -5.88 KCAL/MOL
REMARK 924 INTRA-LIGAND FREE ENERGY PREDICTED BY IDOCK:   -1.15 KCAL/MOL
REMARK 927      BINDING AFFINITY PREDICTED BY RF-SCORE:    0.00 PKD
ROOT
HETATM    1  C   UNL     1     -11.728  15.745  69.333  1.00  0.00    -0.370 C  
HETATM    2  O   UNL     1     -11.216  15.779  68.005  1.00  0.00    -0.342 OA 
ENDROOT
BRANCH   2   3
HETATM    3  C   UNL     1     -10.027  15.126  67.834  1.00  0.00    -0.221 A  
HETATM    4  C   UNL     1      -9.973  13.822  68.322  1.00  0.00    -0.243 A  
HETATM    5  C   UNL     1      -8.790  13.083  68.237  1.00  0.00    -0.172 A  
HETATM    6  C   UNL     1      -7.654  13.635  67.630  1.00  0.00    -0.186 A  
HETATM    7  C   UNL     1      -8.912  15.667  67.197  1.00  0.00    -0.232 A  
HETATM    8  C   UNL     1      -7.732  14.927  67.098  1.00  0.00    -0.177 A  
BRANCH   6   9
HETATM    9  C   UNL     1      -6.325  12.918  67.647  1.00  0.00    -0.158 C  
BRANCH   9  10
HETATM   10  C   UNL     1      -6.259  11.578  66.874  1.00  0.00    -0.143 C  
HETATM   11  C   UNL     1      -6.390  10.394  67.838  1.00  0.00    -0.060 C  
BRANCH  10  12
HETATM   12  N   UNL     1      -7.318  11.447  65.850  1.00  0.00    -0.351 NA 
HETATM   13  H   UNL     1      -6.938  11.585  64.913  1.00  0.00     0.000 HD 
BRANCH  12  14
HETATM   14  C   UNL     1      -8.045  10.174  65.940  1.00  0.00    -0.136 C  
BRANCH  14  15
HETATM   15  C   UNL     1      -9.571  10.343  66.160  1.00  0.00    -0.196 C  
HETATM   16  H   UNL     1     -11.201  10.096  65.091  1.00  0.00     0.000 HD 
HETATM   17  O   UNL     1     -10.267   9.992  64.956  1.00  0.00    -0.280 OA 
BRANCH  15  18
HETATM   18  C   UNL     1     -10.055   9.471  67.312  1.00  0.00    -0.272 A  
HETATM   19  C   UNL     1     -10.513  10.043  68.518  1.00  0.00    -0.229 A  
HETATM   20  C   UNL     1     -10.987   9.250  69.569  1.00  0.00    -0.151 A  
HETATM   21  H   UNL     1     -11.428   6.072  70.277  1.00  0.00     0.000 HD 
HETATM   22  C   UNL     1     -11.007   7.861  69.398  1.00  0.00    -0.020 A  
HETATM   23  C   UNL     1     -10.086   8.077  67.176  1.00  0.00    -0.334 A  
HETATM   24  C   UNL     1     -10.569   7.277  68.213  1.00  0.00    -0.217 A  
HETATM   25  O   UNL     1     -11.414   7.015  70.392  1.00  0.00    -0.299 OA 
BRANCH  20  26
HETATM   26  N   UNL     1     -11.473   9.803  70.768  1.00  0.00    -0.314 N  
HETATM   27  H   UNL     1     -10.981   9.539  71.622  1.00  0.00     0.000 HD 
HETATM   28  O   UNL     1     -12.898  11.056  72.013  1.00  0.00    -0.380 OA 
HETATM   29  C   UNL     1     -12.529  10.652  70.916  1.00  0.00    -0.397 C  
ENDBRANCH  20  26
ENDBRANCH  15  18
ENDBRANCH  14  15
ENDBRANCH  12  14
ENDBRANCH  10  12
ENDBRANCH   9  10
ENDBRANCH   6   9
ENDBRANCH   2   3
TORSDOF 8
ENDMDL
MODEL      294
REMARK 921   NORMALIZED FREE ENERGY PREDICTED BY IDOCK:   -3.77 KCAL/MOL
REMARK 922        TOTAL FREE ENERGY PREDICTED BY IDOCK:   -7.03 KCAL/MOL
REMARK 923 INTER-LIGAND FREE ENERGY PREDICTED BY IDOCK:   -6.13 KCAL/MOL
REMARK 924 INTRA-LIGAND FREE ENERGY PREDICTED BY IDOCK:   -0.90 KCAL/MOL
REMARK 927      BINDING AFFINITY PREDICTED BY RF-SCORE:    0.00 PKD
ROOT
HETATM    1  C   UNL     1     -10.371  19.996  67.000  1.00  0.00    -0.421 C  
HETATM    2  O   UNL     1      -8.979  19.727  66.861  1.00  0.00    -0.309 OA 
ENDROOT
BRANCH   2   3
HETATM    3  C   UNL     1      -8.612  18.444  67.159  1.00  0.00    -0.262 A  
HETATM    4  C   UNL     1      -8.528  18.136  68.516  1.00  0.00    -0.312 A  
HETATM    5  C   UNL     1      -8.119  16.865  68.928  1.00  0.00    -0.219 A  
HETATM    6  C   UNL     1      -7.820  15.877  67.982  1.00  0.00    -0.142 A  
HETATM    7  C   UNL     1      -8.351  17.455  66.214  1.00  0.00    -0.271 A  
HETATM    8  C   UNL     1      -7.955  16.180  66.622  1.00  0.00    -0.305 A  
BRANCH   6   9
HETATM    9  C   UNL     1      -7.242  14.542  68.390  1.00  0.00    -0.116 C  
BRANCH   9  10
HETATM   10  C   UNL     1      -8.002  13.287  67.896  1.00  0.00    -0.159 C  
HETATM   11  C   UNL     1      -7.371  12.015  68.472  1.00  0.00    -0.111 C  
BRANCH  10  12
HETATM   12  N   UNL     1      -9.433  13.292  68.269  1.00  0.00    -0.217 NA 
HETATM   13  H   UNL     1      -9.617  13.978  69.001  1.00  0.00     0.000 HD 
BRANCH  12  14
HETATM   14  C   UNL     1     -10.323  13.500  67.119  1.00  0.00    -0.250 C  
BRANCH  14  15
HETATM   15  C   UNL     1     -11.191  12.262  66.772  1.00  0.00    -0.318 C  
HETATM   16  H   UNL     1     -12.938  11.937  65.932  1.00  0.00     0.000 HD 
HETATM   17  O   UNL     1     -12.406  12.695  66.144  1.00  0.00    -0.570 OA 
BRANCH  15  18
HETATM   18  C   UNL     1     -10.439  11.312  65.847  1.00  0.00    -0.314 A  
HETATM   19  C   UNL     1      -9.662  10.254  66.364  1.00  0.00    -0.252 A  
HETATM   20  C   UNL     1      -8.994   9.359  65.522  1.00  0.00    -0.204 A  
HETATM   21  H   UNL     1      -8.544   8.840  62.309  1.00  0.00     0.000 HD 
HETATM   22  C   UNL     1      -9.117   9.529  64.138  1.00  0.00    -0.153 A  
HETATM   23  C   UNL     1     -10.538  11.455  64.458  1.00  0.00    -0.390 A  
HETATM   24  C   UNL     1      -9.886  10.560  63.608  1.00  0.00    -0.354 A  
HETATM   25  O   UNL     1      -8.461   8.724  63.249  1.00  0.00    -0.183 OA 
BRANCH  20  26
HETATM   26  N   UNL     1      -8.236   8.281  66.018  1.00  0.00    -0.112 N  
HETATM   27  H   UNL     1      -8.053   7.518  65.367  1.00  0.00     0.000 HD 
HETATM   28  O   UNL     1      -7.098   7.148  67.621  1.00  0.00    -0.083 OA 
HETATM   29  C   UNL     1      -7.721   8.145  67.272  1.00  0.00    -0.098 C  
ENDBRANCH  20  26
ENDBRANCH  15  18
ENDBRANCH  14  15
ENDBRANCH  12  14
ENDBRANCH  10  12
ENDBRANCH   9  10
ENDBRANCH   6   9
ENDBRANCH   2   3
TORSDOF 8
ENDMDL
MODEL      295
REMARK 921   NORMALIZED FREE ENERGY PREDICTED BY IDOCK:   -3.76 KCAL/MOL
REMARK 922        TOTAL FREE ENERGY PREDICTED BY IDOCK:   -7.01 KCAL/MOL
REMARK 923 INTER-LIGAND FREE ENERGY PREDICTED BY IDOCK:   -6.35 KCAL/MOL
REMARK 924 INTRA-LIGAND FREE ENERGY PREDICTED BY IDOCK:   -0.67 KCAL/MOL
REMARK 927      BINDING AFFINITY PREDICTED BY RF-SCORE:    0.00 PKD
ROOT
HETATM    1  C   UNL     1     -10.636   2.141  63.444  1.00  0.00    -0.184 C  
HETATM    2  O   UNL     1      -9.337   2.349  63.991  1.00  0.00    -0.110 OA 
ENDROOT
BRANCH   2   3
HETATM    3  C   UNL     1      -9.139   3.586  64.538  1.00  0.00    -0.130 A  
HETATM    4  C   UNL     1      -9.886   3.874  65.679  1.00  0.00    -0.149 A  
HETATM    5  C   UNL     1      -9.790   5.127  66.290  1.00  0.00    -0.209 A  
HETATM    6  C   UNL     1      -8.917   6.097  65.780  1.00  0.00    -0.099 A  
HETATM    7  C   UNL     1      -8.242   4.534  64.049  1.00  0.00    -0.106 A  
HETATM    8  C   UNL     1      -8.134   5.782  64.664  1.00  0.00    -0.132 A  
BRANCH   6   9
HETATM    9  C   UNL     1      -8.893   7.503  66.330  1.00  0.00    -0.178 C  
BRANCH   9  10
HETATM   10  C   UNL     1      -9.671   7.737  67.648  1.00  0.00    -0.155 C  
HETATM   11  C   UNL     1      -8.764   8.383  68.701  1.00  0.00    -0.133 C  
BRANCH  10  12
HETATM   12  N   UNL     1     -10.856   8.605  67.476  1.00  0.00    -0.486 NA 
HETATM   13  H   UNL     1     -11.386   8.675  68.345  1.00  0.00     0.000 HD 
BRANCH  12  14
HETATM   14  C   UNL     1     -10.517   9.937  66.959  1.00  0.00    -0.230 C  
BRANCH  14  15
HETATM   15  C   UNL     1     -11.274  11.092  67.667  1.00  0.00    -0.305 C  
HETATM   16  H   UNL     1     -11.025  12.177  69.286  1.00  0.00     0.000 HD 
HETATM   17  O   UNL     1     -10.561  11.471  68.852  1.00  0.00    -0.209 OA 
BRANCH  15  18
HETATM   18  C   UNL     1     -11.421  12.294  66.742  1.00  0.00    -0.421 A  
HETATM   19  C   UNL     1     -11.182  13.605  67.206  1.00  0.00    -0.329 A  
HETATM   20  C   UNL     1     -11.284  14.712  66.356  1.00  0.00    -0.336 A  
HETATM   21  H   UNL     1     -12.019  15.373  63.223  1.00  0.00     0.000 HD 
HETATM   22  C   UNL     1     -11.624  14.492  65.016  1.00  0.00    -0.382 A  
HETATM   23  C   UNL     1     -11.762  12.111  65.397  1.00  0.00    -0.379 A  
HETATM   24  C   UNL     1     -11.855  13.206  64.536  1.00  0.00    -0.427 A  
HETATM   25  O   UNL     1     -11.788  15.522  64.132  1.00  0.00    -0.463 OA 
BRANCH  20  26
HETATM   26  N   UNL     1     -11.024  16.024  66.794  1.00  0.00    -0.188 N  
HETATM   27  H   UNL     1     -11.340  16.776  66.183  1.00  0.00     0.000 HD 
HETATM   28  O   UNL     1     -10.186  17.574  68.222  1.00  0.00    -0.322 OA 
HETATM   29  C   UNL     1     -10.396  16.399  67.943  1.00  0.00    -0.286 C  
ENDBRANCH  20  26
ENDBRANCH  15  18
ENDBRANCH  14  15
ENDBRANCH  12  14
ENDBRANCH  10  12
ENDBRANCH   9  10
ENDBRANCH   6   9
ENDBRANCH   2   3
TORSDOF 8
ENDMDL
MODEL      296
REMARK 921   NORMALIZED FREE ENERGY PREDICTED BY IDOCK:   -3.76 KCAL/MOL
REMARK 922        TOTAL FREE ENERGY PREDICTED BY IDOCK:   -7.01 KCAL/MOL
REMARK 923 INTER-LIGAND FREE ENERGY PREDICTED BY IDOCK:   -5.79 KCAL/MOL
REMARK 924 INTRA-LIGAND FREE ENERGY PREDICTED BY IDOCK:   -1.23 KCAL/MOL
REMARK 927      BINDING AFFINITY PREDICTED BY RF-SCORE:    0.00 PKD
ROOT
HETATM    1  C   UNL     1      -9.291   7.937  73.327  1.00  0.00    -0.286 C  
HETATM    2  O   UNL     1      -9.968   6.966  72.535  1.00  0.00    -0.167 OA 
ENDROOT
BRANCH   2   3
HETATM    3  C   UNL     1     -10.111   7.302  71.217  1.00  0.00    -0.189 A  
HETATM    4  C   UNL     1      -9.619   8.554  70.852  1.00  0.00    -0.228 A  
HETATM    5  C   UNL     1      -9.755   9.011  69.539  1.00  0.00    -0.171 A  
HETATM    6  C   UNL     1     -10.360   8.203  68.567  1.00  0.00    -0.230 A  
HETATM    7  C   UNL     1     -10.680   6.479  70.248  1.00  0.00    -0.307 A  
HETATM    8  C   UNL     1     -10.807   6.928  68.932  1.00  0.00    -0.247 A  
BRANCH   6   9
HETATM    9  C   UNL     1     -10.647   8.720  67.178  1.00  0.00    -0.303 C  
BRANCH   9  10
HETATM   10  C   UNL     1      -9.422   8.912  66.251  1.00  0.00    -0.239 C  
HETATM   11  C   UNL     1      -8.710   7.575  66.018  1.00  0.00    -0.178 C  
BRANCH  10  12
HETATM   12  N   UNL     1      -9.777   9.472  64.929  1.00  0.00    -0.438 NA 
HETATM   13  H   UNL     1     -10.789   9.514  64.812  1.00  0.00     0.000 HD 
BRANCH  12  14
HETATM   14  C   UNL     1      -9.164  10.783  64.680  1.00  0.00    -0.219 C  
BRANCH  14  15
HETATM   15  C   UNL     1     -10.164  11.965  64.770  1.00  0.00    -0.276 C  
HETATM   16  H   UNL     1     -12.112  12.177  64.911  1.00  0.00     0.000 HD 
HETATM   17  O   UNL     1     -11.500  11.452  64.857  1.00  0.00    -0.121 OA 
BRANCH  15  18
HETATM   18  C   UNL     1      -9.863  12.842  65.979  1.00  0.00    -0.258 A  
HETATM   19  C   UNL     1      -9.014  12.393  67.013  1.00  0.00    -0.209 A  
HETATM   20  C   UNL     1      -8.708  13.203  68.112  1.00  0.00    -0.193 A  
HETATM   21  H   UNL     1      -9.422  16.196  69.262  1.00  0.00     0.000 HD 
HETATM   22  C   UNL     1      -9.261  14.488  68.166  1.00  0.00    -0.195 A  
HETATM   23  C   UNL     1     -10.402  14.132  66.067  1.00  0.00    -0.316 A  
HETATM   24  C   UNL     1     -10.094  14.953  67.152  1.00  0.00    -0.240 A  
HETATM   25  O   UNL     1      -9.047  15.324  69.226  1.00  0.00    -0.227 OA 
BRANCH  20  26
HETATM   26  N   UNL     1      -7.842  12.783  69.139  1.00  0.00    -0.303 N  
HETATM   27  H   UNL     1      -8.281  12.379  69.966  1.00  0.00     0.000 HD 
HETATM   28  O   UNL     1      -5.813  12.491  70.111  1.00  0.00    -0.139 OA 
HETATM   29  C   UNL     1      -6.481  12.856  69.150  1.00  0.00    -0.108 C  
ENDBRANCH  20  26
ENDBRANCH  15  18
ENDBRANCH  14  15
ENDBRANCH  12  14
ENDBRANCH  10  12
ENDBRANCH   9  10
ENDBRANCH   6   9
ENDBRANCH   2   3
TORSDOF 8
ENDMDL
MODEL      297
REMARK 921   NORMALIZED FREE ENERGY PREDICTED BY IDOCK:   -3.76 KCAL/MOL
REMARK 922        TOTAL FREE ENERGY PREDICTED BY IDOCK:   -7.01 KCAL/MOL
REMARK 923 INTER-LIGAND FREE ENERGY PREDICTED BY IDOCK:   -6.31 KCAL/MOL
REMARK 924 INTRA-LIGAND FREE ENERGY PREDICTED BY IDOCK:   -0.70 KCAL/MOL
REMARK 927      BINDING AFFINITY PREDICTED BY RF-SCORE:    0.00 PKD
ROOT
HETATM    1  C   UNL     1     -10.460   4.460  73.092  1.00  0.00    -0.184 C  
HETATM    2  O   UNL     1     -11.488   5.445  73.135  1.00  0.00    -0.292 OA 
ENDROOT
BRANCH   2   3
HETATM    3  C   UNL     1     -11.334   6.473  72.247  1.00  0.00    -0.282 A  
HETATM    4  C   UNL     1     -10.801   6.129  71.005  1.00  0.00    -0.338 A  
HETATM    5  C   UNL     1     -10.562   7.113  70.042  1.00  0.00    -0.248 A  
HETATM    6  C   UNL     1     -10.885   8.451  70.302  1.00  0.00    -0.244 A  
HETATM    7  C   UNL     1     -11.690   7.796  72.498  1.00  0.00    -0.393 A  
HETATM    8  C   UNL     1     -11.465   8.779  71.533  1.00  0.00    -0.375 A  
BRANCH   6   9
HETATM    9  C   UNL     1     -10.511   9.553  69.340  1.00  0.00    -0.231 C  
BRANCH   9  10
HETATM   10  C   UNL     1      -8.996   9.812  69.150  1.00  0.00    -0.161 C  
HETATM   11  C   UNL     1      -8.237   9.544  70.453  1.00  0.00    -0.220 C  
BRANCH  10  12
HETATM   12  N   UNL     1      -8.393   8.970  68.093  1.00  0.00    -0.120 NA 
HETATM   13  H   UNL     1      -9.053   8.814  67.331  1.00  0.00     0.000 HD 
BRANCH  12  14
HETATM   14  C   UNL     1      -7.125   9.510  67.587  1.00  0.00    -0.081 C  
BRANCH  14  15
HETATM   15  C   UNL     1      -7.280  10.370  66.306  1.00  0.00    -0.127 C  
HETATM   16  H   UNL     1      -8.078  10.141  64.525  1.00  0.00     0.000 HD 
HETATM   17  O   UNL     1      -7.983   9.615  65.310  1.00  0.00    -0.108 OA 
BRANCH  15  18
HETATM   18  C   UNL     1      -8.031  11.662  66.605  1.00  0.00    -0.098 A  
HETATM   19  C   UNL     1      -9.335  11.879  66.110  1.00  0.00    -0.228 A  
HETATM   20  C   UNL     1     -10.044  13.049  66.405  1.00  0.00    -0.279 A  
HETATM   21  H   UNL     1      -9.624  15.850  68.069  1.00  0.00     0.000 HD 
HETATM   22  C   UNL     1      -9.432  14.010  67.219  1.00  0.00    -0.231 A  
HETATM   23  C   UNL     1      -7.449  12.646  67.413  1.00  0.00    -0.146 A  
HETATM   24  C   UNL     1      -8.151  13.811  67.725  1.00  0.00    -0.176 A  
HETATM   25  O   UNL     1     -10.039  15.197  67.518  1.00  0.00    -0.230 OA 
BRANCH  20  26
HETATM   26  N   UNL     1     -11.354  13.272  65.943  1.00  0.00    -0.305 N  
HETATM   27  H   UNL     1     -11.775  14.168  66.187  1.00  0.00     0.000 HD 
HETATM   28  O   UNL     1     -13.273  12.695  64.877  1.00  0.00    -0.819 OA 
HETATM   29  C   UNL     1     -12.123  12.422  65.206  1.00  0.00    -0.391 C  
ENDBRANCH  20  26
ENDBRANCH  15  18
ENDBRANCH  14  15
ENDBRANCH  12  14
ENDBRANCH  10  12
ENDBRANCH   9  10
ENDBRANCH   6   9
ENDBRANCH   2   3
TORSDOF 8
ENDMDL
MODEL      298
REMARK 921   NORMALIZED FREE ENERGY PREDICTED BY IDOCK:   -3.75 KCAL/MOL
REMARK 922        TOTAL FREE ENERGY PREDICTED BY IDOCK:   -7.00 KCAL/MOL
REMARK 923 INTER-LIGAND FREE ENERGY PREDICTED BY IDOCK:   -6.14 KCAL/MOL
REMARK 924 INTRA-LIGAND FREE ENERGY PREDICTED BY IDOCK:   -0.86 KCAL/MOL
REMARK 927      BINDING AFFINITY PREDICTED BY RF-SCORE:    0.00 PKD
ROOT
HETATM    1  C   UNL     1     -14.141  13.809  72.364  1.00  0.00    -0.492 C  
HETATM    2  O   UNL     1     -13.440  12.609  72.049  1.00  0.00    -0.498 OA 
ENDROOT
BRANCH   2   3
HETATM    3  C   UNL     1     -12.690  12.668  70.907  1.00  0.00    -0.188 A  
HETATM    4  C   UNL     1     -12.245  11.445  70.408  1.00  0.00    -0.450 A  
HETATM    5  C   UNL     1     -11.434  11.398  69.271  1.00  0.00    -0.370 A  
HETATM    6  C   UNL     1     -11.086  12.578  68.602  1.00  0.00    -0.305 A  
HETATM    7  C   UNL     1     -12.378  13.841  70.225  1.00  0.00    -0.407 A  
HETATM    8  C   UNL     1     -11.578  13.797  69.081  1.00  0.00    -0.363 A  
BRANCH   6   9
HETATM    9  C   UNL     1     -10.101  12.574  67.457  1.00  0.00    -0.207 C  
BRANCH   9  10
HETATM   10  C   UNL     1     -10.707  12.568  66.032  1.00  0.00    -0.262 C  
HETATM   11  C   UNL     1     -10.409  13.890  65.316  1.00  0.00    -0.396 C  
BRANCH  10  12
HETATM   12  N   UNL     1     -10.191  11.470  65.188  1.00  0.00    -0.260 NA 
HETATM   13  H   UNL     1      -9.195  11.590  65.001  1.00  0.00     0.000 HD 
BRANCH  12  14
HETATM   14  C   UNL     1     -10.463  10.140  65.750  1.00  0.00    -0.057 C  
BRANCH  14  15
HETATM   15  C   UNL     1      -9.358   9.096  65.443  1.00  0.00    -0.191 C  
HETATM   16  H   UNL     1      -7.393   9.051  65.467  1.00  0.00     0.000 HD 
HETATM   17  O   UNL     1      -8.070   9.690  65.655  1.00  0.00    -0.112 OA 
BRANCH  15  18
HETATM   18  C   UNL     1      -9.513   7.864  66.326  1.00  0.00    -0.220 A  
HETATM   19  C   UNL     1      -8.401   7.062  66.663  1.00  0.00    -0.118 A  
HETATM   20  C   UNL     1      -8.531   5.947  67.498  1.00  0.00    -0.103 A  
HETATM   21  H   UNL     1     -10.875   4.336  69.140  1.00  0.00     0.000 HD 
HETATM   22  C   UNL     1      -9.798   5.641  68.007  1.00  0.00    -0.133 A  
HETATM   23  C   UNL     1     -10.767   7.526  66.851  1.00  0.00    -0.299 A  
HETATM   24  C   UNL     1     -10.905   6.424  67.695  1.00  0.00    -0.425 A  
HETATM   25  O   UNL     1     -10.016   4.544  68.794  1.00  0.00    -0.139 OA 
BRANCH  20  26
HETATM   26  N   UNL     1      -7.430   5.151  67.866  1.00  0.00    -0.075 N  
HETATM   27  H   UNL     1      -6.986   5.375  68.757  1.00  0.00     0.000 HD 
HETATM   28  O   UNL     1      -5.904   3.500  67.556  1.00  0.00    -0.022 OA 
HETATM   29  C   UNL     1      -6.890   4.115  67.165  1.00  0.00    -0.051 C  
ENDBRANCH  20  26
ENDBRANCH  15  18
ENDBRANCH  14  15
ENDBRANCH  12  14
ENDBRANCH  10  12
ENDBRANCH   9  10
ENDBRANCH   6   9
ENDBRANCH   2   3
TORSDOF 8
ENDMDL
MODEL      299
REMARK 921   NORMALIZED FREE ENERGY PREDICTED BY IDOCK:   -3.75 KCAL/MOL
REMARK 922        TOTAL FREE ENERGY PREDICTED BY IDOCK:   -7.00 KCAL/MOL
REMARK 923 INTER-LIGAND FREE ENERGY PREDICTED BY IDOCK:   -6.57 KCAL/MOL
REMARK 924 INTRA-LIGAND FREE ENERGY PREDICTED BY IDOCK:   -0.43 KCAL/MOL
REMARK 927      BINDING AFFINITY PREDICTED BY RF-SCORE:    0.00 PKD
ROOT
HETATM    1  C   UNL     1      -7.173  20.233  66.364  1.00  0.00    -0.264 C  
HETATM    2  O   UNL     1      -7.247  19.522  67.596  1.00  0.00    -0.231 OA 
ENDROOT
BRANCH   2   3
HETATM    3  C   UNL     1      -8.298  18.653  67.692  1.00  0.00    -0.267 A  
HETATM    4  C   UNL     1      -9.066  18.753  68.852  1.00  0.00    -0.250 A  
HETATM    5  C   UNL     1     -10.137  17.882  69.068  1.00  0.00    -0.292 A  
HETATM    6  C   UNL     1     -10.470  16.919  68.107  1.00  0.00    -0.350 A  
HETATM    7  C   UNL     1      -8.647  17.722  66.717  1.00  0.00    -0.272 A  
HETATM    8  C   UNL     1      -9.724  16.858  66.924  1.00  0.00    -0.264 A  
BRANCH   6   9
HETATM    9  C   UNL     1     -11.528  15.874  68.371  1.00  0.00    -0.348 C  
BRANCH   9  10
HETATM   10  C   UNL     1     -11.101  14.673  69.249  1.00  0.00    -0.269 C  
HETATM   11  C   UNL     1     -12.204  14.321  70.252  1.00  0.00    -0.407 C  
BRANCH  10  12
HETATM   12  N   UNL     1     -10.800  13.457  68.462  1.00  0.00    -0.257 NA 
HETATM   13  H   UNL     1     -11.099  12.618  68.959  1.00  0.00     0.000 HD 
BRANCH  12  14
HETATM   14  C   UNL     1     -11.371  13.497  67.109  1.00  0.00    -0.321 C  
BRANCH  14  15
HETATM   15  C   UNL     1     -11.786  12.104  66.567  1.00  0.00    -0.321 C  
HETATM   16  H   UNL     1     -12.718  11.412  64.982  1.00  0.00     0.000 HD 
HETATM   17  O   UNL     1     -12.464  12.265  65.313  1.00  0.00    -0.585 OA 
BRANCH  15  18
HETATM   18  C   UNL     1     -10.568  11.206  66.387  1.00  0.00    -0.315 A  
HETATM   19  C   UNL     1     -10.692   9.799  66.393  1.00  0.00    -0.013 A  
HETATM   20  C   UNL     1      -9.584   8.968  66.198  1.00  0.00    -0.272 A  
HETATM   21  H   UNL     1      -6.349   9.223  65.687  1.00  0.00     0.000 HD 
HETATM   22  C   UNL     1      -8.335   9.562  65.985  1.00  0.00    -0.119 A  
HETATM   23  C   UNL     1      -9.303  11.766  66.175  1.00  0.00    -0.236 A  
HETATM   24  C   UNL     1      -8.193  10.946  65.966  1.00  0.00    -0.155 A  
HETATM   25  O   UNL     1      -7.197   8.820  65.831  1.00  0.00    -0.082 OA 
BRANCH  20  26
HETATM   26  N   UNL     1      -9.692   7.564  66.174  1.00  0.00    -0.435 N  
HETATM   27  H   UNL     1     -10.139   7.158  65.352  1.00  0.00     0.000 HD 
HETATM   28  O   UNL     1      -9.435   5.479  67.029  1.00  0.00    -0.123 OA 
HETATM   29  C   UNL     1      -9.265   6.689  67.127  1.00  0.00    -0.126 C  
ENDBRANCH  20  26
ENDBRANCH  15  18
ENDBRANCH  14  15
ENDBRANCH  12  14
ENDBRANCH  10  12
ENDBRANCH   9  10
ENDBRANCH   6   9
ENDBRANCH   2   3
TORSDOF 8
ENDMDL
MODEL      300
REMARK 921   NORMALIZED FREE ENERGY PREDICTED BY IDOCK:   -3.75 KCAL/MOL
REMARK 922        TOTAL FREE ENERGY PREDICTED BY IDOCK:   -6.99 KCAL/MOL
REMARK 923 INTER-LIGAND FREE ENERGY PREDICTED BY IDOCK:   -5.71 KCAL/MOL
REMARK 924 INTRA-LIGAND FREE ENERGY PREDICTED BY IDOCK:   -1.28 KCAL/MOL
REMARK 927      BINDING AFFINITY PREDICTED BY RF-SCORE:    0.00 PKD
ROOT
HETATM    1  C   UNL     1     -13.630   9.064  71.840  1.00  0.00    -0.431 C  
HETATM    2  O   UNL     1     -12.366   9.088  72.497  1.00  0.00    -0.320 OA 
ENDROOT
BRANCH   2   3
HETATM    3  C   UNL     1     -11.437   8.228  71.980  1.00  0.00    -0.334 A  
HETATM    4  C   UNL     1     -11.895   6.945  71.682  1.00  0.00    -0.363 A  
HETATM    5  C   UNL     1     -11.015   5.978  71.191  1.00  0.00    -0.341 A  
HETATM    6  C   UNL     1      -9.670   6.295  70.962  1.00  0.00    -0.196 A  
HETATM    7  C   UNL     1     -10.110   8.560  71.720  1.00  0.00    -0.351 A  
HETATM    8  C   UNL     1      -9.231   7.599  71.217  1.00  0.00    -0.155 A  
BRANCH   6   9
HETATM    9  C   UNL     1      -8.666   5.239  70.566  1.00  0.00    -0.132 C  
BRANCH   9  10
HETATM   10  C   UNL     1      -8.492   4.994  69.047  1.00  0.00    -0.082 C  
HETATM   11  C   UNL     1      -9.509   3.961  68.548  1.00  0.00    -0.213 C  
BRANCH  10  12
HETATM   12  N   UNL     1      -8.661   6.222  68.239  1.00  0.00    -0.117 NA 
HETATM   13  H   UNL     1      -7.756   6.630  68.003  1.00  0.00     0.000 HD 
BRANCH  12  14
HETATM   14  C   UNL     1      -9.470   6.006  67.033  1.00  0.00    -0.127 C  
BRANCH  14  15
HETATM   15  C   UNL     1     -10.621   7.032  66.863  1.00  0.00    -0.301 C  
HETATM   16  H   UNL     1     -12.219   7.561  67.875  1.00  0.00     0.000 HD 
HETATM   17  O   UNL     1     -11.515   6.933  67.980  1.00  0.00     0.038 OA 
BRANCH  15  18
HETATM   18  C   UNL     1     -10.074   8.450  66.759  1.00  0.00    -0.373 A  
HETATM   19  C   UNL     1      -9.160   8.807  65.744  1.00  0.00    -0.267 A  
HETATM   20  C   UNL     1      -8.677  10.115  65.623  1.00  0.00    -0.158 A  
HETATM   21  H   UNL     1      -8.978  13.020  67.125  1.00  0.00     0.000 HD 
HETATM   22  C   UNL     1      -9.129  11.078  66.532  1.00  0.00    -0.173 A  
HETATM   23  C   UNL     1     -10.503   9.439  67.653  1.00  0.00    -0.328 A  
HETATM   24  C   UNL     1     -10.038  10.749  67.533  1.00  0.00    -0.218 A  
HETATM   25  O   UNL     1      -8.672  12.366  66.508  1.00  0.00    -0.164 OA 
BRANCH  20  26
HETATM   26  N   UNL     1      -7.786  10.496  64.602  1.00  0.00    -0.331 N  
HETATM   27  H   UNL     1      -8.127  11.189  63.938  1.00  0.00     0.000 HD 
HETATM   28  O   UNL     1      -5.826  10.411  63.461  1.00  0.00    -0.142 OA 
HETATM   29  C   UNL     1      -6.517  10.040  64.404  1.00  0.00    -0.131 C  
ENDBRANCH  20  26
ENDBRANCH  15  18
ENDBRANCH  14  15
ENDBRANCH  12  14
ENDBRANCH  10  12
ENDBRANCH   9  10
ENDBRANCH   6   9
ENDBRANCH   2   3
TORSDOF 8
ENDMDL
MODEL      301
REMARK 921   NORMALIZED FREE ENERGY PREDICTED BY IDOCK:   -3.74 KCAL/MOL
REMARK 922        TOTAL FREE ENERGY PREDICTED BY IDOCK:   -6.98 KCAL/MOL
REMARK 923 INTER-LIGAND FREE ENERGY PREDICTED BY IDOCK:   -5.52 KCAL/MOL
REMARK 924 INTRA-LIGAND FREE ENERGY PREDICTED BY IDOCK:   -1.47 KCAL/MOL
REMARK 927      BINDING AFFINITY PREDICTED BY RF-SCORE:    0.00 PKD
ROOT
HETATM    1  C   UNL     1     -11.681  12.896  64.740  1.00  0.00    -0.346 C  
HETATM    2  O   UNL     1     -11.969  13.142  66.113  1.00  0.00    -0.386 OA 
ENDROOT
BRANCH   2   3
HETATM    3  C   UNL     1     -11.249  12.382  66.993  1.00  0.00    -0.303 A  
HETATM    4  C   UNL     1      -9.879  12.637  67.039  1.00  0.00    -0.225 A  
HETATM    5  C   UNL     1      -9.048  11.886  67.872  1.00  0.00    -0.183 A  
HETATM    6  C   UNL     1      -9.586  10.889  68.696  1.00  0.00    -0.192 A  
HETATM    7  C   UNL     1     -11.795  11.417  67.836  1.00  0.00    -0.239 A  
HETATM    8  C   UNL     1     -10.969  10.673  68.680  1.00  0.00    -0.291 A  
BRANCH   6   9
HETATM    9  C   UNL     1      -8.701   9.968  69.501  1.00  0.00    -0.205 C  
BRANCH   9  10
HETATM   10  C   UNL     1      -7.729   9.073  68.694  1.00  0.00    -0.096 C  
HETATM   11  C   UNL     1      -7.145   7.972  69.586  1.00  0.00    -0.061 C  
BRANCH  10  12
HETATM   12  N   UNL     1      -8.370   8.422  67.532  1.00  0.00    -0.128 NA 
HETATM   13  H   UNL     1      -7.747   8.422  66.724  1.00  0.00     0.000 HD 
BRANCH  12  14
HETATM   14  C   UNL     1      -8.845   7.064  67.828  1.00  0.00    -0.123 C  
BRANCH  14  15
HETATM   15  C   UNL     1     -10.370   6.983  68.102  1.00  0.00    -0.191 C  
HETATM   16  H   UNL     1     -11.909   6.037  67.329  1.00  0.00     0.000 HD 
HETATM   17  O   UNL     1     -10.975   6.086  67.161  1.00  0.00    -0.313 OA 
BRANCH  15  18
HETATM   18  C   UNL     1     -10.643   6.507  69.523  1.00  0.00    -0.293 A  
HETATM   19  C   UNL     1     -10.121   5.283  69.995  1.00  0.00    -0.336 A  
HETATM   20  C   UNL     1     -10.341   4.853  71.309  1.00  0.00    -0.148 A  
HETATM   21  H   UNL     1     -11.895   5.860  74.022  1.00  0.00     0.000 HD 
HETATM   22  C   UNL     1     -11.091   5.673  72.161  1.00  0.00    -0.241 A  
HETATM   23  C   UNL     1     -11.390   7.300  70.402  1.00  0.00    -0.299 A  
HETATM   24  C   UNL     1     -11.605   6.888  71.718  1.00  0.00    -0.322 A  
HETATM   25  O   UNL     1     -11.387   5.304  73.443  1.00  0.00    -0.293 OA 
BRANCH  20  26
HETATM   26  N   UNL     1      -9.808   3.649  71.805  1.00  0.00    -0.169 N  
HETATM   27  H   UNL     1     -10.481   2.931  72.073  1.00  0.00     0.000 HD 
HETATM   28  O   UNL     1      -8.125   2.267  72.442  1.00  0.00    -0.053 OA 
HETATM   29  C   UNL     1      -8.491   3.336  71.967  1.00  0.00    -0.077 C  
ENDBRANCH  20  26
ENDBRANCH  15  18
ENDBRANCH  14  15
ENDBRANCH  12  14
ENDBRANCH  10  12
ENDBRANCH   9  10
ENDBRANCH   6   9
ENDBRANCH   2   3
TORSDOF 8
ENDMDL
MODEL      302
REMARK 921   NORMALIZED FREE ENERGY PREDICTED BY IDOCK:   -3.74 KCAL/MOL
REMARK 922        TOTAL FREE ENERGY PREDICTED BY IDOCK:   -6.98 KCAL/MOL
REMARK 923 INTER-LIGAND FREE ENERGY PREDICTED BY IDOCK:   -6.50 KCAL/MOL
REMARK 924 INTRA-LIGAND FREE ENERGY PREDICTED BY IDOCK:   -0.48 KCAL/MOL
REMARK 927      BINDING AFFINITY PREDICTED BY RF-SCORE:    0.00 PKD
ROOT
HETATM    1  C   UNL     1     -10.304  16.851  65.869  1.00  0.00    -0.315 C  
HETATM    2  O   UNL     1     -10.526  15.845  64.885  1.00  0.00    -0.542 OA 
ENDROOT
BRANCH   2   3
HETATM    3  C   UNL     1     -10.570  14.568  65.372  1.00  0.00    -0.370 A  
HETATM    4  C   UNL     1     -11.213  13.631  64.564  1.00  0.00    -0.395 A  
HETATM    5  C   UNL     1     -11.351  12.308  64.990  1.00  0.00    -0.376 A  
HETATM    6  C   UNL     1     -10.818  11.901  66.220  1.00  0.00    -0.323 A  
HETATM    7  C   UNL     1     -10.007  14.161  66.579  1.00  0.00    -0.289 A  
HETATM    8  C   UNL     1     -10.132  12.837  67.002  1.00  0.00    -0.240 A  
BRANCH   6   9
HETATM    9  C   UNL     1     -11.071  10.518  66.770  1.00  0.00    -0.061 C  
BRANCH   9  10
HETATM   10  C   UNL     1     -10.059   9.421  66.360  1.00  0.00    -0.262 C  
HETATM   11  C   UNL     1      -9.073   9.961  65.318  1.00  0.00    -0.256 C  
BRANCH  10  12
HETATM   12  N   UNL     1      -9.272   8.901  67.500  1.00  0.00    -0.135 NA 
HETATM   13  H   UNL     1      -9.543   9.362  68.369  1.00  0.00     0.000 HD 
BRANCH  12  14
HETATM   14  C   UNL     1      -9.354   7.441  67.632  1.00  0.00    -0.133 C  
BRANCH  14  15
HETATM   15  C   UNL     1     -10.781   6.922  67.946  1.00  0.00    -0.232 C  
HETATM   16  H   UNL     1     -11.985   5.543  67.234  1.00  0.00     0.000 HD 
HETATM   17  O   UNL     1     -11.111   5.860  67.041  1.00  0.00    -0.260 OA 
BRANCH  15  18
HETATM   18  C   UNL     1     -10.875   6.427  69.384  1.00  0.00    -0.381 A  
HETATM   19  C   UNL     1     -10.049   5.383  69.853  1.00  0.00    -0.322 A  
HETATM   20  C   UNL     1     -10.108   4.943  71.180  1.00  0.00    -0.207 A  
HETATM   21  H   UNL     1     -11.766   5.597  73.939  1.00  0.00     0.000 HD 
HETATM   22  C   UNL     1     -11.007   5.571  72.050  1.00  0.00    -0.214 A  
HETATM   23  C   UNL     1     -11.766   7.030  70.281  1.00  0.00    -0.284 A  
HETATM   24  C   UNL     1     -11.824   6.609  71.610  1.00  0.00    -0.383 A  
HETATM   25  O   UNL     1     -11.156   5.172  73.348  1.00  0.00    -0.297 OA 
BRANCH  20  26
HETATM   26  N   UNL     1      -9.273   3.923  71.672  1.00  0.00    -0.119 N  
HETATM   27  H   UNL     1      -9.569   3.473  72.538  1.00  0.00     0.000 HD 
HETATM   28  O   UNL     1      -7.435   2.592  71.643  1.00  0.00    -0.039 OA 
HETATM   29  C   UNL     1      -8.113   3.468  71.119  1.00  0.00    -0.066 C  
ENDBRANCH  20  26
ENDBRANCH  15  18
ENDBRANCH  14  15
ENDBRANCH  12  14
ENDBRANCH  10  12
ENDBRANCH   9  10
ENDBRANCH   6   9
ENDBRANCH   2   3
TORSDOF 8
ENDMDL
MODEL      303
REMARK 921   NORMALIZED FREE ENERGY PREDICTED BY IDOCK:   -3.73 KCAL/MOL
REMARK 922        TOTAL FREE ENERGY PREDICTED BY IDOCK:   -6.97 KCAL/MOL
REMARK 923 INTER-LIGAND FREE ENERGY PREDICTED BY IDOCK:   -5.43 KCAL/MOL
REMARK 924 INTRA-LIGAND FREE ENERGY PREDICTED BY IDOCK:   -1.54 KCAL/MOL
REMARK 927      BINDING AFFINITY PREDICTED BY RF-SCORE:    0.00 PKD
ROOT
HETATM    1  C   UNL     1     -11.499  15.255  69.172  1.00  0.00    -0.316 C  
HETATM    2  O   UNL     1     -10.811  15.579  67.967  1.00  0.00    -0.280 OA 
ENDROOT
BRANCH   2   3
HETATM    3  C   UNL     1      -9.584  14.991  67.833  1.00  0.00    -0.203 A  
HETATM    4  C   UNL     1      -9.395  13.808  68.546  1.00  0.00    -0.144 A  
HETATM    5  C   UNL     1      -8.162  13.152  68.512  1.00  0.00    -0.076 A  
HETATM    6  C   UNL     1      -7.112  13.659  67.736  1.00  0.00    -0.167 A  
HETATM    7  C   UNL     1      -8.555  15.481  67.032  1.00  0.00    -0.262 A  
HETATM    8  C   UNL     1      -7.326  14.821  66.986  1.00  0.00     0.172 A  
BRANCH   6   9
HETATM    9  C   UNL     1      -5.729  13.054  67.788  1.00  0.00    -0.134 C  
BRANCH   9  10
HETATM   10  C   UNL     1      -5.572  11.649  67.158  1.00  0.00    -0.111 C  
HETATM   11  C   UNL     1      -6.083  10.568  68.117  1.00  0.00    -0.043 C  
BRANCH  10  12
HETATM   12  N   UNL     1      -6.303  11.502  65.880  1.00  0.00    -0.401 NA 
HETATM   13  H   UNL     1      -5.829  12.005  65.130  1.00  0.00     0.000 HD 
BRANCH  12  14
HETATM   14  C   UNL     1      -6.530  10.099  65.510  1.00  0.00    -0.107 C  
BRANCH  14  15
HETATM   15  C   UNL     1      -7.860   9.864  64.746  1.00  0.00    -0.141 C  
HETATM   16  H   UNL     1      -8.817   8.322  63.992  1.00  0.00     0.000 HD 
HETATM   17  O   UNL     1      -8.003   8.466  64.460  1.00  0.00    -0.131 OA 
BRANCH  15  18
HETATM   18  C   UNL     1      -9.050  10.351  65.564  1.00  0.00    -0.208 A  
HETATM   19  C   UNL     1      -9.390   9.742  66.791  1.00  0.00    -0.190 A  
HETATM   20  C   UNL     1     -10.463  10.203  67.563  1.00  0.00    -0.253 A  
HETATM   21  H   UNL     1     -12.784  12.525  67.450  1.00  0.00     0.000 HD 
HETATM   22  C   UNL     1     -11.197  11.299  67.095  1.00  0.00    -0.275 A  
HETATM   23  C   UNL     1      -9.808  11.443  65.124  1.00  0.00    -0.302 A  
HETATM   24  C   UNL     1     -10.872  11.919  65.892  1.00  0.00    -0.342 A  
HETATM   25  O   UNL     1     -12.285  11.781  67.767  1.00  0.00    -0.536 OA 
BRANCH  20  26
HETATM   26  N   UNL     1     -10.801   9.626  68.801  1.00  0.00    -0.353 N  
HETATM   27  H   UNL     1     -10.957   8.618  68.805  1.00  0.00     0.000 HD 
HETATM   28  O   UNL     1     -11.273   9.677  71.020  1.00  0.00    -0.316 OA 
HETATM   29  C   UNL     1     -10.942  10.265  69.997  1.00  0.00    -0.311 C  
ENDBRANCH  20  26
ENDBRANCH  15  18
ENDBRANCH  14  15
ENDBRANCH  12  14
ENDBRANCH  10  12
ENDBRANCH   9  10
ENDBRANCH   6   9
ENDBRANCH   2   3
TORSDOF 8
ENDMDL
MODEL      304
REMARK 921   NORMALIZED FREE ENERGY PREDICTED BY IDOCK:   -3.73 KCAL/MOL
REMARK 922        TOTAL FREE ENERGY PREDICTED BY IDOCK:   -6.97 KCAL/MOL
REMARK 923 INTER-LIGAND FREE ENERGY PREDICTED BY IDOCK:   -5.96 KCAL/MOL
REMARK 924 INTRA-LIGAND FREE ENERGY PREDICTED BY IDOCK:   -1.00 KCAL/MOL
REMARK 927      BINDING AFFINITY PREDICTED BY RF-SCORE:    0.00 PKD
ROOT
HETATM    1  C   UNL     1     -12.758  12.339  63.895  1.00  0.00    -0.382 C  
HETATM    2  O   UNL     1     -11.542  12.459  63.163  1.00  0.00    -0.392 OA 
ENDROOT
BRANCH   2   3
HETATM    3  C   UNL     1     -10.513  11.692  63.635  1.00  0.00    -0.429 A  
HETATM    4  C   UNL     1     -10.277  11.768  65.007  1.00  0.00    -0.314 A  
HETATM    5  C   UNL     1      -9.220  11.057  65.582  1.00  0.00    -0.231 A  
HETATM    6  C   UNL     1      -8.407  10.236  64.791  1.00  0.00    -0.173 A  
HETATM    7  C   UNL     1      -9.730  10.849  62.850  1.00  0.00    -0.349 A  
HETATM    8  C   UNL     1      -8.682  10.128  63.423  1.00  0.00    -0.216 A  
BRANCH   6   9
HETATM    9  C   UNL     1      -7.176   9.567  65.356  1.00  0.00    -0.095 C  
BRANCH   9  10
HETATM   10  C   UNL     1      -5.861  10.383  65.288  1.00  0.00    -0.134 C  
HETATM   11  C   UNL     1      -5.452  10.622  63.831  1.00  0.00    -0.107 C  
BRANCH  10  12
HETATM   12  N   UNL     1      -5.962  11.700  65.953  1.00  0.00    -0.442 NA 
HETATM   13  H   UNL     1      -6.867  12.132  65.770  1.00  0.00     0.000 HD 
BRANCH  12  14
HETATM   14  C   UNL     1      -5.691  11.635  67.395  1.00  0.00    -0.088 C  
BRANCH  14  15
HETATM   15  C   UNL     1      -6.941  11.895  68.275  1.00  0.00    -0.077 C  
HETATM   16  H   UNL     1      -7.513  11.456  70.103  1.00  0.00     0.000 HD 
HETATM   17  O   UNL     1      -6.748  11.296  69.564  1.00  0.00    -0.111 OA 
BRANCH  15  18
HETATM   18  C   UNL     1      -7.195  13.390  68.431  1.00  0.00    -0.110 A  
HETATM   19  C   UNL     1      -8.037  14.084  67.535  1.00  0.00    -0.197 A  
HETATM   20  C   UNL     1      -8.300  15.450  67.689  1.00  0.00    -0.161 A  
HETATM   21  H   UNL     1      -7.485  17.923  69.691  1.00  0.00     0.000 HD 
HETATM   22  C   UNL     1      -7.712  16.124  68.766  1.00  0.00    -0.200 A  
HETATM   23  C   UNL     1      -6.621  14.096  69.495  1.00  0.00    -0.124 A  
HETATM   24  C   UNL     1      -6.887  15.456  69.665  1.00  0.00    -0.185 A  
HETATM   25  O   UNL     1      -7.884  17.466  68.960  1.00  0.00    -0.230 OA 
BRANCH  20  26
HETATM   26  N   UNL     1      -9.158  16.153  66.822  1.00  0.00    -0.213 N  
HETATM   27  H   UNL     1      -9.317  17.136  67.041  1.00  0.00     0.000 HD 
HETATM   28  O   UNL     1     -10.556  16.352  65.047  1.00  0.00    -0.651 OA 
HETATM   29  C   UNL     1      -9.799  15.665  65.723  1.00  0.00    -0.351 C  
ENDBRANCH  20  26
ENDBRANCH  15  18
ENDBRANCH  14  15
ENDBRANCH  12  14
ENDBRANCH  10  12
ENDBRANCH   9  10
ENDBRANCH   6   9
ENDBRANCH   2   3
TORSDOF 8
ENDMDL
MODEL      305
REMARK 921   NORMALIZED FREE ENERGY PREDICTED BY IDOCK:   -3.72 KCAL/MOL
REMARK 922        TOTAL FREE ENERGY PREDICTED BY IDOCK:   -6.96 KCAL/MOL
REMARK 923 INTER-LIGAND FREE ENERGY PREDICTED BY IDOCK:   -6.91 KCAL/MOL
REMARK 924 INTRA-LIGAND FREE ENERGY PREDICTED BY IDOCK:   -0.05 KCAL/MOL
REMARK 927      BINDING AFFINITY PREDICTED BY RF-SCORE:    0.00 PKD
ROOT
HETATM    1  C   UNL     1     -10.154  19.768  68.438  1.00  0.00    -0.454 C  
HETATM    2  O   UNL     1      -9.322  18.626  68.258  1.00  0.00    -0.305 OA 
ENDROOT
BRANCH   2   3
HETATM    3  C   UNL     1      -9.943  17.549  67.691  1.00  0.00    -0.309 A  
HETATM    4  C   UNL     1     -10.740  16.787  68.544  1.00  0.00    -0.358 A  
HETATM    5  C   UNL     1     -11.384  15.640  68.073  1.00  0.00    -0.324 A  
HETATM    6  C   UNL     1     -11.262  15.261  66.730  1.00  0.00    -0.241 A  
HETATM    7  C   UNL     1      -9.848  17.198  66.346  1.00  0.00    -0.312 A  
HETATM    8  C   UNL     1     -10.500  16.060  65.869  1.00  0.00    -0.373 A  
BRANCH   6   9
HETATM    9  C   UNL     1     -11.828  13.956  66.224  1.00  0.00    -0.431 C  
BRANCH   9  10
HETATM   10  C   UNL     1     -10.839  12.767  66.140  1.00  0.00    -0.279 C  
HETATM   11  C   UNL     1      -9.476  13.159  66.721  1.00  0.00    -0.252 C  
BRANCH  10  12
HETATM   12  N   UNL     1     -11.312  11.568  66.864  1.00  0.00    -0.420 NA 
HETATM   13  H   UNL     1     -10.543  10.921  67.038  1.00  0.00     0.000 HD 
BRANCH  12  14
HETATM   14  C   UNL     1     -12.017  11.893  68.110  1.00  0.00    -0.152 C  
BRANCH  14  15
HETATM   15  C   UNL     1     -11.164  11.671  69.386  1.00  0.00    -0.246 C  
HETATM   16  H   UNL     1     -11.487  11.600  71.322  1.00  0.00     0.000 HD 
HETATM   17  O   UNL     1     -12.010  11.736  70.541  1.00  0.00    -0.356 OA 
BRANCH  15  18
HETATM   18  C   UNL     1     -10.453  10.324  69.337  1.00  0.00    -0.259 A  
HETATM   19  C   UNL     1     -10.923   9.224  70.086  1.00  0.00    -0.278 A  
HETATM   20  C   UNL     1     -10.294   7.975  70.024  1.00  0.00    -0.218 A  
HETATM   21  H   UNL     1      -7.731   6.560  68.535  1.00  0.00     0.000 HD 
HETATM   22  C   UNL     1      -9.182   7.831  69.186  1.00  0.00    -0.144 A  
HETATM   23  C   UNL     1      -9.335  10.145  68.513  1.00  0.00    -0.151 A  
HETATM   24  C   UNL     1      -8.709   8.901  68.432  1.00  0.00    -0.134 A  
HETATM   25  O   UNL     1      -8.486   6.657  69.103  1.00  0.00    -0.122 OA 
BRANCH  20  26
HETATM   26  N   UNL     1     -10.764   6.860  70.742  1.00  0.00    -0.227 N  
HETATM   27  H   UNL     1     -10.430   5.947  70.433  1.00  0.00     0.000 HD 
HETATM   28  O   UNL     1     -11.993   5.831  72.348  1.00  0.00    -0.275 OA 
HETATM   29  C   UNL     1     -11.615   6.864  71.807  1.00  0.00    -0.286 C  
ENDBRANCH  20  26
ENDBRANCH  15  18
ENDBRANCH  14  15
ENDBRANCH  12  14
ENDBRANCH  10  12
ENDBRANCH   9  10
ENDBRANCH   6   9
ENDBRANCH   2   3
TORSDOF 8
ENDMDL
MODEL      306
REMARK 921   NORMALIZED FREE ENERGY PREDICTED BY IDOCK:   -3.69 KCAL/MOL
REMARK 922        TOTAL FREE ENERGY PREDICTED BY IDOCK:   -6.92 KCAL/MOL
REMARK 923 INTER-LIGAND FREE ENERGY PREDICTED BY IDOCK:   -6.51 KCAL/MOL
REMARK 924 INTRA-LIGAND FREE ENERGY PREDICTED BY IDOCK:   -0.41 KCAL/MOL
REMARK 927      BINDING AFFINITY PREDICTED BY RF-SCORE:    0.00 PKD
ROOT
HETATM    1  C   UNL     1      -7.248   6.950  62.995  1.00  0.00    -0.068 C  
HETATM    2  O   UNL     1      -7.416   8.317  63.357  1.00  0.00    -0.106 OA 
ENDROOT
BRANCH   2   3
HETATM    3  C   UNL     1      -8.224   8.527  64.440  1.00  0.00    -0.151 A  
HETATM    4  C   UNL     1      -9.081   9.623  64.356  1.00  0.00    -0.279 A  
HETATM    5  C   UNL     1      -9.917   9.950  65.427  1.00  0.00    -0.349 A  
HETATM    6  C   UNL     1      -9.925   9.162  66.585  1.00  0.00    -0.343 A  
HETATM    7  C   UNL     1      -8.253   7.718  65.574  1.00  0.00    -0.137 A  
HETATM    8  C   UNL     1      -9.096   8.035  66.641  1.00  0.00    -0.199 A  
BRANCH   6   9
HETATM    9  C   UNL     1     -10.709   9.567  67.809  1.00  0.00    -0.302 C  
BRANCH   9  10
HETATM   10  C   UNL     1     -10.111  10.716  68.657  1.00  0.00    -0.183 C  
HETATM   11  C   UNL     1      -8.612  10.493  68.884  1.00  0.00    -0.153 C  
BRANCH  10  12
HETATM   12  N   UNL     1     -10.281  12.046  68.032  1.00  0.00    -0.192 NA 
HETATM   13  H   UNL     1      -9.919  12.050  67.079  1.00  0.00     0.000 HD 
BRANCH  12  14
HETATM   14  C   UNL     1     -11.669  12.522  68.069  1.00  0.00    -0.355 C  
BRANCH  14  15
HETATM   15  C   UNL     1     -11.819  13.968  68.612  1.00  0.00    -0.361 C  
HETATM   16  H   UNL     1     -11.562  14.877  70.335  1.00  0.00     0.000 HD 
HETATM   17  O   UNL     1     -11.470  13.991  70.002  1.00  0.00    -0.243 OA 
BRANCH  15  18
HETATM   18  C   UNL     1     -10.931  14.934  67.837  1.00  0.00    -0.288 A  
HETATM   19  C   UNL     1      -9.960  15.720  68.494  1.00  0.00    -0.208 A  
HETATM   20  C   UNL     1      -9.120  16.586  67.786  1.00  0.00    -0.204 A  
HETATM   21  H   UNL     1      -8.596  17.556  64.692  1.00  0.00     0.000 HD 
HETATM   22  C   UNL     1      -9.255  16.656  66.394  1.00  0.00    -0.287 A  
HETATM   23  C   UNL     1     -11.041  15.031  66.444  1.00  0.00    -0.329 A  
HETATM   24  C   UNL     1     -10.200  15.882  65.726  1.00  0.00    -0.389 A  
HETATM   25  O   UNL     1      -8.504  17.509  65.636  1.00  0.00    -0.451 OA 
BRANCH  20  26
HETATM   26  N   UNL     1      -8.128  17.358  68.420  1.00  0.00    -0.255 N  
HETATM   27  H   UNL     1      -7.390  16.842  68.900  1.00  0.00     0.000 HD 
HETATM   28  O   UNL     1      -7.154  19.300  69.074  1.00  0.00    -0.333 OA 
HETATM   29  C   UNL     1      -8.044  18.717  68.464  1.00  0.00    -0.341 C  
ENDBRANCH  20  26
ENDBRANCH  15  18
ENDBRANCH  14  15
ENDBRANCH  12  14
ENDBRANCH  10  12
ENDBRANCH   9  10
ENDBRANCH   6   9
ENDBRANCH   2   3
TORSDOF 8
ENDMDL
MODEL      307
REMARK 921   NORMALIZED FREE ENERGY PREDICTED BY IDOCK:   -3.69 KCAL/MOL
REMARK 922        TOTAL FREE ENERGY PREDICTED BY IDOCK:   -6.91 KCAL/MOL
REMARK 923 INTER-LIGAND FREE ENERGY PREDICTED BY IDOCK:   -6.29 KCAL/MOL
REMARK 924 INTRA-LIGAND FREE ENERGY PREDICTED BY IDOCK:   -0.63 KCAL/MOL
REMARK 927      BINDING AFFINITY PREDICTED BY RF-SCORE:    0.00 PKD
ROOT
HETATM    1  C   UNL     1     -10.111  18.320  66.328  1.00  0.00    -0.380 C  
HETATM    2  O   UNL     1     -10.203  17.231  65.414  1.00  0.00    -0.604 OA 
ENDROOT
BRANCH   2   3
HETATM    3  C   UNL     1      -9.911  16.008  65.951  1.00  0.00    -0.348 A  
HETATM    4  C   UNL     1     -10.726  14.953  65.542  1.00  0.00    -0.369 A  
HETATM    5  C   UNL     1     -10.539  13.672  66.065  1.00  0.00    -0.290 A  
HETATM    6  C   UNL     1      -9.510  13.425  66.983  1.00  0.00    -0.247 A  
HETATM    7  C   UNL     1      -8.864  15.761  66.836  1.00  0.00    -0.273 A  
HETATM    8  C   UNL     1      -8.666  14.479  67.351  1.00  0.00    -0.210 A  
BRANCH   6   9
HETATM    9  C   UNL     1      -9.371  12.088  67.671  1.00  0.00    -0.185 C  
BRANCH   9  10
HETATM   10  C   UNL     1     -10.007  10.876  66.948  1.00  0.00    -0.194 C  
HETATM   11  C   UNL     1      -9.162  10.468  65.737  1.00  0.00    -0.215 C  
BRANCH  10  12
HETATM   12  N   UNL     1     -10.151   9.690  67.821  1.00  0.00    -0.175 NA 
HETATM   13  H   UNL     1      -9.871   8.841  67.330  1.00  0.00     0.000 HD 
BRANCH  12  14
HETATM   14  C   UNL     1      -9.427   9.825  69.092  1.00  0.00    -0.188 C  
BRANCH  14  15
HETATM   15  C   UNL     1      -8.653   8.547  69.507  1.00  0.00    -0.131 C  
HETATM   16  H   UNL     1      -7.034   8.134  70.539  1.00  0.00     0.000 HD 
HETATM   17  O   UNL     1      -7.507   8.917  70.285  1.00  0.00    -0.059 OA 
BRANCH  15  18
HETATM   18  C   UNL     1      -9.546   7.608  70.310  1.00  0.00    -0.172 A  
HETATM   19  C   UNL     1     -10.550   8.109  71.165  1.00  0.00    -0.242 A  
HETATM   20  C   UNL     1     -11.393   7.253  71.882  1.00  0.00    -0.254 A  
HETATM   21  H   UNL     1     -11.869   4.032  72.321  1.00  0.00     0.000 HD 
HETATM   22  C   UNL     1     -11.227   5.872  71.728  1.00  0.00    -0.250 A  
HETATM   23  C   UNL     1      -9.405   6.220  70.181  1.00  0.00    -0.165 A  
HETATM   24  C   UNL     1     -10.250   5.357  70.881  1.00  0.00    -0.303 A  
HETATM   25  O   UNL     1     -11.981   4.970  72.425  1.00  0.00     0.161 OA 
BRANCH  20  26
HETATM   26  N   UNL     1     -12.417   7.734  72.720  1.00  0.00    -0.521 N  
HETATM   27  H   UNL     1     -12.415   7.393  73.681  1.00  0.00     0.000 HD 
HETATM   28  O   UNL     1     -14.282   8.940  73.184  1.00  0.00    -0.330 OA 
HETATM   29  C   UNL     1     -13.412   8.605  72.388  1.00  0.00    -0.340 C  
ENDBRANCH  20  26
ENDBRANCH  15  18
ENDBRANCH  14  15
ENDBRANCH  12  14
ENDBRANCH  10  12
ENDBRANCH   9  10
ENDBRANCH   6   9
ENDBRANCH   2   3
TORSDOF 8
ENDMDL
MODEL      308
REMARK 921   NORMALIZED FREE ENERGY PREDICTED BY IDOCK:   -3.69 KCAL/MOL
REMARK 922        TOTAL FREE ENERGY PREDICTED BY IDOCK:   -6.91 KCAL/MOL
REMARK 923 INTER-LIGAND FREE ENERGY PREDICTED BY IDOCK:   -5.86 KCAL/MOL
REMARK 924 INTRA-LIGAND FREE ENERGY PREDICTED BY IDOCK:   -1.05 KCAL/MOL
REMARK 927      BINDING AFFINITY PREDICTED BY RF-SCORE:    0.00 PKD
ROOT
HETATM    1  C   UNL     1      -8.698  10.860  62.381  1.00  0.00    -0.309 C  
HETATM    2  O   UNL     1      -7.806   9.807  62.735  1.00  0.00    -0.120 OA 
ENDROOT
BRANCH   2   3
HETATM    3  C   UNL     1      -7.329   9.868  64.015  1.00  0.00    -0.132 A  
HETATM    4  C   UNL     1      -8.054   9.154  64.968  1.00  0.00    -0.130 A  
HETATM    5  C   UNL     1      -7.676   9.187  66.313  1.00  0.00    -0.096 A  
HETATM    6  C   UNL     1      -6.545   9.911  66.713  1.00  0.00    -0.071 A  
HETATM    7  C   UNL     1      -6.184  10.560  64.401  1.00  0.00     0.003 A  
HETATM    8  C   UNL     1      -5.796  10.585  65.741  1.00  0.00    -0.126 A  
BRANCH   6   9
HETATM    9  C   UNL     1      -6.192  10.081  68.171  1.00  0.00    -0.053 C  
BRANCH   9  10
HETATM   10  C   UNL     1      -7.314  10.626  69.089  1.00  0.00    -0.111 C  
HETATM   11  C   UNL     1      -7.300   9.906  70.441  1.00  0.00    -0.139 C  
BRANCH  10  12
HETATM   12  N   UNL     1      -7.198  12.077  69.347  1.00  0.00    -0.332 NA 
HETATM   13  H   UNL     1      -6.231  12.336  69.541  1.00  0.00     0.000 HD 
BRANCH  12  14
HETATM   14  C   UNL     1      -7.754  12.897  68.263  1.00  0.00    -0.137 C  
BRANCH  14  15
HETATM   15  C   UNL     1      -9.100  12.364  67.706  1.00  0.00    -0.193 C  
HETATM   16  H   UNL     1     -10.846  11.851  68.447  1.00  0.00     0.000 HD 
HETATM   17  O   UNL     1     -10.022  12.178  68.788  1.00  0.00    -0.165 OA 
BRANCH  15  18
HETATM   18  C   UNL     1      -9.687  13.330  66.684  1.00  0.00    -0.270 A  
HETATM   19  C   UNL     1     -10.579  12.883  65.686  1.00  0.00    -0.295 A  
HETATM   20  C   UNL     1     -11.146  13.769  64.763  1.00  0.00    -0.377 A  
HETATM   21  H   UNL     1     -11.068  16.969  64.024  1.00  0.00     0.000 HD 
HETATM   22  C   UNL     1     -10.816  15.126  64.853  1.00  0.00    -0.418 A  
HETATM   23  C   UNL     1      -9.376  14.694  66.743  1.00  0.00    -0.275 A  
HETATM   24  C   UNL     1      -9.946  15.589  65.836  1.00  0.00    -0.377 A  
HETATM   25  O   UNL     1     -11.292  16.048  63.963  1.00  0.00    -0.542 OA 
BRANCH  20  26
HETATM   26  N   UNL     1     -12.058  13.346  63.777  1.00  0.00    -0.668 N  
HETATM   27  H   UNL     1     -12.324  14.040  63.079  1.00  0.00     0.000 HD 
HETATM   28  O   UNL     1     -13.438  11.851  62.775  1.00  0.00    -0.027 OA 
HETATM   29  C   UNL     1     -12.625  12.113  63.654  1.00  0.00    -0.504 C  
ENDBRANCH  20  26
ENDBRANCH  15  18
ENDBRANCH  14  15
ENDBRANCH  12  14
ENDBRANCH  10  12
ENDBRANCH   9  10
ENDBRANCH   6   9
ENDBRANCH   2   3
TORSDOF 8
ENDMDL
MODEL      309
REMARK 921   NORMALIZED FREE ENERGY PREDICTED BY IDOCK:   -3.67 KCAL/MOL
REMARK 922        TOTAL FREE ENERGY PREDICTED BY IDOCK:   -6.89 KCAL/MOL
REMARK 923 INTER-LIGAND FREE ENERGY PREDICTED BY IDOCK:   -6.12 KCAL/MOL
REMARK 924 INTRA-LIGAND FREE ENERGY PREDICTED BY IDOCK:   -0.77 KCAL/MOL
REMARK 927      BINDING AFFINITY PREDICTED BY RF-SCORE:    0.00 PKD
ROOT
HETATM    1  C   UNL     1      -8.482   6.942  65.155  1.00  0.00    -0.021 C  
HETATM    2  O   UNL     1      -8.143   7.840  64.103  1.00  0.00    -0.132 OA 
ENDROOT
BRANCH   2   3
HETATM    3  C   UNL     1      -8.775   9.051  64.159  1.00  0.00    -0.096 A  
HETATM    4  C   UNL     1      -8.731   9.815  62.993  1.00  0.00    -0.228 A  
HETATM    5  C   UNL     1      -9.308  11.087  62.960  1.00  0.00    -0.363 A  
HETATM    6  C   UNL     1      -9.965  11.596  64.088  1.00  0.00    -0.311 A  
HETATM    7  C   UNL     1      -9.457   9.537  65.272  1.00  0.00    -0.326 A  
HETATM    8  C   UNL     1     -10.046  10.802  65.238  1.00  0.00    -0.353 A  
BRANCH   6   9
HETATM    9  C   UNL     1     -10.474  13.016  64.130  1.00  0.00    -0.395 C  
BRANCH   9  10
HETATM   10  C   UNL     1     -11.983  13.212  63.842  1.00  0.00    -0.488 C  
HETATM   11  C   UNL     1     -12.615  11.898  63.368  1.00  0.00    -0.555 C  
BRANCH  10  12
HETATM   12  N   UNL     1     -12.743  13.679  65.022  1.00  0.00    -0.681 NA 
HETATM   13  H   UNL     1     -13.706  13.346  64.991  1.00  0.00     0.000 HD 
BRANCH  12  14
HETATM   14  C   UNL     1     -12.103  13.318  66.294  1.00  0.00    -0.414 C  
BRANCH  14  15
HETATM   15  C   UNL     1     -11.653  14.541  67.134  1.00  0.00    -0.388 C  
HETATM   16  H   UNL     1     -12.339  15.535  68.684  1.00  0.00     0.000 HD 
HETATM   17  O   UNL     1     -12.615  14.786  68.169  1.00  0.00     0.170 OA 
BRANCH  15  18
HETATM   18  C   UNL     1     -10.279  14.303  67.749  1.00  0.00    -0.235 A  
HETATM   19  C   UNL     1      -9.574  13.102  67.518  1.00  0.00    -0.208 A  
HETATM   20  C   UNL     1      -8.299  12.889  68.053  1.00  0.00    -0.169 A  
HETATM   21  H   UNL     1      -6.108  14.446  69.941  1.00  0.00     0.000 HD 
HETATM   22  C   UNL     1      -7.722  13.904  68.824  1.00  0.00    -0.096 A  
HETATM   23  C   UNL     1      -9.673  15.297  68.528  1.00  0.00    -0.211 A  
HETATM   24  C   UNL     1      -8.396  15.100  69.055  1.00  0.00    -0.209 A  
HETATM   25  O   UNL     1      -6.500  13.756  69.418  1.00  0.00    -0.106 OA 
BRANCH  20  26
HETATM   26  N   UNL     1      -7.570  11.709  67.812  1.00  0.00    -0.113 N  
HETATM   27  H   UNL     1      -7.845  10.888  68.351  1.00  0.00     0.000 HD 
HETATM   28  O   UNL     1      -5.941  10.477  66.824  1.00  0.00    -0.055 OA 
HETATM   29  C   UNL     1      -6.538  11.542  66.939  1.00  0.00    -0.138 C  
ENDBRANCH  20  26
ENDBRANCH  15  18
ENDBRANCH  14  15
ENDBRANCH  12  14
ENDBRANCH  10  12
ENDBRANCH   9  10
ENDBRANCH   6   9
ENDBRANCH   2   3
TORSDOF 8
ENDMDL
MODEL      310
REMARK 921   NORMALIZED FREE ENERGY PREDICTED BY IDOCK:   -3.67 KCAL/MOL
REMARK 922        TOTAL FREE ENERGY PREDICTED BY IDOCK:   -6.88 KCAL/MOL
REMARK 923 INTER-LIGAND FREE ENERGY PREDICTED BY IDOCK:   -5.91 KCAL/MOL
REMARK 924 INTRA-LIGAND FREE ENERGY PREDICTED BY IDOCK:   -0.97 KCAL/MOL
REMARK 927      BINDING AFFINITY PREDICTED BY RF-SCORE:    0.00 PKD
ROOT
HETATM    1  C   UNL     1     -10.581  17.255  65.425  1.00  0.00    -0.072 C  
HETATM    2  O   UNL     1     -10.936  16.239  64.491  1.00  0.00    -0.687 OA 
ENDROOT
BRANCH   2   3
HETATM    3  C   UNL     1     -11.107  14.997  65.035  1.00  0.00    -0.413 A  
HETATM    4  C   UNL     1     -10.020  14.488  65.745  1.00  0.00    -0.361 A  
HETATM    5  C   UNL     1     -10.077  13.209  66.303  1.00  0.00    -0.285 A  
HETATM    6  C   UNL     1     -11.238  12.435  66.182  1.00  0.00    -0.364 A  
HETATM    7  C   UNL     1     -12.277  14.246  64.942  1.00  0.00    -0.449 A  
HETATM    8  C   UNL     1     -12.341  12.972  65.509  1.00  0.00    -0.527 A  
BRANCH   6   9
HETATM    9  C   UNL     1     -11.282  11.000  66.650  1.00  0.00    -0.124 C  
BRANCH   9  10
HETATM   10  C   UNL     1     -11.061  10.766  68.165  1.00  0.00    -0.280 C  
HETATM   11  C   UNL     1     -11.962  11.693  68.988  1.00  0.00    -0.368 C  
BRANCH  10  12
HETATM   12  N   UNL     1     -11.339   9.375  68.583  1.00  0.00    -0.398 NA 
HETATM   13  H   UNL     1     -10.963   8.710  67.908  1.00  0.00     0.000 HD 
BRANCH  12  14
HETATM   14  C   UNL     1     -10.856   9.079  69.938  1.00  0.00    -0.218 C  
BRANCH  14  15
HETATM   15  C   UNL     1      -9.366   9.447  70.163  1.00  0.00    -0.241 C  
HETATM   16  H   UNL     1      -8.100   9.411  71.665  1.00  0.00     0.000 HD 
HETATM   17  O   UNL     1      -9.012   9.185  71.527  1.00  0.00    -0.319 OA 
BRANCH  15  18
HETATM   18  C   UNL     1      -8.462   8.651  69.230  1.00  0.00    -0.123 A  
HETATM   19  C   UNL     1      -7.656   9.297  68.268  1.00  0.00    -0.083 A  
HETATM   20  C   UNL     1      -6.800   8.576  67.428  1.00  0.00    -0.067 A  
HETATM   21  H   UNL     1      -5.938   5.459  66.849  1.00  0.00     0.000 HD 
HETATM   22  C   UNL     1      -6.749   7.184  67.566  1.00  0.00    -0.064 A  
HETATM   23  C   UNL     1      -8.388   7.257  69.338  1.00  0.00    -0.133 A  
HETATM   24  C   UNL     1      -7.529   6.528  68.515  1.00  0.00    -0.088 A  
HETATM   25  O   UNL     1      -5.973   6.404  66.756  1.00  0.00    -0.023 OA 
BRANCH  20  26
HETATM   26  N   UNL     1      -5.969   9.204  66.482  1.00  0.00    -0.058 N  
HETATM   27  H   UNL     1      -5.000   9.358  66.760  1.00  0.00     0.000 HD 
HETATM   28  O   UNL     1      -5.524  10.199  64.491  1.00  0.00    -0.087 OA 
HETATM   29  C   UNL     1      -6.316   9.629  65.234  1.00  0.00    -0.081 C  
ENDBRANCH  20  26
ENDBRANCH  15  18
ENDBRANCH  14  15
ENDBRANCH  12  14
ENDBRANCH  10  12
ENDBRANCH   9  10
ENDBRANCH   6   9
ENDBRANCH   2   3
TORSDOF 8
ENDMDL
MODEL      311
REMARK 921   NORMALIZED FREE ENERGY PREDICTED BY IDOCK:   -3.66 KCAL/MOL
REMARK 922        TOTAL FREE ENERGY PREDICTED BY IDOCK:   -6.87 KCAL/MOL
REMARK 923 INTER-LIGAND FREE ENERGY PREDICTED BY IDOCK:   -6.25 KCAL/MOL
REMARK 924 INTRA-LIGAND FREE ENERGY PREDICTED BY IDOCK:   -0.63 KCAL/MOL
REMARK 927      BINDING AFFINITY PREDICTED BY RF-SCORE:    0.00 PKD
ROOT
HETATM    1  C   UNL     1      -7.357   7.299  64.362  1.00  0.00    -0.085 C  
HETATM    2  O   UNL     1      -6.270   7.685  65.197  1.00  0.00    -0.038 OA 
ENDROOT
BRANCH   2   3
HETATM    3  C   UNL     1      -6.508   8.784  65.975  1.00  0.00    -0.057 A  
HETATM    4  C   UNL     1      -5.696   8.920  67.100  1.00  0.00    -0.046 A  
HETATM    5  C   UNL     1      -5.887   9.985  67.984  1.00  0.00    -0.038 A  
HETATM    6  C   UNL     1      -6.876  10.945  67.733  1.00  0.00    -0.072 A  
HETATM    7  C   UNL     1      -7.468   9.755  65.700  1.00  0.00    -0.110 A  
HETATM    8  C   UNL     1      -7.653  10.827  66.575  1.00  0.00    -0.139 A  
BRANCH   6   9
HETATM    9  C   UNL     1      -7.200  12.025  68.737  1.00  0.00    -0.108 C  
BRANCH   9  10
HETATM   10  C   UNL     1      -6.470  13.378  68.547  1.00  0.00    -0.086 C  
HETATM   11  C   UNL     1      -5.280  13.218  67.596  1.00  0.00    -0.026 C  
BRANCH  10  12
HETATM   12  N   UNL     1      -7.346  14.437  68.002  1.00  0.00    -0.127 NA 
HETATM   13  H   UNL     1      -7.868  14.099  67.194  1.00  0.00     0.000 HD 
BRANCH  12  14
HETATM   14  C   UNL     1      -8.250  15.006  69.010  1.00  0.00    -0.187 C  
BRANCH  14  15
HETATM   15  C   UNL     1      -9.739  14.628  68.796  1.00  0.00    -0.217 C  
HETATM   16  H   UNL     1     -11.444  14.976  69.710  1.00  0.00     0.000 HD 
HETATM   17  O   UNL     1     -10.532  15.208  69.841  1.00  0.00    -0.255 OA 
BRANCH  15  18
HETATM   18  C   UNL     1     -10.234  15.114  67.439  1.00  0.00    -0.235 A  
HETATM   19  C   UNL     1     -11.073  14.310  66.638  1.00  0.00    -0.321 A  
HETATM   20  C   UNL     1     -11.557  14.760  65.405  1.00  0.00    -0.316 A  
HETATM   21  H   UNL     1     -11.346  17.411  63.476  1.00  0.00     0.000 HD 
HETATM   22  C   UNL     1     -11.196  16.044  64.977  1.00  0.00    -0.261 A  
HETATM   23  C   UNL     1      -9.890  16.391  66.979  1.00  0.00    -0.253 A  
HETATM   24  C   UNL     1     -10.378  16.856  65.756  1.00  0.00    -0.298 A  
HETATM   25  O   UNL     1     -11.590  16.540  63.766  1.00  0.00    -1.109 OA 
BRANCH  20  26
HETATM   26  N   UNL     1     -12.415  13.984  64.604  1.00  0.00    -0.628 N  
HETATM   27  H   UNL     1     -13.284  14.429  64.307  1.00  0.00     0.000 HD 
HETATM   28  O   UNL     1     -13.042  12.097  63.511  1.00  0.00    -0.785 OA 
HETATM   29  C   UNL     1     -12.215  12.704  64.182  1.00  0.00    -0.450 C  
ENDBRANCH  20  26
ENDBRANCH  15  18
ENDBRANCH  14  15
ENDBRANCH  12  14
ENDBRANCH  10  12
ENDBRANCH   9  10
ENDBRANCH   6   9
ENDBRANCH   2   3
TORSDOF 8
ENDMDL
MODEL      312
REMARK 921   NORMALIZED FREE ENERGY PREDICTED BY IDOCK:   -3.65 KCAL/MOL
REMARK 922        TOTAL FREE ENERGY PREDICTED BY IDOCK:   -6.85 KCAL/MOL
REMARK 923 INTER-LIGAND FREE ENERGY PREDICTED BY IDOCK:   -6.00 KCAL/MOL
REMARK 924 INTRA-LIGAND FREE ENERGY PREDICTED BY IDOCK:   -0.85 KCAL/MOL
REMARK 927      BINDING AFFINITY PREDICTED BY RF-SCORE:    0.00 PKD
ROOT
HETATM    1  C   UNL     1     -10.583  19.759  65.954  1.00  0.00    -0.453 C  
HETATM    2  O   UNL     1      -9.540  18.792  65.867  1.00  0.00    -0.476 OA 
ENDROOT
BRANCH   2   3
HETATM    3  C   UNL     1      -9.804  17.608  66.497  1.00  0.00    -0.319 A  
HETATM    4  C   UNL     1      -9.716  17.625  67.888  1.00  0.00    -0.295 A  
HETATM    5  C   UNL     1      -9.925  16.456  68.624  1.00  0.00    -0.235 A  
HETATM    6  C   UNL     1     -10.256  15.261  67.975  1.00  0.00    -0.230 A  
HETATM    7  C   UNL     1     -10.169  16.430  65.848  1.00  0.00    -0.379 A  
HETATM    8  C   UNL     1     -10.390  15.263  66.581  1.00  0.00    -0.281 A  
BRANCH   6   9
HETATM    9  C   UNL     1     -10.349  13.954  68.726  1.00  0.00    -0.210 C  
BRANCH   9  10
HETATM   10  C   UNL     1      -9.742  12.715  68.024  1.00  0.00    -0.215 C  
HETATM   11  C   UNL     1      -8.266  12.551  68.403  1.00  0.00    -0.136 C  
BRANCH  10  12
HETATM   12  N   UNL     1     -10.439  11.456  68.364  1.00  0.00    -0.192 NA 
HETATM   13  H   UNL     1     -11.176  11.622  69.049  1.00  0.00     0.000 HD 
BRANCH  12  14
HETATM   14  C   UNL     1     -10.965  10.757  67.185  1.00  0.00    -0.260 C  
BRANCH  14  15
HETATM   15  C   UNL     1     -10.152   9.495  66.795  1.00  0.00    -0.245 C  
HETATM   16  H   UNL     1      -8.515   9.112  65.779  1.00  0.00     0.000 HD 
HETATM   17  O   UNL     1      -9.012   9.885  66.018  1.00  0.00    -0.141 OA 
BRANCH  15  18
HETATM   18  C   UNL     1      -9.700   8.734  68.035  1.00  0.00    -0.183 A  
HETATM   19  C   UNL     1     -10.637   8.163  68.924  1.00  0.00    -0.161 A  
HETATM   20  C   UNL     1     -10.229   7.437  70.048  1.00  0.00    -0.209 A  
HETATM   21  H   UNL     1      -7.447   6.510  71.528  1.00  0.00     0.000 HD 
HETATM   22  C   UNL     1      -8.857   7.277  70.275  1.00  0.00    -0.147 A  
HETATM   23  C   UNL     1      -8.335   8.557  68.295  1.00  0.00    -0.124 A  
HETATM   24  C   UNL     1      -7.917   7.823  69.406  1.00  0.00    -0.124 A  
HETATM   25  O   UNL     1      -8.378   6.619  71.374  1.00  0.00    -0.119 OA 
BRANCH  20  26
HETATM   26  N   UNL     1     -11.148   6.839  70.930  1.00  0.00    -0.262 N  
HETATM   27  H   UNL     1     -10.877   5.937  71.324  1.00  0.00     0.000 HD 
HETATM   28  O   UNL     1     -13.106   6.715  72.069  1.00  0.00    -0.241 OA 
HETATM   29  C   UNL     1     -12.358   7.330  71.317  1.00  0.00    -0.366 C  
ENDBRANCH  20  26
ENDBRANCH  15  18
ENDBRANCH  14  15
ENDBRANCH  12  14
ENDBRANCH  10  12
ENDBRANCH   9  10
ENDBRANCH   6   9
ENDBRANCH   2   3
TORSDOF 8
ENDMDL
MODEL      313
REMARK 921   NORMALIZED FREE ENERGY PREDICTED BY IDOCK:   -3.65 KCAL/MOL
REMARK 922        TOTAL FREE ENERGY PREDICTED BY IDOCK:   -6.85 KCAL/MOL
REMARK 923 INTER-LIGAND FREE ENERGY PREDICTED BY IDOCK:   -5.55 KCAL/MOL
REMARK 924 INTRA-LIGAND FREE ENERGY PREDICTED BY IDOCK:   -1.29 KCAL/MOL
REMARK 927      BINDING AFFINITY PREDICTED BY RF-SCORE:    0.00 PKD
ROOT
HETATM    1  C   UNL     1     -12.577  14.151  65.782  1.00  0.00    -0.447 C  
HETATM    2  O   UNL     1     -12.260  13.580  67.048  1.00  0.00    -0.372 OA 
ENDROOT
BRANCH   2   3
HETATM    3  C   UNL     1     -11.618  12.374  66.988  1.00  0.00    -0.365 A  
HETATM    4  C   UNL     1     -11.120  12.012  65.737  1.00  0.00    -0.371 A  
HETATM    5  C   UNL     1     -10.486  10.780  65.558  1.00  0.00    -0.264 A  
HETATM    6  C   UNL     1     -10.316   9.909  66.642  1.00  0.00    -0.275 A  
HETATM    7  C   UNL     1     -11.419  11.528  68.076  1.00  0.00    -0.381 A  
HETATM    8  C   UNL     1     -10.775  10.302  67.904  1.00  0.00    -0.310 A  
BRANCH   6   9
HETATM    9  C   UNL     1      -9.763   8.516  66.454  1.00  0.00    -0.328 C  
BRANCH   9  10
HETATM   10  C   UNL     1      -8.353   8.418  65.822  1.00  0.00    -0.146 C  
HETATM   11  C   UNL     1      -7.290   8.935  66.797  1.00  0.00    -0.082 C  
BRANCH  10  12
HETATM   12  N   UNL     1      -7.984   7.038  65.439  1.00  0.00    -0.122 NA 
HETATM   13  H   UNL     1      -7.027   6.825  65.721  1.00  0.00     0.000 HD 
BRANCH  12  14
HETATM   14  C   UNL     1      -8.920   6.032  65.957  1.00  0.00    -0.147 C  
BRANCH  14  15
HETATM   15  C   UNL     1      -8.232   4.892  66.753  1.00  0.00    -0.107 C  
HETATM   16  H   UNL     1      -6.388   4.361  67.176  1.00  0.00     0.000 HD 
HETATM   17  O   UNL     1      -6.809   5.059  66.688  1.00  0.00    -0.059 OA 
BRANCH  15  18
HETATM   18  C   UNL     1      -8.689   4.892  68.207  1.00  0.00    -0.109 A  
HETATM   19  C   UNL     1      -8.542   6.038  69.018  1.00  0.00    -0.120 A  
HETATM   20  C   UNL     1      -8.987   6.056  70.345  1.00  0.00    -0.149 A  
HETATM   21  H   UNL     1     -10.433   4.047  72.504  1.00  0.00     0.000 HD 
HETATM   22  C   UNL     1      -9.597   4.906  70.858  1.00  0.00    -0.176 A  
HETATM   23  C   UNL     1      -9.301   3.758  68.754  1.00  0.00    -0.230 A  
HETATM   24  C   UNL     1      -9.761   3.769  70.072  1.00  0.00    -0.211 A  
HETATM   25  O   UNL     1     -10.019   4.828  72.156  1.00  0.00    -0.165 OA 
BRANCH  20  26
HETATM   26  N   UNL     1      -8.873   7.197  71.161  1.00  0.00    -0.143 N  
HETATM   27  H   UNL     1      -8.055   7.240  71.768  1.00  0.00     0.000 HD 
HETATM   28  O   UNL     1      -9.564   9.188  72.001  1.00  0.00    -0.300 OA 
HETATM   29  C   UNL     1      -9.734   8.251  71.229  1.00  0.00    -0.176 C  
ENDBRANCH  20  26
ENDBRANCH  15  18
ENDBRANCH  14  15
ENDBRANCH  12  14
ENDBRANCH  10  12
ENDBRANCH   9  10
ENDBRANCH   6   9
ENDBRANCH   2   3
TORSDOF 8
ENDMDL
MODEL      314
REMARK 921   NORMALIZED FREE ENERGY PREDICTED BY IDOCK:   -3.64 KCAL/MOL
REMARK 922        TOTAL FREE ENERGY PREDICTED BY IDOCK:   -6.84 KCAL/MOL
REMARK 923 INTER-LIGAND FREE ENERGY PREDICTED BY IDOCK:   -7.11 KCAL/MOL
REMARK 924 INTRA-LIGAND FREE ENERGY PREDICTED BY IDOCK:    0.27 KCAL/MOL
REMARK 927      BINDING AFFINITY PREDICTED BY RF-SCORE:    0.00 PKD
ROOT
HETATM    1  C   UNL     1      -6.861   7.521  64.313  1.00  0.00    -0.052 C  
HETATM    2  O   UNL     1      -7.895   7.879  63.400  1.00  0.00    -0.133 OA 
ENDROOT
BRANCH   2   3
HETATM    3  C   UNL     1      -8.516   9.066  63.677  1.00  0.00    -0.167 A  
HETATM    4  C   UNL     1      -8.863   9.843  62.573  1.00  0.00    -0.255 A  
HETATM    5  C   UNL     1      -9.462  11.093  62.749  1.00  0.00    -0.357 A  
HETATM    6  C   UNL     1      -9.749  11.565  64.036  1.00  0.00    -0.248 A  
HETATM    7  C   UNL     1      -8.832   9.514  64.958  1.00  0.00    -0.232 A  
HETATM    8  C   UNL     1      -9.442  10.757  65.137  1.00  0.00    -0.271 A  
BRANCH   6   9
HETATM    9  C   UNL     1     -10.265  12.965  64.266  1.00  0.00    -0.337 C  
BRANCH   9  10
HETATM   10  C   UNL     1     -11.804  13.126  64.332  1.00  0.00    -0.388 C  
HETATM   11  C   UNL     1     -12.498  11.931  63.669  1.00  0.00    -0.583 C  
BRANCH  10  12
HETATM   12  N   UNL     1     -12.316  13.236  65.715  1.00  0.00    -0.451 NA 
HETATM   13  H   UNL     1     -13.329  13.120  65.739  1.00  0.00     0.000 HD 
BRANCH  12  14
HETATM   14  C   UNL     1     -11.658  12.308  66.644  1.00  0.00    -0.375 C  
BRANCH  14  15
HETATM   15  C   UNL     1     -12.030  12.547  68.131  1.00  0.00    -0.219 C  
HETATM   16  H   UNL     1     -11.622  11.699  69.856  1.00  0.00     0.000 HD 
HETATM   17  O   UNL     1     -11.394  11.553  68.945  1.00  0.00    -0.219 OA 
BRANCH  15  18
HETATM   18  C   UNL     1     -11.603  13.939  68.582  1.00  0.00    -0.363 A  
HETATM   19  C   UNL     1     -10.819  14.767  67.750  1.00  0.00    -0.278 A  
HETATM   20  C   UNL     1     -10.449  16.057  68.144  1.00  0.00    -0.269 A  
HETATM   21  H   UNL     1     -10.824  18.071  70.712  1.00  0.00     0.000 HD 
HETATM   22  C   UNL     1     -10.883  16.523  69.390  1.00  0.00    -0.311 A  
HETATM   23  C   UNL     1     -12.018  14.436  69.823  1.00  0.00    -0.385 A  
HETATM   24  C   UNL     1     -11.666  15.727  70.221  1.00  0.00    -0.373 A  
HETATM   25  O   UNL     1     -10.529  17.755  69.866  1.00  0.00     0.217 OA 
BRANCH  20  26
HETATM   26  N   UNL     1      -9.689  16.907  67.318  1.00  0.00    -0.246 N  
HETATM   27  H   UNL     1      -9.834  17.909  67.443  1.00  0.00     0.000 HD 
HETATM   28  O   UNL     1      -8.191  17.358  65.674  1.00  0.00    -0.491 OA 
HETATM   29  C   UNL     1      -8.782  16.539  66.370  1.00  0.00    -0.322 C  
ENDBRANCH  20  26
ENDBRANCH  15  18
ENDBRANCH  14  15
ENDBRANCH  12  14
ENDBRANCH  10  12
ENDBRANCH   9  10
ENDBRANCH   6   9
ENDBRANCH   2   3
TORSDOF 8
ENDMDL
MODEL      315
REMARK 921   NORMALIZED FREE ENERGY PREDICTED BY IDOCK:   -3.62 KCAL/MOL
REMARK 922        TOTAL FREE ENERGY PREDICTED BY IDOCK:   -6.81 KCAL/MOL
REMARK 923 INTER-LIGAND FREE ENERGY PREDICTED BY IDOCK:   -5.46 KCAL/MOL
REMARK 924 INTRA-LIGAND FREE ENERGY PREDICTED BY IDOCK:   -1.35 KCAL/MOL
REMARK 927      BINDING AFFINITY PREDICTED BY RF-SCORE:    0.00 PKD
ROOT
HETATM    1  C   UNL     1      -5.837  10.931  70.457  1.00  0.00    -0.130 C  
HETATM    2  O   UNL     1      -5.985   9.537  70.200  1.00  0.00    -0.041 OA 
ENDROOT
BRANCH   2   3
HETATM    3  C   UNL     1      -6.801   9.234  69.146  1.00  0.00    -0.050 A  
HETATM    4  C   UNL     1      -6.162   9.004  67.928  1.00  0.00    -0.051 A  
HETATM    5  C   UNL     1      -6.908   8.731  66.779  1.00  0.00    -0.069 A  
HETATM    6  C   UNL     1      -8.305   8.652  66.844  1.00  0.00    -0.108 A  
HETATM    7  C   UNL     1      -8.187   9.122  69.224  1.00  0.00    -0.118 A  
HETATM    8  C   UNL     1      -8.935   8.835  68.080  1.00  0.00    -0.141 A  
BRANCH   6   9
HETATM    9  C   UNL     1      -9.145   8.497  65.599  1.00  0.00    -0.189 C  
BRANCH   9  10
HETATM   10  C   UNL     1      -8.579   9.136  64.307  1.00  0.00    -0.175 C  
HETATM   11  C   UNL     1      -8.193   8.051  63.296  1.00  0.00    -0.048 C  
BRANCH  10  12
HETATM   12  N   UNL     1      -9.534  10.051  63.646  1.00  0.00    -0.352 NA 
HETATM   13  H   UNL     1     -10.496   9.750  63.803  1.00  0.00     0.000 HD 
BRANCH  12  14
HETATM   14  C   UNL     1      -9.352  11.453  64.045  1.00  0.00    -0.063 C  
BRANCH  14  15
HETATM   15  C   UNL     1     -10.683  12.225  64.237  1.00  0.00    -0.351 C  
HETATM   16  H   UNL     1     -12.563  11.973  63.723  1.00  0.00     0.000 HD 
HETATM   17  O   UNL     1     -11.748  11.500  63.606  1.00  0.00    -0.376 OA 
BRANCH  15  18
HETATM   18  C   UNL     1     -10.992  12.417  65.717  1.00  0.00    -0.333 A  
HETATM   19  C   UNL     1     -11.156  13.706  66.267  1.00  0.00    -0.304 A  
HETATM   20  C   UNL     1     -11.470  13.890  67.618  1.00  0.00    -0.324 A  
HETATM   21  H   UNL     1     -12.001  12.083  70.310  1.00  0.00     0.000 HD 
HETATM   22  C   UNL     1     -11.630  12.756  68.424  1.00  0.00    -0.325 A  
HETATM   23  C   UNL     1     -11.156  11.305  66.553  1.00  0.00    -0.280 A  
HETATM   24  C   UNL     1     -11.482  11.476  67.899  1.00  0.00    -0.372 A  
HETATM   25  O   UNL     1     -11.893  12.852  69.762  1.00  0.00    -0.312 OA 
BRANCH  20  26
HETATM   26  N   UNL     1     -11.664  15.166  68.179  1.00  0.00    -0.428 N  
HETATM   27  H   UNL     1     -12.552  15.322  68.655  1.00  0.00     0.000 HD 
HETATM   28  O   UNL     1     -11.071  17.306  68.647  1.00  0.00    -0.194 OA 
HETATM   29  C   UNL     1     -10.796  16.216  68.155  1.00  0.00    -0.329 C  
ENDBRANCH  20  26
ENDBRANCH  15  18
ENDBRANCH  14  15
ENDBRANCH  12  14
ENDBRANCH  10  12
ENDBRANCH   9  10
ENDBRANCH   6   9
ENDBRANCH   2   3
TORSDOF 8
ENDMDL
MODEL      316
REMARK 921   NORMALIZED FREE ENERGY PREDICTED BY IDOCK:   -3.62 KCAL/MOL
REMARK 922        TOTAL FREE ENERGY PREDICTED BY IDOCK:   -6.81 KCAL/MOL
REMARK 923 INTER-LIGAND FREE ENERGY PREDICTED BY IDOCK:   -6.34 KCAL/MOL
REMARK 924 INTRA-LIGAND FREE ENERGY PREDICTED BY IDOCK:   -0.48 KCAL/MOL
REMARK 927      BINDING AFFINITY PREDICTED BY RF-SCORE:    0.00 PKD
ROOT
HETATM    1  C   UNL     1     -12.324  15.152  70.188  1.00  0.00    -0.341 C  
HETATM    2  O   UNL     1     -12.051  15.501  68.834  1.00  0.00    -0.311 OA 
ENDROOT
BRANCH   2   3
HETATM    3  C   UNL     1     -11.275  14.602  68.156  1.00  0.00    -0.289 A  
HETATM    4  C   UNL     1     -11.952  13.742  67.294  1.00  0.00    -0.436 A  
HETATM    5  C   UNL     1     -11.257  12.757  66.588  1.00  0.00    -0.344 A  
HETATM    6  C   UNL     1      -9.866  12.645  66.714  1.00  0.00    -0.236 A  
HETATM    7  C   UNL     1      -9.888  14.519  68.259  1.00  0.00    -0.229 A  
HETATM    8  C   UNL     1      -9.188  13.545  67.545  1.00  0.00    -0.219 A  
BRANCH   6   9
HETATM    9  C   UNL     1      -9.106  11.507  66.076  1.00  0.00    -0.206 C  
BRANCH   9  10
HETATM   10  C   UNL     1      -9.738  10.100  66.211  1.00  0.00    -0.218 C  
HETATM   11  C   UNL     1      -9.022   9.099  65.297  1.00  0.00    -0.246 C  
BRANCH  10  12
HETATM   12  N   UNL     1      -9.686   9.570  67.591  1.00  0.00    -0.149 NA 
HETATM   13  H   UNL     1     -10.458   9.933  68.149  1.00  0.00     0.000 HD 
BRANCH  12  14
HETATM   14  C   UNL     1      -9.646   8.103  67.639  1.00  0.00    -0.152 C  
BRANCH  14  15
HETATM   15  C   UNL     1     -10.904   7.466  68.284  1.00  0.00    -0.023 C  
HETATM   16  H   UNL     1     -11.859   5.754  68.158  1.00  0.00     0.000 HD 
HETATM   17  O   UNL     1     -11.088   6.144  67.763  1.00  0.00    -0.326 OA 
BRANCH  15  18
HETATM   18  C   UNL     1     -10.769   7.412  69.801  1.00  0.00    -0.252 A  
HETATM   19  C   UNL     1     -10.692   6.179  70.484  1.00  0.00    -0.340 A  
HETATM   20  C   UNL     1     -10.537   6.121  71.873  1.00  0.00    -0.220 A  
HETATM   21  H   UNL     1     -10.281   8.169  74.429  1.00  0.00     0.000 HD 
HETATM   22  C   UNL     1     -10.449   7.324  72.584  1.00  0.00    -0.246 A  
HETATM   23  C   UNL     1     -10.681   8.596  70.544  1.00  0.00    -0.252 A  
HETATM   24  C   UNL     1     -10.513   8.550  71.929  1.00  0.00    -0.387 A  
HETATM   25  O   UNL     1     -10.340   7.353  73.946  1.00  0.00    -0.317 OA 
BRANCH  20  26
HETATM   26  N   UNL     1     -10.431   4.902  72.568  1.00  0.00    -0.200 N  
HETATM   27  H   UNL     1      -9.528   4.431  72.524  1.00  0.00     0.000 HD 
HETATM   28  O   UNL     1     -11.224   3.196  73.838  1.00  0.00    -0.194 OA 
HETATM   29  C   UNL     1     -11.404   4.280  73.292  1.00  0.00    -0.203 C  
ENDBRANCH  20  26
ENDBRANCH  15  18
ENDBRANCH  14  15
ENDBRANCH  12  14
ENDBRANCH  10  12
ENDBRANCH   9  10
ENDBRANCH   6   9
ENDBRANCH   2   3
TORSDOF 8
ENDMDL
MODEL      317
REMARK 921   NORMALIZED FREE ENERGY PREDICTED BY IDOCK:   -3.62 KCAL/MOL
REMARK 922        TOTAL FREE ENERGY PREDICTED BY IDOCK:   -6.81 KCAL/MOL
REMARK 923 INTER-LIGAND FREE ENERGY PREDICTED BY IDOCK:   -6.01 KCAL/MOL
REMARK 924 INTRA-LIGAND FREE ENERGY PREDICTED BY IDOCK:   -0.80 KCAL/MOL
REMARK 927      BINDING AFFINITY PREDICTED BY RF-SCORE:    0.00 PKD
ROOT
HETATM    1  C   UNL     1     -10.584   3.451  64.061  1.00  0.00    -0.207 C  
HETATM    2  O   UNL     1      -9.537   3.751  64.979  1.00  0.00    -0.159 OA 
ENDROOT
BRANCH   2   3
HETATM    3  C   UNL     1      -9.571   5.019  65.490  1.00  0.00    -0.089 A  
HETATM    4  C   UNL     1     -10.654   5.313  66.317  1.00  0.00    -0.308 A  
HETATM    5  C   UNL     1     -10.806   6.593  66.855  1.00  0.00    -0.415 A  
HETATM    6  C   UNL     1      -9.854   7.587  66.596  1.00  0.00    -0.274 A  
HETATM    7  C   UNL     1      -8.602   5.992  65.259  1.00  0.00    -0.103 A  
HETATM    8  C   UNL     1      -8.743   7.269  65.805  1.00  0.00    -0.129 A  
BRANCH   6   9
HETATM    9  C   UNL     1     -10.060   9.013  67.045  1.00  0.00    -0.318 C  
BRANCH   9  10
HETATM   10  C   UNL     1     -10.983   9.219  68.271  1.00  0.00     0.008 C  
HETATM   11  C   UNL     1     -10.162   9.238  69.565  1.00  0.00    -0.214 C  
BRANCH  10  12
HETATM   12  N   UNL     1     -11.759  10.476  68.209  1.00  0.00    -0.744 NA 
HETATM   13  H   UNL     1     -12.753  10.285  68.082  1.00  0.00     0.000 HD 
BRANCH  12  14
HETATM   14  C   UNL     1     -11.535  11.344  69.372  1.00  0.00    -0.310 C  
BRANCH  14  15
HETATM   15  C   UNL     1     -11.894  12.832  69.118  1.00  0.00    -0.301 C  
HETATM   16  H   UNL     1     -12.562  14.339  70.187  1.00  0.00     0.000 HD 
HETATM   17  O   UNL     1     -12.342  13.429  70.342  1.00  0.00    -0.336 OA 
BRANCH  15  18
HETATM   18  C   UNL     1     -10.692  13.596  68.576  1.00  0.00    -0.269 A  
HETATM   19  C   UNL     1      -9.587  12.918  68.019  1.00  0.00    -0.221 A  
HETATM   20  C   UNL     1      -8.493  13.614  67.491  1.00  0.00    -0.189 A  
HETATM   21  H   UNL     1      -7.488  16.714  67.081  1.00  0.00     0.000 HD 
HETATM   22  C   UNL     1      -8.519  15.013  67.518  1.00  0.00    -0.174 A  
HETATM   23  C   UNL     1     -10.683  14.997  68.590  1.00  0.00    -0.244 A  
HETATM   24  C   UNL     1      -9.603  15.701  68.054  1.00  0.00    -0.203 A  
HETATM   25  O   UNL     1      -7.471  15.765  67.063  1.00  0.00    -0.209 OA 
BRANCH  20  26
HETATM   26  N   UNL     1      -7.394  12.956  66.907  1.00  0.00    -0.341 N  
HETATM   27  H   UNL     1      -7.396  12.887  65.890  1.00  0.00     0.000 HD 
HETATM   28  O   UNL     1      -5.432  11.819  66.953  1.00  0.00    -0.116 OA 
HETATM   29  C   UNL     1      -6.329  12.403  67.551  1.00  0.00    -0.148 C  
ENDBRANCH  20  26
ENDBRANCH  15  18
ENDBRANCH  14  15
ENDBRANCH  12  14
ENDBRANCH  10  12
ENDBRANCH   9  10
ENDBRANCH   6   9
ENDBRANCH   2   3
TORSDOF 8
ENDMDL
MODEL      318
REMARK 921   NORMALIZED FREE ENERGY PREDICTED BY IDOCK:   -3.61 KCAL/MOL
REMARK 922        TOTAL FREE ENERGY PREDICTED BY IDOCK:   -6.80 KCAL/MOL
REMARK 923 INTER-LIGAND FREE ENERGY PREDICTED BY IDOCK:   -6.08 KCAL/MOL
REMARK 924 INTRA-LIGAND FREE ENERGY PREDICTED BY IDOCK:   -0.72 KCAL/MOL
REMARK 927      BINDING AFFINITY PREDICTED BY RF-SCORE:    0.00 PKD
ROOT
HETATM    1  C   UNL     1      -7.203   8.296  69.408  1.00  0.00    -0.059 C  
HETATM    2  O   UNL     1      -8.079   9.304  69.904  1.00  0.00    -0.096 OA 
ENDROOT
BRANCH   2   3
HETATM    3  C   UNL     1      -8.569  10.155  68.952  1.00  0.00    -0.141 A  
HETATM    4  C   UNL     1      -9.830   9.841  68.447  1.00  0.00    -0.168 A  
HETATM    5  C   UNL     1     -10.402  10.622  67.439  1.00  0.00    -0.262 A  
HETATM    6  C   UNL     1      -9.727  11.747  66.948  1.00  0.00    -0.212 A  
HETATM    7  C   UNL     1      -7.910  11.293  68.494  1.00  0.00    -0.138 A  
HETATM    8  C   UNL     1      -8.484  12.083  67.496  1.00  0.00    -0.165 A  
BRANCH   6   9
HETATM    9  C   UNL     1     -10.252  12.528  65.767  1.00  0.00    -0.289 C  
BRANCH   9  10
HETATM   10  C   UNL     1     -11.371  13.555  66.067  1.00  0.00    -0.312 C  
HETATM   11  C   UNL     1     -12.744  12.973  65.716  1.00  0.00    -0.095 C  
BRANCH  10  12
HETATM   12  N   UNL     1     -11.407  13.976  67.485  1.00  0.00    -0.305 NA 
HETATM   13  H   UNL     1     -11.251  13.181  68.104  1.00  0.00     0.000 HD 
BRANCH  12  14
HETATM   14  C   UNL     1     -10.468  15.066  67.782  1.00  0.00    -0.249 C  
BRANCH  14  15
HETATM   15  C   UNL     1      -9.818  14.962  69.186  1.00  0.00    -0.199 C  
HETATM   16  H   UNL     1      -8.496  15.981  70.222  1.00  0.00     0.000 HD 
HETATM   17  O   UNL     1      -8.894  16.045  69.362  1.00  0.00    -0.243 OA 
BRANCH  15  18
HETATM   18  C   UNL     1     -10.878  15.000  70.280  1.00  0.00    -0.202 A  
HETATM   19  C   UNL     1     -11.660  13.864  70.579  1.00  0.00    -0.132 A  
HETATM   20  C   UNL     1     -12.613  13.881  71.603  1.00  0.00    -0.298 A  
HETATM   21  H   UNL     1     -13.824  15.970  73.830  1.00  0.00     0.000 HD 
HETATM   22  C   UNL     1     -12.775  15.059  72.342  1.00  0.00    -0.342 A  
HETATM   23  C   UNL     1     -11.068  16.163  71.038  1.00  0.00    -0.178 A  
HETATM   24  C   UNL     1     -12.007  16.187  72.070  1.00  0.00    -0.607 A  
HETATM   25  O   UNL     1     -13.714  15.171  73.329  1.00  0.00    -0.435 OA 
BRANCH  20  26
HETATM   26  N   UNL     1     -13.383  12.750  71.933  1.00  0.00    -0.463 N  
HETATM   27  H   UNL     1     -14.251  12.925  72.439  1.00  0.00     0.000 HD 
HETATM   28  O   UNL     1     -13.820  10.525  72.011  1.00  0.00    -0.094 OA 
HETATM   29  C   UNL     1     -13.098  11.448  71.650  1.00  0.00    -0.393 C  
ENDBRANCH  20  26
ENDBRANCH  15  18
ENDBRANCH  14  15
ENDBRANCH  12  14
ENDBRANCH  10  12
ENDBRANCH   9  10
ENDBRANCH   6   9
ENDBRANCH   2   3
TORSDOF 8
ENDMDL
MODEL      319
REMARK 921   NORMALIZED FREE ENERGY PREDICTED BY IDOCK:   -3.61 KCAL/MOL
REMARK 922        TOTAL FREE ENERGY PREDICTED BY IDOCK:   -6.79 KCAL/MOL
REMARK 923 INTER-LIGAND FREE ENERGY PREDICTED BY IDOCK:   -6.11 KCAL/MOL
REMARK 924 INTRA-LIGAND FREE ENERGY PREDICTED BY IDOCK:   -0.68 KCAL/MOL
REMARK 927      BINDING AFFINITY PREDICTED BY RF-SCORE:    0.00 PKD
ROOT
HETATM    1  C   UNL     1      -9.906   2.646  72.153  1.00  0.00    -0.165 C  
HETATM    2  O   UNL     1     -10.043   3.898  72.817  1.00  0.00    -0.148 OA 
ENDROOT
BRANCH   2   3
HETATM    3  C   UNL     1     -10.021   4.988  71.992  1.00  0.00    -0.184 A  
HETATM    4  C   UNL     1      -8.968   5.040  71.080  1.00  0.00    -0.162 A  
HETATM    5  C   UNL     1      -8.829   6.134  70.222  1.00  0.00    -0.149 A  
HETATM    6  C   UNL     1      -9.765   7.175  70.246  1.00  0.00    -0.175 A  
HETATM    7  C   UNL     1     -10.975   6.003  71.995  1.00  0.00    -0.313 A  
HETATM    8  C   UNL     1     -10.847   7.091  71.130  1.00  0.00    -0.263 A  
BRANCH   6   9
HETATM    9  C   UNL     1      -9.567   8.432  69.433  1.00  0.00    -0.170 C  
BRANCH   9  10
HETATM   10  C   UNL     1      -9.083   9.681  70.210  1.00  0.00    -0.225 C  
HETATM   11  C   UNL     1      -7.555   9.679  70.334  1.00  0.00    -0.176 C  
BRANCH  10  12
HETATM   12  N   UNL     1      -9.483  10.953  69.570  1.00  0.00    -0.410 NA 
HETATM   13  H   UNL     1      -9.008  11.744  70.004  1.00  0.00     0.000 HD 
BRANCH  12  14
HETATM   14  C   UNL     1      -9.280  10.951  68.116  1.00  0.00    -0.158 C  
BRANCH  14  15
HETATM   15  C   UNL     1      -8.219  11.974  67.634  1.00  0.00    -0.155 C  
HETATM   16  H   UNL     1      -6.647  11.949  66.455  1.00  0.00     0.000 HD 
HETATM   17  O   UNL     1      -7.297  11.322  66.750  1.00  0.00    -0.137 OA 
BRANCH  15  18
HETATM   18  C   UNL     1      -8.880  13.148  66.921  1.00  0.00    -0.184 A  
HETATM   19  C   UNL     1      -9.620  12.957  65.734  1.00  0.00    -0.086 A  
HETATM   20  C   UNL     1     -10.256  14.025  65.090  1.00  0.00    -0.371 A  
HETATM   21  H   UNL     1     -10.636  17.268  65.449  1.00  0.00     0.000 HD 
HETATM   22  C   UNL     1     -10.152  15.301  65.656  1.00  0.00    -0.371 A  
HETATM   23  C   UNL     1      -8.794  14.438  67.457  1.00  0.00    -0.197 A  
HETATM   24  C   UNL     1      -9.435  15.508  66.831  1.00  0.00    -0.244 A  
HETATM   25  O   UNL     1     -10.706  16.402  65.065  1.00  0.00    -0.638 OA 
BRANCH  20  26
HETATM   26  N   UNL     1     -11.020  13.850  63.921  1.00  0.00    -0.428 N  
HETATM   27  H   UNL     1     -10.619  14.218  63.058  1.00  0.00     0.000 HD 
HETATM   28  O   UNL     1     -12.840  13.171  62.749  1.00  0.00    -0.163 OA 
HETATM   29  C   UNL     1     -12.236  13.245  63.813  1.00  0.00    -0.439 C  
ENDBRANCH  20  26
ENDBRANCH  15  18
ENDBRANCH  14  15
ENDBRANCH  12  14
ENDBRANCH  10  12
ENDBRANCH   9  10
ENDBRANCH   6   9
ENDBRANCH   2   3
TORSDOF 8
ENDMDL
MODEL      320
REMARK 921   NORMALIZED FREE ENERGY PREDICTED BY IDOCK:   -3.60 KCAL/MOL
REMARK 922        TOTAL FREE ENERGY PREDICTED BY IDOCK:   -6.77 KCAL/MOL
REMARK 923 INTER-LIGAND FREE ENERGY PREDICTED BY IDOCK:   -5.67 KCAL/MOL
REMARK 924 INTRA-LIGAND FREE ENERGY PREDICTED BY IDOCK:   -1.10 KCAL/MOL
REMARK 927      BINDING AFFINITY PREDICTED BY RF-SCORE:    0.00 PKD
ROOT
HETATM    1  C   UNL     1     -11.403  11.950  63.867  1.00  0.00    -0.428 C  
HETATM    2  O   UNL     1     -11.393  11.826  65.286  1.00  0.00    -0.298 OA 
ENDROOT
BRANCH   2   3
HETATM    3  C   UNL     1     -10.661  10.775  65.764  1.00  0.00    -0.134 A  
HETATM    4  C   UNL     1      -9.807  10.162  64.847  1.00  0.00    -0.390 A  
HETATM    5  C   UNL     1      -9.048   9.052  65.222  1.00  0.00    -0.226 A  
HETATM    6  C   UNL     1      -9.111   8.561  66.533  1.00  0.00    -0.217 A  
HETATM    7  C   UNL     1     -10.701  10.314  67.077  1.00  0.00    -0.281 A  
HETATM    8  C   UNL     1      -9.933   9.213  67.459  1.00  0.00    -0.258 A  
BRANCH   6   9
HETATM    9  C   UNL     1      -8.412   7.283  66.931  1.00  0.00    -0.119 C  
BRANCH   9  10
HETATM   10  C   UNL     1      -6.993   7.436  67.531  1.00  0.00    -0.079 C  
HETATM   11  C   UNL     1      -6.466   8.857  67.308  1.00  0.00    -0.061 C  
BRANCH  10  12
HETATM   12  N   UNL     1      -6.944   7.158  68.983  1.00  0.00    -0.072 NA 
HETATM   13  H   UNL     1      -6.304   6.390  69.185  1.00  0.00     0.000 HD 
BRANCH  12  14
HETATM   14  C   UNL     1      -6.611   8.345  69.781  1.00  0.00    -0.039 C  
BRANCH  14  15
HETATM   15  C   UNL     1      -6.911   8.182  71.294  1.00  0.00    -0.056 C  
HETATM   16  H   UNL     1      -6.475   9.153  72.946  1.00  0.00     0.000 HD 
HETATM   17  O   UNL     1      -6.292   9.253  72.019  1.00  0.00    -0.260 OA 
BRANCH  15  18
HETATM   18  C   UNL     1      -8.413   8.180  71.553  1.00  0.00    -0.160 A  
HETATM   19  C   UNL     1      -9.013   7.190  72.360  1.00  0.00    -0.145 A  
HETATM   20  C   UNL     1     -10.386   7.199  72.628  1.00  0.00    -0.215 A  
HETATM   21  H   UNL     1     -13.047   8.978  71.889  1.00  0.00     0.000 HD 
HETATM   22  C   UNL     1     -11.165   8.226  72.082  1.00  0.00    -0.345 A  
HETATM   23  C   UNL     1      -9.222   9.192  71.020  1.00  0.00    -0.321 A  
HETATM   24  C   UNL     1     -10.591   9.218  71.292  1.00  0.00    -0.417 A  
HETATM   25  O   UNL     1     -12.519   8.281  72.260  1.00  0.00    -0.341 OA 
BRANCH  20  26
HETATM   26  N   UNL     1     -10.998   6.235  73.451  1.00  0.00    -0.447 N  
HETATM   27  H   UNL     1     -11.532   6.589  74.245  1.00  0.00     0.000 HD 
HETATM   28  O   UNL     1     -11.499   4.119  74.098  1.00  0.00    -0.040 OA 
HETATM   29  C   UNL     1     -10.957   4.881  73.305  1.00  0.00    -0.320 C  
ENDBRANCH  20  26
ENDBRANCH  15  18
ENDBRANCH  14  15
ENDBRANCH  12  14
ENDBRANCH  10  12
ENDBRANCH   9  10
ENDBRANCH   6   9
ENDBRANCH   2   3
TORSDOF 8
ENDMDL
MODEL      321
REMARK 921   NORMALIZED FREE ENERGY PREDICTED BY IDOCK:   -3.59 KCAL/MOL
REMARK 922        TOTAL FREE ENERGY PREDICTED BY IDOCK:   -6.76 KCAL/MOL
REMARK 923 INTER-LIGAND FREE ENERGY PREDICTED BY IDOCK:   -5.85 KCAL/MOL
REMARK 924 INTRA-LIGAND FREE ENERGY PREDICTED BY IDOCK:   -0.91 KCAL/MOL
REMARK 927      BINDING AFFINITY PREDICTED BY RF-SCORE:    0.00 PKD
ROOT
HETATM    1  C   UNL     1     -12.548  13.477  65.334  1.00  0.00    -0.483 C  
HETATM    2  O   UNL     1     -11.958  12.797  64.231  1.00  0.00    -0.355 OA 
ENDROOT
BRANCH   2   3
HETATM    3  C   UNL     1     -11.149  11.748  64.572  1.00  0.00    -0.315 A  
HETATM    4  C   UNL     1     -10.271  11.311  63.581  1.00  0.00    -0.446 A  
HETATM    5  C   UNL     1      -9.432  10.217  63.813  1.00  0.00    -0.352 A  
HETATM    6  C   UNL     1      -9.442   9.569  65.055  1.00  0.00    -0.273 A  
HETATM    7  C   UNL     1     -11.138  11.131  65.820  1.00  0.00    -0.084 A  
HETATM    8  C   UNL     1     -10.292  10.046  66.060  1.00  0.00    -0.222 A  
BRANCH   6   9
HETATM    9  C   UNL     1      -8.654   8.303  65.290  1.00  0.00    -0.159 C  
BRANCH   9  10
HETATM   10  C   UNL     1      -7.485   8.402  66.300  1.00  0.00    -0.089 C  
HETATM   11  C   UNL     1      -6.742   9.732  66.135  1.00  0.00    -0.085 C  
BRANCH  10  12
HETATM   12  N   UNL     1      -7.926   8.302  67.709  1.00  0.00    -0.120 NA 
HETATM   13  H   UNL     1      -7.969   7.328  68.009  1.00  0.00     0.000 HD 
BRANCH  12  14
HETATM   14  C   UNL     1      -7.099   9.098  68.624  1.00  0.00    -0.071 C  
BRANCH  14  15
HETATM   15  C   UNL     1      -7.905   9.776  69.762  1.00  0.00    -0.156 C  
HETATM   16  H   UNL     1      -9.279  11.175  69.898  1.00  0.00     0.000 HD 
HETATM   17  O   UNL     1      -8.785  10.759  69.201  1.00  0.00    -0.157 OA 
BRANCH  15  18
HETATM   18  C   UNL     1      -8.710   8.747  70.547  1.00  0.00    -0.196 A  
HETATM   19  C   UNL     1     -10.122   8.760  70.534  1.00  0.00    -0.233 A  
HETATM   20  C   UNL     1     -10.868   7.800  71.226  1.00  0.00    -0.231 A  
HETATM   21  H   UNL     1     -10.370   5.187  73.154  1.00  0.00     0.000 HD 
HETATM   22  C   UNL     1     -10.181   6.808  71.935  1.00  0.00    -0.189 A  
HETATM   23  C   UNL     1      -8.056   7.741  71.269  1.00  0.00    -0.096 A  
HETATM   24  C   UNL     1      -8.790   6.771  71.953  1.00  0.00    -0.135 A  
HETATM   25  O   UNL     1     -10.836   5.861  72.672  1.00  0.00    -0.222 OA 
BRANCH  20  26
HETATM   26  N   UNL     1     -12.275   7.781  71.203  1.00  0.00    -0.399 N  
HETATM   27  H   UNL     1     -12.709   7.229  70.464  1.00  0.00     0.000 HD 
HETATM   28  O   UNL     1     -14.341   8.368  71.937  1.00  0.00    -0.432 OA 
HETATM   29  C   UNL     1     -13.122   8.419  72.059  1.00  0.00    -0.352 C  
ENDBRANCH  20  26
ENDBRANCH  15  18
ENDBRANCH  14  15
ENDBRANCH  12  14
ENDBRANCH  10  12
ENDBRANCH   9  10
ENDBRANCH   6   9
ENDBRANCH   2   3
TORSDOF 8
ENDMDL
MODEL      322
REMARK 921   NORMALIZED FREE ENERGY PREDICTED BY IDOCK:   -3.58 KCAL/MOL
REMARK 922        TOTAL FREE ENERGY PREDICTED BY IDOCK:   -6.75 KCAL/MOL
REMARK 923 INTER-LIGAND FREE ENERGY PREDICTED BY IDOCK:   -6.06 KCAL/MOL
REMARK 924 INTRA-LIGAND FREE ENERGY PREDICTED BY IDOCK:   -0.68 KCAL/MOL
REMARK 927      BINDING AFFINITY PREDICTED BY RF-SCORE:    0.00 PKD
ROOT
HETATM    1  C   UNL     1     -11.831  12.788  63.271  1.00  0.00    -0.419 C  
HETATM    2  O   UNL     1     -10.579  12.107  63.245  1.00  0.00    -0.428 OA 
ENDROOT
BRANCH   2   3
HETATM    3  C   UNL     1     -10.293  11.393  64.375  1.00  0.00    -0.320 A  
HETATM    4  C   UNL     1     -11.346  11.226  65.273  1.00  0.00     0.021 A  
HETATM    5  C   UNL     1     -11.147  10.550  66.479  1.00  0.00     0.050 A  
HETATM    6  C   UNL     1      -9.893  10.004  66.785  1.00  0.00    -0.251 A  
HETATM    7  C   UNL     1      -9.054  10.822  64.657  1.00  0.00    -0.223 A  
HETATM    8  C   UNL     1      -8.855  10.134  65.856  1.00  0.00    -0.167 A  
BRANCH   6   9
HETATM    9  C   UNL     1      -9.608   9.392  68.135  1.00  0.00    -0.158 C  
BRANCH   9  10
HETATM   10  C   UNL     1      -9.319  10.383  69.289  1.00  0.00    -0.187 C  
HETATM   11  C   UNL     1      -7.812  10.634  69.418  1.00  0.00    -0.126 C  
BRANCH  10  12
HETATM   12  N   UNL     1      -9.982  11.693  69.109  1.00  0.00    -0.418 NA 
HETATM   13  H   UNL     1     -10.181  11.868  68.124  1.00  0.00     0.000 HD 
BRANCH  12  14
HETATM   14  C   UNL     1     -11.195  11.836  69.924  1.00  0.00    -0.014 C  
BRANCH  14  15
HETATM   15  C   UNL     1     -12.130  12.982  69.454  1.00  0.00    -0.212 C  
HETATM   16  H   UNL     1     -13.102  14.465  70.299  1.00  0.00     0.000 HD 
HETATM   17  O   UNL     1     -12.529  13.764  70.587  1.00  0.00    -0.340 OA 
BRANCH  15  18
HETATM   18  C   UNL     1     -11.431  13.869  68.430  1.00  0.00    -0.346 A  
HETATM   19  C   UNL     1     -10.182  14.463  68.711  1.00  0.00    -0.239 A  
HETATM   20  C   UNL     1      -9.519  15.253  67.766  1.00  0.00    -0.197 A  
HETATM   21  H   UNL     1      -9.968  16.361  64.706  1.00  0.00     0.000 HD 
HETATM   22  C   UNL     1     -10.121  15.441  66.516  1.00  0.00    -0.271 A  
HETATM   23  C   UNL     1     -12.005  14.079  67.171  1.00  0.00    -0.465 A  
HETATM   24  C   UNL     1     -11.347  14.855  66.215  1.00  0.00    -0.306 A  
HETATM   25  O   UNL     1      -9.560  16.234  65.554  1.00  0.00    -0.474 OA 
BRANCH  20  26
HETATM   26  N   UNL     1      -8.262  15.832  68.018  1.00  0.00    -0.139 N  
HETATM   27  H   UNL     1      -7.512  15.589  67.371  1.00  0.00     0.000 HD 
HETATM   28  O   UNL     1      -6.795  17.110  69.188  1.00  0.00    -0.227 OA 
HETATM   29  C   UNL     1      -7.934  16.682  69.032  1.00  0.00    -0.208 C  
ENDBRANCH  20  26
ENDBRANCH  15  18
ENDBRANCH  14  15
ENDBRANCH  12  14
ENDBRANCH  10  12
ENDBRANCH   9  10
ENDBRANCH   6   9
ENDBRANCH   2   3
TORSDOF 8
ENDMDL
MODEL      323
REMARK 921   NORMALIZED FREE ENERGY PREDICTED BY IDOCK:   -3.55 KCAL/MOL
REMARK 922        TOTAL FREE ENERGY PREDICTED BY IDOCK:   -6.70 KCAL/MOL
REMARK 923 INTER-LIGAND FREE ENERGY PREDICTED BY IDOCK:   -6.02 KCAL/MOL
REMARK 924 INTRA-LIGAND FREE ENERGY PREDICTED BY IDOCK:   -0.68 KCAL/MOL
REMARK 927      BINDING AFFINITY PREDICTED BY RF-SCORE:    0.00 PKD
ROOT
HETATM    1  C   UNL     1     -10.921  15.889  65.210  1.00  0.00    -0.324 C  
HETATM    2  O   UNL     1     -11.534  14.732  64.649  1.00  0.00    -0.394 OA 
ENDROOT
BRANCH   2   3
HETATM    3  C   UNL     1     -11.258  13.564  65.304  1.00  0.00    -0.292 A  
HETATM    4  C   UNL     1     -10.483  12.641  64.603  1.00  0.00    -0.361 A  
HETATM    5  C   UNL     1     -10.182  11.399  65.165  1.00  0.00    -0.328 A  
HETATM    6  C   UNL     1     -10.629  11.079  66.454  1.00  0.00    -0.308 A  
HETATM    7  C   UNL     1     -11.674  13.266  66.599  1.00  0.00    -0.425 A  
HETATM    8  C   UNL     1     -11.364  12.030  67.170  1.00  0.00    -0.396 A  
BRANCH   6   9
HETATM    9  C   UNL     1     -10.440   9.697  67.034  1.00  0.00    -0.302 C  
BRANCH   9  10
HETATM   10  C   UNL     1      -9.266   9.526  68.029  1.00  0.00    -0.129 C  
HETATM   11  C   UNL     1      -8.327  10.735  67.966  1.00  0.00    -0.120 C  
BRANCH  10  12
HETATM   12  N   UNL     1      -9.712   9.372  69.430  1.00  0.00    -0.169 NA 
HETATM   13  H   UNL     1     -10.730   9.365  69.490  1.00  0.00     0.000 HD 
BRANCH  12  14
HETATM   14  C   UNL     1      -9.139   8.190  70.086  1.00  0.00    -0.147 C  
BRANCH  14  15
HETATM   15  C   UNL     1     -10.195   7.128  70.491  1.00  0.00    -0.196 C  
HETATM   16  H   UNL     1     -12.155   7.005  70.513  1.00  0.00     0.000 HD 
HETATM   17  O   UNL     1     -11.509   7.655  70.265  1.00  0.00    -0.237 OA 
BRANCH  15  18
HETATM   18  C   UNL     1     -10.007   5.843  69.694  1.00  0.00    -0.234 A  
HETATM   19  C   UNL     1     -10.284   5.795  68.310  1.00  0.00    -0.235 A  
HETATM   20  C   UNL     1     -10.085   4.627  67.565  1.00  0.00    -0.075 A  
HETATM   21  H   UNL     1      -9.075   1.535  68.022  1.00  0.00     0.000 HD 
HETATM   22  C   UNL     1      -9.591   3.494  68.223  1.00  0.00    -0.095 A  
HETATM   23  C   UNL     1      -9.517   4.690  70.320  1.00  0.00    -0.240 A  
HETATM   24  C   UNL     1      -9.302   3.524  69.584  1.00  0.00    -0.244 A  
HETATM   25  O   UNL     1      -9.410   2.304  67.576  1.00  0.00    -0.166 OA 
BRANCH  20  26
HETATM   26  N   UNL     1     -10.331   4.567  66.181  1.00  0.00    -0.386 N  
HETATM   27  H   UNL     1     -11.305   4.464  65.897  1.00  0.00     0.000 HD 
HETATM   28  O   UNL     1      -9.722   4.537  63.995  1.00  0.00    -0.066 OA 
HETATM   29  C   UNL     1      -9.411   4.632  65.177  1.00  0.00    -0.150 C  
ENDBRANCH  20  26
ENDBRANCH  15  18
ENDBRANCH  14  15
ENDBRANCH  12  14
ENDBRANCH  10  12
ENDBRANCH   9  10
ENDBRANCH   6   9
ENDBRANCH   2   3
TORSDOF 8
ENDMDL
MODEL      324
REMARK 921   NORMALIZED FREE ENERGY PREDICTED BY IDOCK:   -3.54 KCAL/MOL
REMARK 922        TOTAL FREE ENERGY PREDICTED BY IDOCK:   -6.69 KCAL/MOL
REMARK 923 INTER-LIGAND FREE ENERGY PREDICTED BY IDOCK:   -6.59 KCAL/MOL
REMARK 924 INTRA-LIGAND FREE ENERGY PREDICTED BY IDOCK:   -0.10 KCAL/MOL
REMARK 927      BINDING AFFINITY PREDICTED BY RF-SCORE:    0.00 PKD
ROOT
HETATM    1  C   UNL     1      -5.625  12.433  70.163  1.00  0.00    -0.144 C  
HETATM    2  O   UNL     1      -5.481  13.060  68.892  1.00  0.00    -0.070 OA 
ENDROOT
BRANCH   2   3
HETATM    3  C   UNL     1      -6.017  14.316  68.810  1.00  0.00    -0.085 A  
HETATM    4  C   UNL     1      -7.384  14.411  69.063  1.00  0.00    -0.127 A  
HETATM    5  C   UNL     1      -8.037  15.642  68.962  1.00  0.00    -0.222 A  
HETATM    6  C   UNL     1      -7.318  16.800  68.636  1.00  0.00    -0.218 A  
HETATM    7  C   UNL     1      -5.290  15.468  68.521  1.00  0.00    -0.099 A  
HETATM    8  C   UNL     1      -5.937  16.702  68.431  1.00  0.00    -0.124 A  
BRANCH   6   9
HETATM    9  C   UNL     1      -8.015  18.115  68.382  1.00  0.00    -0.312 C  
BRANCH   9  10
HETATM   10  C   UNL     1      -8.122  18.559  66.902  1.00  0.00    -0.245 C  
HETATM   11  C   UNL     1      -7.020  17.904  66.063  1.00  0.00    -0.346 C  
BRANCH  10  12
HETATM   12  N   UNL     1      -9.423  18.217  66.287  1.00  0.00    -0.449 NA 
HETATM   13  H   UNL     1      -9.660  18.875  65.545  1.00  0.00     0.000 HD 
BRANCH  12  14
HETATM   14  C   UNL     1      -9.478  16.832  65.800  1.00  0.00    -0.031 C  
BRANCH  14  15
HETATM   15  C   UNL     1     -10.908  16.360  65.425  1.00  0.00    -0.239 C  
HETATM   16  H   UNL     1     -12.281  16.873  64.117  1.00  0.00     0.000 HD 
HETATM   17  O   UNL     1     -11.405  17.162  64.346  1.00  0.00    -1.115 OA 
BRANCH  15  18
HETATM   18  C   UNL     1     -10.907  14.890  65.024  1.00  0.00    -0.439 A  
HETATM   19  C   UNL     1     -10.115  13.946  65.712  1.00  0.00    -0.336 A  
HETATM   20  C   UNL     1     -10.132  12.590  65.370  1.00  0.00    -0.267 A  
HETATM   21  H   UNL     1     -11.576  10.599  63.192  1.00  0.00     0.000 HD 
HETATM   22  C   UNL     1     -10.967  12.177  64.325  1.00  0.00    -0.339 A  
HETATM   23  C   UNL     1     -11.729  14.443  63.982  1.00  0.00    -0.147 A  
HETATM   24  C   UNL     1     -11.764  13.091  63.641  1.00  0.00    -0.550 A  
HETATM   25  O   UNL     1     -11.009  10.878  63.901  1.00  0.00    -0.201 OA 
BRANCH  20  26
HETATM   26  N   UNL     1      -9.369  11.630  66.061  1.00  0.00    -0.227 N  
HETATM   27  H   UNL     1      -9.478  11.607  67.074  1.00  0.00     0.000 HD 
HETATM   28  O   UNL     1      -7.854   9.948  66.217  1.00  0.00    -0.105 OA 
HETATM   29  C   UNL     1      -8.500  10.727  65.525  1.00  0.00    -0.153 C  
ENDBRANCH  20  26
ENDBRANCH  15  18
ENDBRANCH  14  15
ENDBRANCH  12  14
ENDBRANCH  10  12
ENDBRANCH   9  10
ENDBRANCH   6   9
ENDBRANCH   2   3
TORSDOF 8
ENDMDL
MODEL      325
REMARK 921   NORMALIZED FREE ENERGY PREDICTED BY IDOCK:   -3.54 KCAL/MOL
REMARK 922        TOTAL FREE ENERGY PREDICTED BY IDOCK:   -6.69 KCAL/MOL
REMARK 923 INTER-LIGAND FREE ENERGY PREDICTED BY IDOCK:   -5.82 KCAL/MOL
REMARK 924 INTRA-LIGAND FREE ENERGY PREDICTED BY IDOCK:   -0.87 KCAL/MOL
REMARK 927      BINDING AFFINITY PREDICTED BY RF-SCORE:    0.00 PKD
ROOT
HETATM    1  C   UNL     1     -13.362  10.711  71.548  1.00  0.00    -0.262 C  
HETATM    2  O   UNL     1     -12.330  10.013  72.238  1.00  0.00    -0.152 OA 
ENDROOT
BRANCH   2   3
HETATM    3  C   UNL     1     -11.743   9.007  71.522  1.00  0.00    -0.345 A  
HETATM    4  C   UNL     1     -12.471   7.821  71.429  1.00  0.00    -0.342 A  
HETATM    5  C   UNL     1     -11.941   6.717  70.757  1.00  0.00    -0.433 A  
HETATM    6  C   UNL     1     -10.686   6.800  70.141  1.00  0.00    -0.274 A  
HETATM    7  C   UNL     1     -10.511   9.106  70.881  1.00  0.00    -0.347 A  
HETATM    8  C   UNL     1      -9.983   8.009  70.197  1.00  0.00    -0.191 A  
BRANCH   6   9
HETATM    9  C   UNL     1     -10.026   5.587  69.530  1.00  0.00    -0.278 C  
BRANCH   9  10
HETATM   10  C   UNL     1     -10.045   5.503  67.984  1.00  0.00    -0.175 C  
HETATM   11  C   UNL     1     -11.187   6.351  67.413  1.00  0.00    -0.283 C  
BRANCH  10  12
HETATM   12  N   UNL     1      -8.784   5.965  67.363  1.00  0.00    -0.109 NA 
HETATM   13  H   UNL     1      -8.005   5.364  67.630  1.00  0.00     0.000 HD 
BRANCH  12  14
HETATM   14  C   UNL     1      -8.877   6.087  65.903  1.00  0.00    -0.149 C  
BRANCH  14  15
HETATM   15  C   UNL     1      -7.741   6.935  65.274  1.00  0.00    -0.110 C  
HETATM   16  H   UNL     1      -6.403   6.698  63.855  1.00  0.00     0.000 HD 
HETATM   17  O   UNL     1      -7.099   6.178  64.240  1.00  0.00    -0.049 OA 
BRANCH  15  18
HETATM   18  C   UNL     1      -8.287   8.238  64.703  1.00  0.00    -0.115 A  
HETATM   19  C   UNL     1      -9.285   8.971  65.381  1.00  0.00    -0.241 A  
HETATM   20  C   UNL     1      -9.769  10.183  64.878  1.00  0.00    -0.324 A  
HETATM   21  H   UNL     1      -9.321  12.151  62.286  1.00  0.00     0.000 HD 
HETATM   22  C   UNL     1      -9.234  10.668  63.679  1.00  0.00    -0.259 A  
HETATM   23  C   UNL     1      -7.776   8.751  63.504  1.00  0.00    -0.132 A  
HETATM   24  C   UNL     1      -8.243   9.966  63.000  1.00  0.00    -0.152 A  
HETATM   25  O   UNL     1      -9.684  11.822  63.099  1.00  0.00    -0.394 OA 
BRANCH  20  26
HETATM   26  N   UNL     1     -10.744  10.942  65.553  1.00  0.00    -0.167 N  
HETATM   27  H   UNL     1     -11.717  10.721  65.341  1.00  0.00     0.000 HD 
HETATM   28  O   UNL     1     -11.453  12.566  66.970  1.00  0.00    -0.313 OA 
HETATM   29  C   UNL     1     -10.532  11.938  66.457  1.00  0.00    -0.221 C  
ENDBRANCH  20  26
ENDBRANCH  15  18
ENDBRANCH  14  15
ENDBRANCH  12  14
ENDBRANCH  10  12
ENDBRANCH   9  10
ENDBRANCH   6   9
ENDBRANCH   2   3
TORSDOF 8
ENDMDL
MODEL      326
REMARK 921   NORMALIZED FREE ENERGY PREDICTED BY IDOCK:   -3.53 KCAL/MOL
REMARK 922        TOTAL FREE ENERGY PREDICTED BY IDOCK:   -6.67 KCAL/MOL
REMARK 923 INTER-LIGAND FREE ENERGY PREDICTED BY IDOCK:   -5.73 KCAL/MOL
REMARK 924 INTRA-LIGAND FREE ENERGY PREDICTED BY IDOCK:   -0.94 KCAL/MOL
REMARK 927      BINDING AFFINITY PREDICTED BY RF-SCORE:    0.00 PKD
ROOT
HETATM    1  C   UNL     1      -9.973  19.765  69.120  1.00  0.00    -0.308 C  
HETATM    2  O   UNL     1      -9.463  19.467  67.824  1.00  0.00    -0.312 OA 
ENDROOT
BRANCH   2   3
HETATM    3  C   UNL     1      -8.485  18.512  67.800  1.00  0.00    -0.270 A  
HETATM    4  C   UNL     1      -7.627  18.492  68.899  1.00  0.00    -0.261 A  
HETATM    5  C   UNL     1      -6.567  17.583  68.951  1.00  0.00    -0.226 A  
HETATM    6  C   UNL     1      -6.374  16.660  67.915  1.00  0.00    -0.147 A  
HETATM    7  C   UNL     1      -8.320  17.573  66.784  1.00  0.00    -0.277 A  
HETATM    8  C   UNL     1      -7.270  16.655  66.839  1.00  0.00    -0.261 A  
BRANCH   6   9
HETATM    9  C   UNL     1      -5.161  15.762  67.874  1.00  0.00    -0.140 C  
BRANCH   9  10
HETATM   10  C   UNL     1      -5.358  14.321  68.405  1.00  0.00    -0.108 C  
HETATM   11  C   UNL     1      -6.637  14.226  69.243  1.00  0.00    -0.120 C  
BRANCH  10  12
HETATM   12  N   UNL     1      -5.449  13.313  67.325  1.00  0.00    -0.337 NA 
HETATM   13  H   UNL     1      -4.541  13.170  66.884  1.00  0.00     0.000 HD 
BRANCH  12  14
HETATM   14  C   UNL     1      -6.020  12.039  67.780  1.00  0.00    -0.078 C  
BRANCH  14  15
HETATM   15  C   UNL     1      -7.241  11.571  66.946  1.00  0.00    -0.137 C  
HETATM   16  H   UNL     1      -8.109   9.858  66.528  1.00  0.00     0.000 HD 
HETATM   17  O   UNL     1      -7.361  10.145  67.039  1.00  0.00    -0.090 OA 
BRANCH  15  18
HETATM   18  C   UNL     1      -8.522  12.233  67.439  1.00  0.00    -0.176 A  
HETATM   19  C   UNL     1      -9.305  11.643  68.454  1.00  0.00    -0.191 A  
HETATM   20  C   UNL     1     -10.466  12.259  68.934  1.00  0.00    -0.101 A  
HETATM   21  H   UNL     1     -12.233  14.976  68.400  1.00  0.00     0.000 HD 
HETATM   22  C   UNL     1     -10.838  13.493  68.388  1.00  0.00    -0.267 A  
HETATM   23  C   UNL     1      -8.926  13.467  66.913  1.00  0.00    -0.216 A  
HETATM   24  C   UNL     1     -10.075  14.097  67.393  1.00  0.00    -0.240 A  
HETATM   25  O   UNL     1     -11.981  14.139  68.771  1.00  0.00    -0.334 OA 
BRANCH  20  26
HETATM   26  N   UNL     1     -11.245  11.699  69.964  1.00  0.00    -0.489 N  
HETATM   27  H   UNL     1     -11.724  12.356  70.578  1.00  0.00     0.000 HD 
HETATM   28  O   UNL     1     -12.104   9.985  71.176  1.00  0.00    -0.322 OA 
HETATM   29  C   UNL     1     -11.429  10.376  70.231  1.00  0.00    -0.325 C  
ENDBRANCH  20  26
ENDBRANCH  15  18
ENDBRANCH  14  15
ENDBRANCH  12  14
ENDBRANCH  10  12
ENDBRANCH   9  10
ENDBRANCH   6   9
ENDBRANCH   2   3
TORSDOF 8
ENDMDL
MODEL      327
REMARK 921   NORMALIZED FREE ENERGY PREDICTED BY IDOCK:   -3.53 KCAL/MOL
REMARK 922        TOTAL FREE ENERGY PREDICTED BY IDOCK:   -6.67 KCAL/MOL
REMARK 923 INTER-LIGAND FREE ENERGY PREDICTED BY IDOCK:   -6.03 KCAL/MOL
REMARK 924 INTRA-LIGAND FREE ENERGY PREDICTED BY IDOCK:   -0.64 KCAL/MOL
REMARK 927      BINDING AFFINITY PREDICTED BY RF-SCORE:    0.00 PKD
ROOT
HETATM    1  C   UNL     1     -11.003  11.926  63.328  1.00  0.00    -0.321 C  
HETATM    2  O   UNL     1      -9.795  11.305  62.899  1.00  0.00    -0.322 OA 
ENDROOT
BRANCH   2   3
HETATM    3  C   UNL     1      -9.166  10.556  63.854  1.00  0.00    -0.256 A  
HETATM    4  C   UNL     1      -9.963  10.131  64.916  1.00  0.00    -0.358 A  
HETATM    5  C   UNL     1      -9.408   9.398  65.968  1.00  0.00    -0.279 A  
HETATM    6  C   UNL     1      -8.050   9.054  65.950  1.00  0.00    -0.108 A  
HETATM    7  C   UNL     1      -7.824  10.186  63.814  1.00  0.00    -0.149 A  
HETATM    8  C   UNL     1      -7.268   9.442  64.856  1.00  0.00    -0.106 A  
BRANCH   6   9
HETATM    9  C   UNL     1      -7.391   8.385  67.133  1.00  0.00    -0.085 C  
BRANCH   9  10
HETATM   10  C   UNL     1      -6.826   9.327  68.225  1.00  0.00    -0.064 C  
HETATM   11  C   UNL     1      -5.314   9.508  68.050  1.00  0.00    -0.040 C  
BRANCH  10  12
HETATM   12  N   UNL     1      -7.447  10.669  68.210  1.00  0.00    -0.088 NA 
HETATM   13  H   UNL     1      -7.703  10.942  67.261  1.00  0.00     0.000 HD 
BRANCH  12  14
HETATM   14  C   UNL     1      -8.598  10.776  69.116  1.00  0.00    -0.088 C  
BRANCH  14  15
HETATM   15  C   UNL     1      -9.844  11.432  68.466  1.00  0.00    -0.198 C  
HETATM   16  H   UNL     1     -11.606  12.054  69.071  1.00  0.00     0.000 HD 
HETATM   17  O   UNL     1     -10.843  11.653  69.470  1.00  0.00    -0.160 OA 
BRANCH  15  18
HETATM   18  C   UNL     1      -9.478  12.752  67.798  1.00  0.00    -0.205 A  
HETATM   19  C   UNL     1     -10.131  13.182  66.623  1.00  0.00    -0.264 A  
HETATM   20  C   UNL     1      -9.822  14.407  66.021  1.00  0.00    -0.319 A  
HETATM   21  H   UNL     1      -7.795  16.952  66.473  1.00  0.00     0.000 HD 
HETATM   22  C   UNL     1      -8.847  15.214  66.618  1.00  0.00    -0.286 A  
HETATM   23  C   UNL     1      -8.505  13.584  68.366  1.00  0.00    -0.143 A  
HETATM   24  C   UNL     1      -8.198  14.814  67.782  1.00  0.00    -0.167 A  
HETATM   25  O   UNL     1      -8.457  16.404  66.068  1.00  0.00    -0.347 OA 
BRANCH  20  26
HETATM   26  N   UNL     1     -10.482  14.864  64.865  1.00  0.00    -0.495 N  
HETATM   27  H   UNL     1     -10.144  14.497  63.975  1.00  0.00     0.000 HD 
HETATM   28  O   UNL     1     -12.010  16.106  63.738  1.00  0.00    -0.926 OA 
HETATM   29  C   UNL     1     -11.521  15.742  64.802  1.00  0.00    -0.255 C  
ENDBRANCH  20  26
ENDBRANCH  15  18
ENDBRANCH  14  15
ENDBRANCH  12  14
ENDBRANCH  10  12
ENDBRANCH   9  10
ENDBRANCH   6   9
ENDBRANCH   2   3
TORSDOF 8
ENDMDL
MODEL      328
REMARK 921   NORMALIZED FREE ENERGY PREDICTED BY IDOCK:   -3.52 KCAL/MOL
REMARK 922        TOTAL FREE ENERGY PREDICTED BY IDOCK:   -6.67 KCAL/MOL
REMARK 923 INTER-LIGAND FREE ENERGY PREDICTED BY IDOCK:   -5.89 KCAL/MOL
REMARK 924 INTRA-LIGAND FREE ENERGY PREDICTED BY IDOCK:   -0.78 KCAL/MOL
REMARK 927      BINDING AFFINITY PREDICTED BY RF-SCORE:    0.00 PKD
ROOT
HETATM    1  C   UNL     1      -7.632   8.224  74.383  1.00  0.00    -0.223 C  
HETATM    2  O   UNL     1      -7.148   7.013  73.809  1.00  0.00    -0.073 OA 
ENDROOT
BRANCH   2   3
HETATM    3  C   UNL     1      -7.862   6.565  72.733  1.00  0.00    -0.102 A  
HETATM    4  C   UNL     1      -9.234   6.811  72.768  1.00  0.00    -0.149 A  
HETATM    5  C   UNL     1     -10.060   6.354  71.738  1.00  0.00    -0.206 A  
HETATM    6  C   UNL     1      -9.515   5.672  70.643  1.00  0.00    -0.203 A  
HETATM    7  C   UNL     1      -7.309   5.919  71.630  1.00  0.00    -0.092 A  
HETATM    8  C   UNL     1      -8.130   5.473  70.592  1.00  0.00    -0.115 A  
BRANCH   6   9
HETATM    9  C   UNL     1     -10.393   5.046  69.587  1.00  0.00    -0.260 C  
BRANCH   9  10
HETATM   10  C   UNL     1      -9.892   5.157  68.126  1.00  0.00    -0.151 C  
HETATM   11  C   UNL     1      -9.451   3.786  67.603  1.00  0.00    -0.234 C  
BRANCH  10  12
HETATM   12  N   UNL     1     -10.918   5.685  67.200  1.00  0.00    -0.409 NA 
HETATM   13  H   UNL     1     -11.853   5.398  67.489  1.00  0.00     0.000 HD 
BRANCH  12  14
HETATM   14  C   UNL     1     -10.843   7.143  67.037  1.00  0.00    -0.312 C  
BRANCH  14  15
HETATM   15  C   UNL     1      -9.923   7.840  68.072  1.00  0.00    -0.175 C  
HETATM   16  H   UNL     1      -8.053   8.438  68.141  1.00  0.00     0.000 HD 
HETATM   17  O   UNL     1      -8.617   8.012  67.507  1.00  0.00    -0.125 OA 
BRANCH  15  18
HETATM   18  C   UNL     1     -10.493   9.192  68.484  1.00  0.00    -0.238 A  
HETATM   19  C   UNL     1     -10.682  10.223  67.538  1.00  0.00    -0.348 A  
HETATM   20  C   UNL     1     -11.234  11.456  67.902  1.00  0.00    -0.288 A  
HETATM   21  H   UNL     1     -12.365  12.972  70.588  1.00  0.00     0.000 HD 
HETATM   22  C   UNL     1     -11.607  11.650  69.237  1.00  0.00    -0.320 A  
HETATM   23  C   UNL     1     -10.875   9.422  69.812  1.00  0.00    -0.250 A  
HETATM   24  C   UNL     1     -11.438  10.643  70.183  1.00  0.00    -0.411 A  
HETATM   25  O   UNL     1     -12.112  12.840  69.682  1.00  0.00    -0.289 OA 
BRANCH  20  26
HETATM   26  N   UNL     1     -11.455  12.486  66.969  1.00  0.00    -0.334 N  
HETATM   27  H   UNL     1     -12.337  12.991  67.052  1.00  0.00     0.000 HD 
HETATM   28  O   UNL     1     -10.919  13.774  65.180  1.00  0.00    -0.309 OA 
HETATM   29  C   UNL     1     -10.621  12.883  65.967  1.00  0.00    -0.270 C  
ENDBRANCH  20  26
ENDBRANCH  15  18
ENDBRANCH  14  15
ENDBRANCH  12  14
ENDBRANCH  10  12
ENDBRANCH   9  10
ENDBRANCH   6   9
ENDBRANCH   2   3
TORSDOF 8
ENDMDL
MODEL      329
REMARK 921   NORMALIZED FREE ENERGY PREDICTED BY IDOCK:   -3.52 KCAL/MOL
REMARK 922        TOTAL FREE ENERGY PREDICTED BY IDOCK:   -6.66 KCAL/MOL
REMARK 923 INTER-LIGAND FREE ENERGY PREDICTED BY IDOCK:   -6.38 KCAL/MOL
REMARK 924 INTRA-LIGAND FREE ENERGY PREDICTED BY IDOCK:   -0.28 KCAL/MOL
REMARK 927      BINDING AFFINITY PREDICTED BY RF-SCORE:    0.00 PKD
ROOT
HETATM    1  C   UNL     1     -12.608  14.287  65.345  1.00  0.00    -0.410 C  
HETATM    2  O   UNL     1     -11.921  13.662  64.264  1.00  0.00    -0.410 OA 
ENDROOT
BRANCH   2   3
HETATM    3  C   UNL     1     -11.231  12.531  64.603  1.00  0.00    -0.312 A  
HETATM    4  C   UNL     1     -10.641  11.840  63.546  1.00  0.00    -0.499 A  
HETATM    5  C   UNL     1      -9.950  10.648  63.779  1.00  0.00    -0.379 A  
HETATM    6  C   UNL     1      -9.815  10.152  65.082  1.00  0.00    -0.394 A  
HETATM    7  C   UNL     1     -11.070  12.062  65.904  1.00  0.00    -0.369 A  
HETATM    8  C   UNL     1     -10.369  10.878  66.142  1.00  0.00    -0.305 A  
BRANCH   6   9
HETATM    9  C   UNL     1      -9.198   8.800  65.351  1.00  0.00    -0.155 C  
BRANCH   9  10
HETATM   10  C   UNL     1      -8.277   8.703  66.592  1.00  0.00    -0.107 C  
HETATM   11  C   UNL     1      -7.513  10.015  66.799  1.00  0.00    -0.096 C  
BRANCH  10  12
HETATM   12  N   UNL     1      -9.014   8.406  67.839  1.00  0.00    -0.137 NA 
HETATM   13  H   UNL     1      -9.449   7.485  67.795  1.00  0.00     0.000 HD 
BRANCH  12  14
HETATM   14  C   UNL     1      -8.180   8.536  69.041  1.00  0.00    -0.116 C  
BRANCH  14  15
HETATM   15  C   UNL     1      -8.924   9.158  70.252  1.00  0.00    -0.217 C  
HETATM   16  H   UNL     1     -10.419  10.405  70.518  1.00  0.00     0.000 HD 
HETATM   17  O   UNL     1      -9.964  10.024  69.777  1.00  0.00    -0.225 OA 
BRANCH  15  18
HETATM   18  C   UNL     1      -9.517   8.073  71.142  1.00  0.00    -0.181 A  
HETATM   19  C   UNL     1      -9.093   6.731  71.038  1.00  0.00    -0.156 A  
HETATM   20  C   UNL     1      -9.610   5.734  71.872  1.00  0.00    -0.151 A  
HETATM   21  H   UNL     1     -11.794   5.423  74.306  1.00  0.00     0.000 HD 
HETATM   22  C   UNL     1     -10.562   6.097  72.832  1.00  0.00    -0.232 A  
HETATM   23  C   UNL     1     -10.474   8.400  72.111  1.00  0.00    -0.396 A  
HETATM   24  C   UNL     1     -10.987   7.417  72.957  1.00  0.00    -0.422 A  
HETATM   25  O   UNL     1     -11.148   5.176  73.655  1.00  0.00    -0.308 OA 
BRANCH  20  26
HETATM   26  N   UNL     1      -9.180   4.396  71.801  1.00  0.00    -0.129 N  
HETATM   27  H   UNL     1      -8.457   4.116  72.463  1.00  0.00     0.000 HD 
HETATM   28  O   UNL     1      -9.161   2.297  70.939  1.00  0.00    -0.099 OA 
HETATM   29  C   UNL     1      -9.624   3.432  70.946  1.00  0.00    -0.169 C  
ENDBRANCH  20  26
ENDBRANCH  15  18
ENDBRANCH  14  15
ENDBRANCH  12  14
ENDBRANCH  10  12
ENDBRANCH   9  10
ENDBRANCH   6   9
ENDBRANCH   2   3
TORSDOF 8
ENDMDL
MODEL      330
REMARK 921   NORMALIZED FREE ENERGY PREDICTED BY IDOCK:   -3.52 KCAL/MOL
REMARK 922        TOTAL FREE ENERGY PREDICTED BY IDOCK:   -6.65 KCAL/MOL
REMARK 923 INTER-LIGAND FREE ENERGY PREDICTED BY IDOCK:   -6.02 KCAL/MOL
REMARK 924 INTRA-LIGAND FREE ENERGY PREDICTED BY IDOCK:   -0.63 KCAL/MOL
REMARK 927      BINDING AFFINITY PREDICTED BY RF-SCORE:    0.00 PKD
ROOT
HETATM    1  C   UNL     1      -9.635  20.685  66.960  1.00  0.00    -0.344 C  
HETATM    2  O   UNL     1      -8.690  19.795  67.546  1.00  0.00    -0.310 OA 
ENDROOT
BRANCH   2   3
HETATM    3  C   UNL     1      -9.193  18.570  67.887  1.00  0.00    -0.290 A  
HETATM    4  C   UNL     1      -8.315  17.716  68.552  1.00  0.00    -0.291 A  
HETATM    5  C   UNL     1      -8.716  16.425  68.906  1.00  0.00    -0.253 A  
HETATM    6  C   UNL     1     -10.017  15.987  68.625  1.00  0.00    -0.220 A  
HETATM    7  C   UNL     1     -10.498  18.153  67.637  1.00  0.00    -0.432 A  
HETATM    8  C   UNL     1     -10.907  16.869  68.001  1.00  0.00    -0.338 A  
BRANCH   6   9
HETATM    9  C   UNL     1     -10.437  14.557  68.867  1.00  0.00    -0.246 C  
BRANCH   9  10
HETATM   10  C   UNL     1      -9.517  13.463  68.271  1.00  0.00    -0.209 C  
HETATM   11  C   UNL     1      -9.228  13.750  66.793  1.00  0.00    -0.255 C  
BRANCH  10  12
HETATM   12  N   UNL     1      -8.220  13.350  68.972  1.00  0.00    -0.330 NA 
HETATM   13  H   UNL     1      -8.334  12.896  69.878  1.00  0.00     0.000 HD 
BRANCH  12  14
HETATM   14  C   UNL     1      -7.193  12.673  68.170  1.00  0.00    -0.109 C  
BRANCH  14  15
HETATM   15  C   UNL     1      -6.869  11.237  68.657  1.00  0.00    -0.076 C  
HETATM   16  H   UNL     1      -6.667  10.332  70.389  1.00  0.00     0.000 HD 
HETATM   17  O   UNL     1      -6.866  11.211  70.091  1.00  0.00    -0.159 OA 
BRANCH  15  18
HETATM   18  C   UNL     1      -7.887  10.237  68.122  1.00  0.00    -0.104 A  
HETATM   19  C   UNL     1      -8.283  10.254  66.767  1.00  0.00    -0.124 A  
HETATM   20  C   UNL     1      -9.194   9.320  66.261  1.00  0.00    -0.186 A  
HETATM   21  H   UNL     1     -10.981   6.773  67.315  1.00  0.00     0.000 HD 
HETATM   22  C   UNL     1      -9.706   8.350  67.131  1.00  0.00    -0.190 A  
HETATM   23  C   UNL     1      -8.421   9.255  68.965  1.00  0.00    -0.132 A  
HETATM   24  C   UNL     1      -9.321   8.311  68.468  1.00  0.00    -0.138 A  
HETATM   25  O   UNL     1     -10.633   7.431  66.725  1.00  0.00    -0.310 OA 
BRANCH  20  26
HETATM   26  N   UNL     1      -9.581   9.304  64.908  1.00  0.00    -0.420 N  
HETATM   27  H   UNL     1     -10.278   8.608  64.644  1.00  0.00     0.000 HD 
HETATM   28  O   UNL     1      -9.504  10.002  62.750  1.00  0.00    -0.295 OA 
HETATM   29  C   UNL     1      -9.128  10.116  63.912  1.00  0.00    -0.260 C  
ENDBRANCH  20  26
ENDBRANCH  15  18
ENDBRANCH  14  15
ENDBRANCH  12  14
ENDBRANCH  10  12
ENDBRANCH   9  10
ENDBRANCH   6   9
ENDBRANCH   2   3
TORSDOF 8
ENDMDL
MODEL      331
REMARK 921   NORMALIZED FREE ENERGY PREDICTED BY IDOCK:   -3.50 KCAL/MOL
REMARK 922        TOTAL FREE ENERGY PREDICTED BY IDOCK:   -6.62 KCAL/MOL
REMARK 923 INTER-LIGAND FREE ENERGY PREDICTED BY IDOCK:   -4.17 KCAL/MOL
REMARK 924 INTRA-LIGAND FREE ENERGY PREDICTED BY IDOCK:   -2.45 KCAL/MOL
REMARK 927      BINDING AFFINITY PREDICTED BY RF-SCORE:    0.00 PKD
ROOT
HETATM    1  C   UNL     1      -5.874   9.991  66.192  1.00  0.00    -0.063 C  
HETATM    2  O   UNL     1      -6.828   8.966  65.928  1.00  0.00    -0.071 OA 
ENDROOT
BRANCH   2   3
HETATM    3  C   UNL     1      -7.942   9.005  66.720  1.00  0.00    -0.107 A  
HETATM    4  C   UNL     1      -7.767   9.553  67.990  1.00  0.00    -0.087 A  
HETATM    5  C   UNL     1      -8.833   9.598  68.892  1.00  0.00    -0.136 A  
HETATM    6  C   UNL     1     -10.097   9.123  68.519  1.00  0.00    -0.212 A  
HETATM    7  C   UNL     1      -9.204   8.564  66.331  1.00  0.00    -0.251 A  
HETATM    8  C   UNL     1     -10.275   8.620  67.225  1.00  0.00    -0.337 A  
BRANCH   6   9
HETATM    9  C   UNL     1     -11.229   9.030  69.514  1.00  0.00     0.053 C  
BRANCH   9  10
HETATM   10  C   UNL     1     -11.028   8.044  70.690  1.00  0.00    -0.245 C  
HETATM   11  C   UNL     1     -11.417   8.704  72.018  1.00  0.00    -0.437 C  
BRANCH  10  12
HETATM   12  N   UNL     1     -11.824   6.805  70.551  1.00  0.00    -0.477 NA 
HETATM   13  H   UNL     1     -12.588   6.935  69.888  1.00  0.00     0.000 HD 
BRANCH  12  14
HETATM   14  C   UNL     1     -11.007   5.639  70.188  1.00  0.00    -0.233 C  
BRANCH  14  15
HETATM   15  C   UNL     1      -9.481   5.881  70.323  1.00  0.00    -0.162 C  
HETATM   16  H   UNL     1      -8.018   5.168  71.423  1.00  0.00     0.000 HD 
HETATM   17  O   UNL     1      -8.952   5.020  71.340  1.00  0.00    -0.131 OA 
BRANCH  15  18
HETATM   18  C   UNL     1      -8.770   5.620  69.001  1.00  0.00    -0.104 A  
HETATM   19  C   UNL     1      -9.443   5.017  67.916  1.00  0.00    -0.164 A  
HETATM   20  C   UNL     1      -8.806   4.802  66.689  1.00  0.00    -0.110 A  
HETATM   21  H   UNL     1      -5.864   5.271  65.305  1.00  0.00     0.000 HD 
HETATM   22  C   UNL     1      -7.474   5.209  66.550  1.00  0.00    -0.087 A  
HETATM   23  C   UNL     1      -7.437   6.011  68.828  1.00  0.00    -0.086 A  
HETATM   24  C   UNL     1      -6.795   5.814  67.604  1.00  0.00    -0.060 A  
HETATM   25  O   UNL     1      -6.768   4.995  65.399  1.00  0.00    -0.049 OA 
BRANCH  20  26
HETATM   26  N   UNL     1      -9.469   4.226  65.589  1.00  0.00    -0.162 N  
HETATM   27  H   UNL     1      -8.920   3.589  65.012  1.00  0.00     0.000 HD 
HETATM   28  O   UNL     1     -11.241   3.902  64.209  1.00  0.00    -0.335 OA 
HETATM   29  C   UNL     1     -10.762   4.427  65.208  1.00  0.00    -0.117 C  
ENDBRANCH  20  26
ENDBRANCH  15  18
ENDBRANCH  14  15
ENDBRANCH  12  14
ENDBRANCH  10  12
ENDBRANCH   9  10
ENDBRANCH   6   9
ENDBRANCH   2   3
TORSDOF 8
ENDMDL
MODEL      332
REMARK 921   NORMALIZED FREE ENERGY PREDICTED BY IDOCK:   -3.49 KCAL/MOL
REMARK 922        TOTAL FREE ENERGY PREDICTED BY IDOCK:   -6.62 KCAL/MOL
REMARK 923 INTER-LIGAND FREE ENERGY PREDICTED BY IDOCK:   -5.50 KCAL/MOL
REMARK 924 INTRA-LIGAND FREE ENERGY PREDICTED BY IDOCK:   -1.12 KCAL/MOL
REMARK 927      BINDING AFFINITY PREDICTED BY RF-SCORE:    0.00 PKD
ROOT
HETATM    1  C   UNL     1     -10.002   8.744  72.135  1.00  0.00    -0.289 C  
HETATM    2  O   UNL     1     -11.342   8.866  71.667  1.00  0.00    -0.288 OA 
ENDROOT
BRANCH   2   3
HETATM    3  C   UNL     1     -11.531   9.832  70.718  1.00  0.00    -0.342 A  
HETATM    4  C   UNL     1     -11.087   9.520  69.434  1.00  0.00    -0.136 A  
HETATM    5  C   UNL     1     -11.193  10.455  68.402  1.00  0.00    -0.318 A  
HETATM    6  C   UNL     1     -11.776  11.707  68.639  1.00  0.00    -0.386 A  
HETATM    7  C   UNL     1     -12.144  11.061  70.951  1.00  0.00    -0.444 A  
HETATM    8  C   UNL     1     -12.263  11.994  69.920  1.00  0.00    -0.249 A  
BRANCH   6   9
HETATM    9  C   UNL     1     -11.779  12.788  67.585  1.00  0.00    -0.422 C  
BRANCH   9  10
HETATM   10  C   UNL     1     -10.410  13.439  67.268  1.00  0.00    -0.244 C  
HETATM   11  C   UNL     1      -9.852  14.148  68.507  1.00  0.00    -0.230 C  
BRANCH  10  12
HETATM   12  N   UNL     1      -9.397  12.464  66.809  1.00  0.00    -0.216 NA 
HETATM   13  H   UNL     1      -9.382  12.406  65.791  1.00  0.00     0.000 HD 
BRANCH  12  14
HETATM   14  C   UNL     1      -8.055  12.742  67.339  1.00  0.00    -0.185 C  
BRANCH  14  15
HETATM   15  C   UNL     1      -7.253  11.465  67.702  1.00  0.00    -0.097 C  
HETATM   16  H   UNL     1      -7.173  10.214  69.215  1.00  0.00     0.000 HD 
HETATM   17  O   UNL     1      -7.665  10.996  68.992  1.00  0.00    -0.131 OA 
BRANCH  15  18
HETATM   18  C   UNL     1      -7.465  10.374  66.660  1.00  0.00    -0.114 A  
HETATM   19  C   UNL     1      -8.168   9.192  66.974  1.00  0.00    -0.116 A  
HETATM   20  C   UNL     1      -8.394   8.199  66.015  1.00  0.00    -0.131 A  
HETATM   21  H   UNL     1      -7.725   7.605  62.854  1.00  0.00     0.000 HD 
HETATM   22  C   UNL     1      -7.912   8.405  64.717  1.00  0.00    -0.138 A  
HETATM   23  C   UNL     1      -6.993  10.546  65.352  1.00  0.00    -0.074 A  
HETATM   24  C   UNL     1      -7.224   9.568  64.384  1.00  0.00    -0.111 A  
HETATM   25  O   UNL     1      -8.053   7.465  63.734  1.00  0.00    -0.111 OA 
BRANCH  20  26
HETATM   26  N   UNL     1      -9.116   7.025  66.302  1.00  0.00    -0.207 N  
HETATM   27  H   UNL     1      -8.616   6.144  66.184  1.00  0.00     0.000 HD 
HETATM   28  O   UNL     1     -10.963   5.859  66.915  1.00  0.00    -0.299 OA 
HETATM   29  C   UNL     1     -10.410   6.935  66.721  1.00  0.00    -0.217 C  
ENDBRANCH  20  26
ENDBRANCH  15  18
ENDBRANCH  14  15
ENDBRANCH  12  14
ENDBRANCH  10  12
ENDBRANCH   9  10
ENDBRANCH   6   9
ENDBRANCH   2   3
TORSDOF 8
ENDMDL
MODEL      333
REMARK 921   NORMALIZED FREE ENERGY PREDICTED BY IDOCK:   -3.48 KCAL/MOL
REMARK 922        TOTAL FREE ENERGY PREDICTED BY IDOCK:   -6.61 KCAL/MOL
REMARK 923 INTER-LIGAND FREE ENERGY PREDICTED BY IDOCK:   -5.35 KCAL/MOL
REMARK 924 INTRA-LIGAND FREE ENERGY PREDICTED BY IDOCK:   -1.26 KCAL/MOL
REMARK 927      BINDING AFFINITY PREDICTED BY RF-SCORE:    0.00 PKD
ROOT
HETATM    1  C   UNL     1     -13.788   9.192  71.496  1.00  0.00    -0.294 C  
HETATM    2  O   UNL     1     -12.644   9.305  72.337  1.00  0.00    -0.351 OA 
ENDROOT
BRANCH   2   3
HETATM    3  C   UNL     1     -11.524   8.678  71.867  1.00  0.00    -0.348 A  
HETATM    4  C   UNL     1     -11.438   7.310  72.124  1.00  0.00    -0.310 A  
HETATM    5  C   UNL     1     -10.314   6.585  71.724  1.00  0.00    -0.229 A  
HETATM    6  C   UNL     1      -9.273   7.217  71.031  1.00  0.00    -0.154 A  
HETATM    7  C   UNL     1     -10.509   9.305  71.147  1.00  0.00    -0.401 A  
HETATM    8  C   UNL     1      -9.390   8.580  70.734  1.00  0.00    -0.206 A  
BRANCH   6   9
HETATM    9  C   UNL     1      -7.986   6.496  70.709  1.00  0.00    -0.115 C  
BRANCH   9  10
HETATM   10  C   UNL     1      -7.546   6.509  69.225  1.00  0.00    -0.100 C  
HETATM   11  C   UNL     1      -8.687   6.029  68.321  1.00  0.00    -0.113 C  
BRANCH  10  12
HETATM   12  N   UNL     1      -7.130   7.848  68.756  1.00  0.00    -0.070 NA 
HETATM   13  H   UNL     1      -6.329   8.188  69.287  1.00  0.00     0.000 HD 
BRANCH  12  14
HETATM   14  C   UNL     1      -6.860   7.890  67.313  1.00  0.00    -0.070 C  
BRANCH  14  15
HETATM   15  C   UNL     1      -7.077   9.289  66.678  1.00  0.00    -0.082 C  
HETATM   16  H   UNL     1      -7.153  10.033  64.861  1.00  0.00     0.000 HD 
HETATM   17  O   UNL     1      -7.020   9.176  65.250  1.00  0.00    -0.082 OA 
BRANCH  15  18
HETATM   18  C   UNL     1      -8.419   9.875  67.100  1.00  0.00    -0.121 A  
HETATM   19  C   UNL     1      -8.519  11.201  67.575  1.00  0.00    -0.126 A  
HETATM   20  C   UNL     1      -9.751  11.757  67.935  1.00  0.00    -0.185 A  
HETATM   21  H   UNL     1     -12.915  10.887  68.092  1.00  0.00     0.000 HD 
HETATM   22  C   UNL     1     -10.900  10.968  67.807  1.00  0.00    -0.249 A  
HETATM   23  C   UNL     1      -9.588   9.113  66.988  1.00  0.00    -0.223 A  
HETATM   24  C   UNL     1     -10.824   9.662  67.332  1.00  0.00    -0.242 A  
HETATM   25  O   UNL     1     -12.135  11.422  68.179  1.00  0.00    -0.623 OA 
BRANCH  20  26
HETATM   26  N   UNL     1      -9.874  13.085  68.385  1.00  0.00    -0.288 N  
HETATM   27  H   UNL     1     -10.737  13.319  68.875  1.00  0.00     0.000 HD 
HETATM   28  O   UNL     1      -9.182  15.231  68.639  1.00  0.00    -0.184 OA 
HETATM   29  C   UNL     1      -8.968  14.092  68.238  1.00  0.00    -0.190 C  
ENDBRANCH  20  26
ENDBRANCH  15  18
ENDBRANCH  14  15
ENDBRANCH  12  14
ENDBRANCH  10  12
ENDBRANCH   9  10
ENDBRANCH   6   9
ENDBRANCH   2   3
TORSDOF 8
ENDMDL
MODEL      334
REMARK 921   NORMALIZED FREE ENERGY PREDICTED BY IDOCK:   -3.48 KCAL/MOL
REMARK 922        TOTAL FREE ENERGY PREDICTED BY IDOCK:   -6.60 KCAL/MOL
REMARK 923 INTER-LIGAND FREE ENERGY PREDICTED BY IDOCK:   -6.43 KCAL/MOL
REMARK 924 INTRA-LIGAND FREE ENERGY PREDICTED BY IDOCK:   -0.17 KCAL/MOL
REMARK 927      BINDING AFFINITY PREDICTED BY RF-SCORE:    0.00 PKD
ROOT
HETATM    1  C   UNL     1      -8.304   3.855  73.872  1.00  0.00    -0.091 C  
HETATM    2  O   UNL     1      -7.147   4.608  73.519  1.00  0.00    -0.068 OA 
ENDROOT
BRANCH   2   3
HETATM    3  C   UNL     1      -7.403   5.753  72.817  1.00  0.00    -0.092 A  
HETATM    4  C   UNL     1      -6.690   5.910  71.629  1.00  0.00    -0.059 A  
HETATM    5  C   UNL     1      -6.845   7.065  70.859  1.00  0.00    -0.054 A  
HETATM    6  C   UNL     1      -7.742   8.065  71.256  1.00  0.00    -0.090 A  
HETATM    7  C   UNL     1      -8.323   6.726  73.198  1.00  0.00    -0.125 A  
HETATM    8  C   UNL     1      -8.490   7.876  72.424  1.00  0.00    -0.189 A  
BRANCH   6   9
HETATM    9  C   UNL     1      -7.830   9.382  70.524  1.00  0.00    -0.185 C  
BRANCH   9  10
HETATM   10  C   UNL     1      -8.771   9.422  69.295  1.00  0.00    -0.145 C  
HETATM   11  C   UNL     1      -9.771   8.262  69.346  1.00  0.00    -0.177 C  
BRANCH  10  12
HETATM   12  N   UNL     1      -9.541  10.680  69.194  1.00  0.00    -0.285 NA 
HETATM   13  H   UNL     1      -9.315  11.178  68.334  1.00  0.00     0.000 HD 
BRANCH  12  14
HETATM   14  C   UNL     1     -10.990  10.475  69.317  1.00  0.00    -0.244 C  
BRANCH  14  15
HETATM   15  C   UNL     1     -11.836  11.545  68.579  1.00  0.00    -0.297 C  
HETATM   16  H   UNL     1     -12.350  13.417  68.886  1.00  0.00     0.000 HD 
HETATM   17  O   UNL     1     -11.832  12.761  69.338  1.00  0.00    -0.296 OA 
BRANCH  15  18
HETATM   18  C   UNL     1     -11.286  11.804  67.181  1.00  0.00    -0.375 A  
HETATM   19  C   UNL     1     -11.368  13.083  66.590  1.00  0.00    -0.366 A  
HETATM   20  C   UNL     1     -10.839  13.336  65.320  1.00  0.00    -0.301 A  
HETATM   21  H   UNL     1      -9.278  11.729  62.917  1.00  0.00     0.000 HD 
HETATM   22  C   UNL     1     -10.209  12.287  64.640  1.00  0.00    -0.285 A  
HETATM   23  C   UNL     1     -10.652  10.777  66.471  1.00  0.00    -0.279 A  
HETATM   24  C   UNL     1     -10.109  11.021  65.209  1.00  0.00    -0.332 A  
HETATM   25  O   UNL     1      -9.705  12.441  63.378  1.00  0.00    -0.312 OA 
BRANCH  20  26
HETATM   26  N   UNL     1     -10.888  14.611  64.725  1.00  0.00    -0.538 N  
HETATM   27  H   UNL     1      -9.992  15.032  64.481  1.00  0.00     0.000 HD 
HETATM   28  O   UNL     1     -11.938  16.465  63.946  1.00  0.00    -1.023 OA 
HETATM   29  C   UNL     1     -12.000  15.344  64.438  1.00  0.00    -0.228 C  
ENDBRANCH  20  26
ENDBRANCH  15  18
ENDBRANCH  14  15
ENDBRANCH  12  14
ENDBRANCH  10  12
ENDBRANCH   9  10
ENDBRANCH   6   9
ENDBRANCH   2   3
TORSDOF 8
ENDMDL
MODEL      335
REMARK 921   NORMALIZED FREE ENERGY PREDICTED BY IDOCK:   -3.47 KCAL/MOL
REMARK 922        TOTAL FREE ENERGY PREDICTED BY IDOCK:   -6.59 KCAL/MOL
REMARK 923 INTER-LIGAND FREE ENERGY PREDICTED BY IDOCK:   -6.49 KCAL/MOL
REMARK 924 INTRA-LIGAND FREE ENERGY PREDICTED BY IDOCK:   -0.10 KCAL/MOL
REMARK 927      BINDING AFFINITY PREDICTED BY RF-SCORE:    0.00 PKD
ROOT
HETATM    1  C   UNL     1      -8.145   8.764  63.531  1.00  0.00    -0.170 C  
HETATM    2  O   UNL     1      -9.179   9.576  62.984  1.00  0.00    -0.226 OA 
ENDROOT
BRANCH   2   3
HETATM    3  C   UNL     1      -9.595  10.596  63.795  1.00  0.00    -0.306 A  
HETATM    4  C   UNL     1     -10.777  11.231  63.416  1.00  0.00    -0.349 A  
HETATM    5  C   UNL     1     -11.265  12.313  64.152  1.00  0.00    -0.430 A  
HETATM    6  C   UNL     1     -10.588  12.752  65.298  1.00  0.00    -0.312 A  
HETATM    7  C   UNL     1      -8.938  11.004  64.953  1.00  0.00    -0.115 A  
HETATM    8  C   UNL     1      -9.430  12.077  65.699  1.00  0.00    -0.150 A  
BRANCH   6   9
HETATM    9  C   UNL     1     -11.010  14.002  66.033  1.00  0.00    -0.298 C  
BRANCH   9  10
HETATM   10  C   UNL     1     -11.180  13.871  67.566  1.00  0.00    -0.303 C  
HETATM   11  C   UNL     1     -11.473  12.417  67.952  1.00  0.00    -0.385 C  
BRANCH  10  12
HETATM   12  N   UNL     1      -9.986  14.308  68.321  1.00  0.00    -0.232 NA 
HETATM   13  H   UNL     1      -9.587  13.534  68.852  1.00  0.00     0.000 HD 
BRANCH  12  14
HETATM   14  C   UNL     1      -8.970  14.939  67.469  1.00  0.00    -0.185 C  
BRANCH  14  15
HETATM   15  C   UNL     1      -7.785  15.552  68.261  1.00  0.00    -0.115 C  
HETATM   16  H   UNL     1      -5.930  15.048  68.666  1.00  0.00     0.000 HD 
HETATM   17  O   UNL     1      -6.656  14.673  68.181  1.00  0.00    -0.107 OA 
BRANCH  15  18
HETATM   18  C   UNL     1      -7.415  16.924  67.711  1.00  0.00    -0.176 A  
HETATM   19  C   UNL     1      -6.876  17.924  68.548  1.00  0.00    -0.236 A  
HETATM   20  C   UNL     1      -6.505  19.176  68.045  1.00  0.00    -0.228 A  
HETATM   21  H   UNL     1      -6.489  20.797  65.188  1.00  0.00     0.000 HD 
HETATM   22  C   UNL     1      -6.672  19.420  66.677  1.00  0.00    -0.193 A  
HETATM   23  C   UNL     1      -7.572  17.203  66.348  1.00  0.00    -0.347 A  
HETATM   24  C   UNL     1      -7.193  18.444  65.833  1.00  0.00    -0.267 A  
HETATM   25  O   UNL     1      -6.375  20.631  66.116  1.00  0.00    -0.219 OA 
BRANCH  20  26
HETATM   26  N   UNL     1      -5.940  20.176  68.859  1.00  0.00    -0.276 N  
HETATM   27  H   UNL     1      -5.368  20.876  68.386  1.00  0.00     0.000 HD 
HETATM   28  O   UNL     1      -5.513  21.206  70.835  1.00  0.00    -0.532 OA 
HETATM   29  C   UNL     1      -6.074  20.314  70.208  1.00  0.00    -0.327 C  
ENDBRANCH  20  26
ENDBRANCH  15  18
ENDBRANCH  14  15
ENDBRANCH  12  14
ENDBRANCH  10  12
ENDBRANCH   9  10
ENDBRANCH   6   9
ENDBRANCH   2   3
TORSDOF 8
ENDMDL
MODEL      336
REMARK 921   NORMALIZED FREE ENERGY PREDICTED BY IDOCK:   -3.47 KCAL/MOL
REMARK 922        TOTAL FREE ENERGY PREDICTED BY IDOCK:   -6.58 KCAL/MOL
REMARK 923 INTER-LIGAND FREE ENERGY PREDICTED BY IDOCK:   -5.67 KCAL/MOL
REMARK 924 INTRA-LIGAND FREE ENERGY PREDICTED BY IDOCK:   -0.91 KCAL/MOL
REMARK 927      BINDING AFFINITY PREDICTED BY RF-SCORE:    0.00 PKD
ROOT
HETATM    1  C   UNL     1      -7.035  19.492  69.171  1.00  0.00    -0.357 C  
HETATM    2  O   UNL     1      -8.293  19.327  68.522  1.00  0.00    -0.344 OA 
ENDROOT
BRANCH   2   3
HETATM    3  C   UNL     1      -8.539  18.063  68.065  1.00  0.00    -0.264 A  
HETATM    4  C   UNL     1      -7.653  17.579  67.104  1.00  0.00    -0.225 A  
HETATM    5  C   UNL     1      -7.843  16.315  66.540  1.00  0.00    -0.298 A  
HETATM    6  C   UNL     1      -8.907  15.506  66.958  1.00  0.00    -0.255 A  
HETATM    7  C   UNL     1      -9.578  17.249  68.511  1.00  0.00    -0.291 A  
HETATM    8  C   UNL     1      -9.763  15.980  67.960  1.00  0.00    -0.217 A  
BRANCH   6   9
HETATM    9  C   UNL     1      -9.221  14.198  66.272  1.00  0.00    -0.152 C  
BRANCH   9  10
HETATM   10  C   UNL     1     -10.691  13.990  65.834  1.00  0.00    -0.293 C  
HETATM   11  C   UNL     1     -11.115  15.075  64.838  1.00  0.00    -0.425 C  
BRANCH  10  12
HETATM   12  N   UNL     1     -10.926  12.676  65.198  1.00  0.00    -0.284 NA 
HETATM   13  H   UNL     1     -10.147  12.420  64.591  1.00  0.00     0.000 HD 
BRANCH  12  14
HETATM   14  C   UNL     1     -11.205  11.611  66.171  1.00  0.00    -0.254 C  
BRANCH  14  15
HETATM   15  C   UNL     1     -10.303  10.361  66.002  1.00  0.00    -0.192 C  
HETATM   16  H   UNL     1      -8.864   9.795  64.789  1.00  0.00     0.000 HD 
HETATM   17  O   UNL     1      -9.416  10.561  64.893  1.00  0.00    -0.207 OA 
BRANCH  15  18
HETATM   18  C   UNL     1      -9.498  10.096  67.269  1.00  0.00    -0.178 A  
HETATM   19  C   UNL     1     -10.117   9.602  68.437  1.00  0.00    -0.199 A  
HETATM   20  C   UNL     1      -9.380   9.327  69.594  1.00  0.00    -0.179 A  
HETATM   21  H   UNL     1      -6.276   9.491  70.657  1.00  0.00     0.000 HD 
HETATM   22  C   UNL     1      -7.998   9.545  69.570  1.00  0.00    -0.110 A  
HETATM   23  C   UNL     1      -8.113  10.306  67.281  1.00  0.00    -0.120 A  
HETATM   24  C   UNL     1      -7.366  10.023  68.426  1.00  0.00    -0.077 A  
HETATM   25  O   UNL     1      -7.214   9.343  70.672  1.00  0.00    -0.106 OA 
BRANCH  20  26
HETATM   26  N   UNL     1      -9.975   8.808  70.759  1.00  0.00    -0.199 N  
HETATM   27  H   UNL     1      -9.963   9.411  71.582  1.00  0.00     0.000 HD 
HETATM   28  O   UNL     1     -11.031   7.214  71.981  1.00  0.00    -0.226 OA 
HETATM   29  C   UNL     1     -10.567   7.590  70.910  1.00  0.00    -0.220 C  
ENDBRANCH  20  26
ENDBRANCH  15  18
ENDBRANCH  14  15
ENDBRANCH  12  14
ENDBRANCH  10  12
ENDBRANCH   9  10
ENDBRANCH   6   9
ENDBRANCH   2   3
TORSDOF 8
ENDMDL
MODEL      337
REMARK 921   NORMALIZED FREE ENERGY PREDICTED BY IDOCK:   -3.46 KCAL/MOL
REMARK 922        TOTAL FREE ENERGY PREDICTED BY IDOCK:   -6.58 KCAL/MOL
REMARK 923 INTER-LIGAND FREE ENERGY PREDICTED BY IDOCK:   -5.84 KCAL/MOL
REMARK 924 INTRA-LIGAND FREE ENERGY PREDICTED BY IDOCK:   -0.73 KCAL/MOL
REMARK 927      BINDING AFFINITY PREDICTED BY RF-SCORE:    0.00 PKD
ROOT
HETATM    1  C   UNL     1     -10.547  15.627  65.484  1.00  0.00    -0.404 C  
HETATM    2  O   UNL     1     -11.708  14.809  65.598  1.00  0.00    -0.335 OA 
ENDROOT
BRANCH   2   3
HETATM    3  C   UNL     1     -11.509  13.620  66.243  1.00  0.00    -0.333 A  
HETATM    4  C   UNL     1     -10.711  12.692  65.576  1.00  0.00    -0.303 A  
HETATM    5  C   UNL     1     -10.482  11.430  66.129  1.00  0.00    -0.303 A  
HETATM    6  C   UNL     1     -11.026  11.095  67.375  1.00  0.00    -0.347 A  
HETATM    7  C   UNL     1     -12.022  13.306  67.499  1.00  0.00    -0.371 A  
HETATM    8  C   UNL     1     -11.785  12.050  68.060  1.00  0.00    -0.398 A  
BRANCH   6   9
HETATM    9  C   UNL     1     -10.915   9.696  67.934  1.00  0.00    -0.205 C  
BRANCH   9  10
HETATM   10  C   UNL     1      -9.518   9.275  68.453  1.00  0.00    -0.138 C  
HETATM   11  C   UNL     1      -8.793  10.472  69.078  1.00  0.00    -0.174 C  
BRANCH  10  12
HETATM   12  N   UNL     1      -9.576   8.200  69.467  1.00  0.00    -0.167 NA 
HETATM   13  H   UNL     1      -8.733   8.196  70.042  1.00  0.00     0.000 HD 
BRANCH  12  14
HETATM   14  C   UNL     1     -10.781   8.269  70.304  1.00  0.00    -0.235 C  
BRANCH  14  15
HETATM   15  C   UNL     1     -10.499   8.685  71.771  1.00  0.00    -0.324 C  
HETATM   16  H   UNL     1     -11.565   9.034  73.384  1.00  0.00     0.000 HD 
HETATM   17  O   UNL     1     -11.738   8.778  72.485  1.00  0.00    -0.326 OA 
BRANCH  15  18
HETATM   18  C   UNL     1      -9.580   7.679  72.454  1.00  0.00    -0.220 A  
HETATM   19  C   UNL     1      -9.954   6.325  72.592  1.00  0.00    -0.183 A  
HETATM   20  C   UNL     1      -9.103   5.390  73.191  1.00  0.00    -0.126 A  
HETATM   21  H   UNL     1      -6.136   5.277  74.596  1.00  0.00     0.000 HD 
HETATM   22  C   UNL     1      -7.854   5.824  73.649  1.00  0.00    -0.104 A  
HETATM   23  C   UNL     1      -8.324   8.080  72.927  1.00  0.00    -0.229 A  
HETATM   24  C   UNL     1      -7.462   7.152  73.514  1.00  0.00    -0.089 A  
HETATM   25  O   UNL     1      -6.983   4.982  74.284  1.00  0.00    -0.074 OA 
BRANCH  20  26
HETATM   26  N   UNL     1      -9.447   4.030  73.313  1.00  0.00    -0.111 N  
HETATM   27  H   UNL     1      -8.674   3.376  73.437  1.00  0.00     0.000 HD 
HETATM   28  O   UNL     1     -10.894   2.284  73.367  1.00  0.00    -0.145 OA 
HETATM   29  C   UNL     1     -10.698   3.491  73.285  1.00  0.00    -0.196 C  
ENDBRANCH  20  26
ENDBRANCH  15  18
ENDBRANCH  14  15
ENDBRANCH  12  14
ENDBRANCH  10  12
ENDBRANCH   9  10
ENDBRANCH   6   9
ENDBRANCH   2   3
TORSDOF 8
ENDMDL
MODEL      338
REMARK 921   NORMALIZED FREE ENERGY PREDICTED BY IDOCK:   -3.45 KCAL/MOL
REMARK 922        TOTAL FREE ENERGY PREDICTED BY IDOCK:   -6.55 KCAL/MOL
REMARK 923 INTER-LIGAND FREE ENERGY PREDICTED BY IDOCK:   -5.89 KCAL/MOL
REMARK 924 INTRA-LIGAND FREE ENERGY PREDICTED BY IDOCK:   -0.66 KCAL/MOL
REMARK 927      BINDING AFFINITY PREDICTED BY RF-SCORE:    0.00 PKD
ROOT
HETATM    1  C   UNL     1      -9.625   2.502  73.776  1.00  0.00    -0.086 C  
HETATM    2  O   UNL     1     -10.340   3.119  72.710  1.00  0.00    -0.159 OA 
ENDROOT
BRANCH   2   3
HETATM    3  C   UNL     1     -10.044   4.439  72.510  1.00  0.00    -0.177 A  
HETATM    4  C   UNL     1      -8.800   4.860  72.977  1.00  0.00    -0.113 A  
HETATM    5  C   UNL     1      -8.419   6.200  72.862  1.00  0.00    -0.119 A  
HETATM    6  C   UNL     1      -9.270   7.127  72.248  1.00  0.00    -0.149 A  
HETATM    7  C   UNL     1     -10.879   5.348  71.867  1.00  0.00    -0.253 A  
HETATM    8  C   UNL     1     -10.497   6.685  71.739  1.00  0.00    -0.233 A  
BRANCH   6   9
HETATM    9  C   UNL     1      -8.950   8.603  72.234  1.00  0.00    -0.245 C  
BRANCH   9  10
HETATM   10  C   UNL     1      -7.955   9.077  71.147  1.00  0.00    -0.127 C  
HETATM   11  C   UNL     1      -6.510   8.897  71.625  1.00  0.00    -0.076 C  
BRANCH  10  12
HETATM   12  N   UNL     1      -8.102   8.349  69.868  1.00  0.00    -0.116 NA 
HETATM   13  H   UNL     1      -8.817   7.624  69.941  1.00  0.00     0.000 HD 
BRANCH  12  14
HETATM   14  C   UNL     1      -8.371   9.238  68.731  1.00  0.00    -0.117 C  
BRANCH  14  15
HETATM   15  C   UNL     1      -9.726   8.961  68.029  1.00  0.00    -0.156 C  
HETATM   16  H   UNL     1     -11.623   9.302  68.408  1.00  0.00     0.000 HD 
HETATM   17  O   UNL     1     -10.794   9.472  68.838  1.00  0.00    -0.215 OA 
BRANCH  15  18
HETATM   18  C   UNL     1      -9.766   9.604  66.648  1.00  0.00    -0.266 A  
HETATM   19  C   UNL     1     -10.464  10.811  66.425  1.00  0.00    -0.293 A  
HETATM   20  C   UNL     1     -10.480  11.424  65.168  1.00  0.00    -0.295 A  
HETATM   21  H   UNL     1      -9.297  10.918  62.146  1.00  0.00     0.000 HD 
HETATM   22  C   UNL     1      -9.774  10.818  64.122  1.00  0.00    -0.309 A  
HETATM   23  C   UNL     1      -9.073   9.023  65.579  1.00  0.00    -0.271 A  
HETATM   24  C   UNL     1      -9.071   9.633  64.324  1.00  0.00    -0.267 A  
HETATM   25  O   UNL     1      -9.776  11.330  62.855  1.00  0.00    -0.339 OA 
BRANCH  20  26
HETATM   26  N   UNL     1     -11.148  12.640  64.933  1.00  0.00    -0.287 N  
HETATM   27  H   UNL     1     -10.613  13.368  64.459  1.00  0.00     0.000 HD 
HETATM   28  O   UNL     1     -12.916  14.058  65.048  1.00  0.00    -0.728 OA 
HETATM   29  C   UNL     1     -12.431  12.953  65.268  1.00  0.00    -0.493 C  
ENDBRANCH  20  26
ENDBRANCH  15  18
ENDBRANCH  14  15
ENDBRANCH  12  14
ENDBRANCH  10  12
ENDBRANCH   9  10
ENDBRANCH   6   9
ENDBRANCH   2   3
TORSDOF 8
ENDMDL
MODEL      339
REMARK 921   NORMALIZED FREE ENERGY PREDICTED BY IDOCK:   -3.44 KCAL/MOL
REMARK 922        TOTAL FREE ENERGY PREDICTED BY IDOCK:   -6.55 KCAL/MOL
REMARK 923 INTER-LIGAND FREE ENERGY PREDICTED BY IDOCK:   -5.94 KCAL/MOL
REMARK 924 INTRA-LIGAND FREE ENERGY PREDICTED BY IDOCK:   -0.61 KCAL/MOL
REMARK 927      BINDING AFFINITY PREDICTED BY RF-SCORE:    0.00 PKD
ROOT
HETATM    1  C   UNL     1     -11.267   2.359  62.784  1.00  0.00    -0.156 C  
HETATM    2  O   UNL     1      -9.988   2.940  63.018  1.00  0.00    -0.096 OA 
ENDROOT
BRANCH   2   3
HETATM    3  C   UNL     1      -9.805   3.430  64.282  1.00  0.00    -0.173 A  
HETATM    4  C   UNL     1     -10.848   4.202  64.792  1.00  0.00    -0.118 A  
HETATM    5  C   UNL     1     -10.741   4.785  66.057  1.00  0.00    -0.211 A  
HETATM    6  C   UNL     1      -9.599   4.575  66.839  1.00  0.00    -0.208 A  
HETATM    7  C   UNL     1      -8.682   3.187  65.069  1.00  0.00    -0.114 A  
HETATM    8  C   UNL     1      -8.578   3.758  66.339  1.00  0.00    -0.113 A  
BRANCH   6   9
HETATM    9  C   UNL     1      -9.393   5.302  68.147  1.00  0.00    -0.139 C  
BRANCH   9  10
HETATM   10  C   UNL     1     -10.345   4.913  69.304  1.00  0.00    -0.050 C  
HETATM   11  C   UNL     1      -9.546   4.582  70.569  1.00  0.00    -0.274 C  
BRANCH  10  12
HETATM   12  N   UNL     1     -11.310   5.981  69.645  1.00  0.00    -0.374 NA 
HETATM   13  H   UNL     1     -11.521   5.977  70.643  1.00  0.00     0.000 HD 
BRANCH  12  14
HETATM   14  C   UNL     1     -10.869   7.311  69.206  1.00  0.00    -0.159 C  
BRANCH  14  15
HETATM   15  C   UNL     1     -10.227   8.159  70.335  1.00  0.00    -0.201 C  
HETATM   16  H   UNL     1      -8.628   9.281  70.540  1.00  0.00     0.000 HD 
HETATM   17  O   UNL     1      -9.021   8.762  69.849  1.00  0.00    -0.143 OA 
BRANCH  15  18
HETATM   18  C   UNL     1     -11.189   9.237  70.820  1.00  0.00    -0.351 A  
HETATM   19  C   UNL     1     -11.264  10.491  70.176  1.00  0.00    -0.389 A  
HETATM   20  C   UNL     1     -12.166  11.475  70.595  1.00  0.00    -0.378 A  
HETATM   21  H   UNL     1     -14.461  11.915  72.904  1.00  0.00     0.000 HD 
HETATM   22  C   UNL     1     -13.010  11.187  71.674  1.00  0.00    -0.443 A  
HETATM   23  C   UNL     1     -12.046   8.985  71.898  1.00  0.00    -0.448 A  
HETATM   24  C   UNL     1     -12.959   9.954  72.316  1.00  0.00    -0.387 A  
HETATM   25  O   UNL     1     -13.888  12.110  72.172  1.00  0.00    -0.229 OA 
BRANCH  20  26
HETATM   26  N   UNL     1     -12.274  12.721  69.949  1.00  0.00    -0.226 N  
HETATM   27  H   UNL     1     -12.686  12.714  69.016  1.00  0.00     0.000 HD 
HETATM   28  O   UNL     1     -11.996  14.966  69.777  1.00  0.00    -0.291 OA 
HETATM   29  C   UNL     1     -11.890  13.935  70.433  1.00  0.00    -0.265 C  
ENDBRANCH  20  26
ENDBRANCH  15  18
ENDBRANCH  14  15
ENDBRANCH  12  14
ENDBRANCH  10  12
ENDBRANCH   9  10
ENDBRANCH   6   9
ENDBRANCH   2   3
TORSDOF 8
ENDMDL
MODEL      340
REMARK 921   NORMALIZED FREE ENERGY PREDICTED BY IDOCK:   -3.44 KCAL/MOL
REMARK 922        TOTAL FREE ENERGY PREDICTED BY IDOCK:   -6.54 KCAL/MOL
REMARK 923 INTER-LIGAND FREE ENERGY PREDICTED BY IDOCK:   -5.68 KCAL/MOL
REMARK 924 INTRA-LIGAND FREE ENERGY PREDICTED BY IDOCK:   -0.86 KCAL/MOL
REMARK 927      BINDING AFFINITY PREDICTED BY RF-SCORE:    0.00 PKD
ROOT
HETATM    1  C   UNL     1     -11.709  14.892  69.221  1.00  0.00    -0.316 C  
HETATM    2  O   UNL     1     -12.571  13.829  69.614  1.00  0.00    -0.217 OA 
ENDROOT
BRANCH   2   3
HETATM    3  C   UNL     1     -11.973  12.600  69.675  1.00  0.00    -0.286 A  
HETATM    4  C   UNL     1     -11.026  12.335  68.687  1.00  0.00    -0.276 A  
HETATM    5  C   UNL     1     -10.390  11.092  68.634  1.00  0.00    -0.219 A  
HETATM    6  C   UNL     1     -10.673  10.111  69.593  1.00  0.00    -0.295 A  
HETATM    7  C   UNL     1     -12.232  11.642  70.652  1.00  0.00    -0.461 A  
HETATM    8  C   UNL     1     -11.589  10.404  70.610  1.00  0.00    -0.440 A  
BRANCH   6   9
HETATM    9  C   UNL     1     -10.109   8.714  69.483  1.00  0.00    -0.203 C  
BRANCH   9  10
HETATM   10  C   UNL     1     -10.895   7.728  68.585  1.00  0.00     0.052 C  
HETATM   11  C   UNL     1     -10.439   7.847  67.126  1.00  0.00    -0.414 C  
BRANCH  10  12
HETATM   12  N   UNL     1     -10.734   6.316  68.995  1.00  0.00    -0.267 NA 
HETATM   13  H   UNL     1     -11.044   5.684  68.257  1.00  0.00     0.000 HD 
BRANCH  12  14
HETATM   14  C   UNL     1      -9.364   5.997  69.418  1.00  0.00    -0.131 C  
BRANCH  14  15
HETATM   15  C   UNL     1      -8.823   4.668  68.827  1.00  0.00    -0.100 C  
HETATM   16  H   UNL     1      -9.319   2.769  68.902  1.00  0.00     0.000 HD 
HETATM   17  O   UNL     1      -9.651   3.582  69.264  1.00  0.00    -0.180 OA 
BRANCH  15  18
HETATM   18  C   UNL     1      -8.797   4.721  67.304  1.00  0.00    -0.104 A  
HETATM   19  C   UNL     1      -9.800   4.094  66.534  1.00  0.00    -0.214 A  
HETATM   20  C   UNL     1      -9.800   4.164  65.137  1.00  0.00    -0.205 A  
HETATM   21  H   UNL     1      -7.990   5.453  62.717  1.00  0.00     0.000 HD 
HETATM   22  C   UNL     1      -8.778   4.884  64.507  1.00  0.00    -0.148 A  
HETATM   23  C   UNL     1      -7.788   5.431  66.640  1.00  0.00    -0.101 A  
HETATM   24  C   UNL     1      -7.785   5.519  65.248  1.00  0.00    -0.090 A  
HETATM   25  O   UNL     1      -8.683   4.964  63.145  1.00  0.00    -0.135 OA 
BRANCH  20  26
HETATM   26  N   UNL     1     -10.806   3.568  64.354  1.00  0.00    -0.501 N  
HETATM   27  H   UNL     1     -11.689   4.073  64.289  1.00  0.00     0.000 HD 
HETATM   28  O   UNL     1     -11.677   1.935  63.041  1.00  0.00    -0.317 OA 
HETATM   29  C   UNL     1     -10.730   2.390  63.673  1.00  0.00    -0.111 C  
ENDBRANCH  20  26
ENDBRANCH  15  18
ENDBRANCH  14  15
ENDBRANCH  12  14
ENDBRANCH  10  12
ENDBRANCH   9  10
ENDBRANCH   6   9
ENDBRANCH   2   3
TORSDOF 8
ENDMDL
MODEL      341
REMARK 921   NORMALIZED FREE ENERGY PREDICTED BY IDOCK:   -3.44 KCAL/MOL
REMARK 922        TOTAL FREE ENERGY PREDICTED BY IDOCK:   -6.54 KCAL/MOL
REMARK 923 INTER-LIGAND FREE ENERGY PREDICTED BY IDOCK:   -5.46 KCAL/MOL
REMARK 924 INTRA-LIGAND FREE ENERGY PREDICTED BY IDOCK:   -1.08 KCAL/MOL
REMARK 927      BINDING AFFINITY PREDICTED BY RF-SCORE:    0.00 PKD
ROOT
HETATM    1  C   UNL     1      -6.644  11.960  67.206  1.00  0.00    -0.141 C  
HETATM    2  O   UNL     1      -7.748  11.535  66.411  1.00  0.00    -0.108 OA 
ENDROOT
BRANCH   2   3
HETATM    3  C   UNL     1      -8.894  11.283  67.111  1.00  0.00    -0.153 A  
HETATM    4  C   UNL     1      -9.437  12.368  67.799  1.00  0.00    -0.199 A  
HETATM    5  C   UNL     1     -10.584  12.207  68.580  1.00  0.00    -0.248 A  
HETATM    6  C   UNL     1     -11.219  10.960  68.656  1.00  0.00    -0.326 A  
HETATM    7  C   UNL     1      -9.542  10.051  67.154  1.00  0.00    -0.202 A  
HETATM    8  C   UNL     1     -10.695   9.889  67.924  1.00  0.00    -0.316 A  
BRANCH   6   9
HETATM    9  C   UNL     1     -12.373  10.720  69.599  1.00  0.00    -0.262 C  
BRANCH   9  10
HETATM   10  C   UNL     1     -12.102  10.996  71.099  1.00  0.00    -0.244 C  
HETATM   11  C   UNL     1     -13.115  12.006  71.651  1.00  0.00    -0.422 C  
BRANCH  10  12
HETATM   12  N   UNL     1     -12.175   9.779  71.935  1.00  0.00    -0.354 NA 
HETATM   13  H   UNL     1     -13.125   9.409  71.959  1.00  0.00     0.000 HD 
BRANCH  12  14
HETATM   14  C   UNL     1     -11.219   8.743  71.521  1.00  0.00    -0.307 C  
BRANCH  14  15
HETATM   15  C   UNL     1     -11.710   7.297  71.795  1.00  0.00    -0.286 C  
HETATM   16  H   UNL     1     -13.272   6.207  71.312  1.00  0.00     0.000 HD 
HETATM   17  O   UNL     1     -12.971   7.093  71.144  1.00  0.00    -0.366 OA 
BRANCH  15  18
HETATM   18  C   UNL     1     -10.696   6.275  71.295  1.00  0.00    -0.299 A  
HETATM   19  C   UNL     1      -9.948   6.503  70.120  1.00  0.00    -0.190 A  
HETATM   20  C   UNL     1      -8.994   5.584  69.672  1.00  0.00    -0.117 A  
HETATM   21  H   UNL     1      -7.759   2.666  70.541  1.00  0.00     0.000 HD 
HETATM   22  C   UNL     1      -8.784   4.422  70.424  1.00  0.00    -0.085 A  
HETATM   23  C   UNL     1     -10.463   5.101  72.021  1.00  0.00    -0.278 A  
HETATM   24  C   UNL     1      -9.504   4.183  71.591  1.00  0.00    -0.216 A  
HETATM   25  O   UNL     1      -7.901   3.455  70.031  1.00  0.00    -0.047 OA 
BRANCH  20  26
HETATM   26  N   UNL     1      -8.219   5.806  68.518  1.00  0.00    -0.107 N  
HETATM   27  H   UNL     1      -7.991   4.983  67.960  1.00  0.00     0.000 HD 
HETATM   28  O   UNL     1      -7.044   7.085  67.058  1.00  0.00    -0.074 OA 
HETATM   29  C   UNL     1      -7.741   6.998  68.063  1.00  0.00    -0.113 C  
ENDBRANCH  20  26
ENDBRANCH  15  18
ENDBRANCH  14  15
ENDBRANCH  12  14
ENDBRANCH  10  12
ENDBRANCH   9  10
ENDBRANCH   6   9
ENDBRANCH   2   3
TORSDOF 8
ENDMDL
MODEL      342
REMARK 921   NORMALIZED FREE ENERGY PREDICTED BY IDOCK:   -3.42 KCAL/MOL
REMARK 922        TOTAL FREE ENERGY PREDICTED BY IDOCK:   -6.51 KCAL/MOL
REMARK 923 INTER-LIGAND FREE ENERGY PREDICTED BY IDOCK:   -5.57 KCAL/MOL
REMARK 924 INTRA-LIGAND FREE ENERGY PREDICTED BY IDOCK:   -0.94 KCAL/MOL
REMARK 927      BINDING AFFINITY PREDICTED BY RF-SCORE:    0.00 PKD
ROOT
HETATM    1  C   UNL     1      -6.739   8.542  64.801  1.00  0.00    -0.068 C  
HETATM    2  O   UNL     1      -6.374   8.168  66.126  1.00  0.00    -0.045 OA 
ENDROOT
BRANCH   2   3
HETATM    3  C   UNL     1      -7.297   7.398  66.777  1.00  0.00    -0.092 A  
HETATM    4  C   UNL     1      -6.838   6.725  67.909  1.00  0.00    -0.077 A  
HETATM    5  C   UNL     1      -7.691   5.877  68.621  1.00  0.00    -0.094 A  
HETATM    6  C   UNL     1      -9.025   5.719  68.224  1.00  0.00    -0.115 A  
HETATM    7  C   UNL     1      -8.632   7.273  66.400  1.00  0.00    -0.141 A  
HETATM    8  C   UNL     1      -9.490   6.437  67.116  1.00  0.00    -0.145 A  
BRANCH   6   9
HETATM    9  C   UNL     1      -9.929   4.707  68.885  1.00  0.00    -0.168 C  
BRANCH   9  10
HETATM   10  C   UNL     1     -10.487   5.092  70.277  1.00  0.00    -0.226 C  
HETATM   11  C   UNL     1      -9.714   4.369  71.385  1.00  0.00    -0.248 C  
BRANCH  10  12
HETATM   12  N   UNL     1     -10.414   6.544  70.549  1.00  0.00    -0.201 NA 
HETATM   13  H   UNL     1     -11.342   6.929  70.725  1.00  0.00     0.000 HD 
BRANCH  12  14
HETATM   14  C   UNL     1      -9.491   6.876  71.642  1.00  0.00    -0.157 C  
BRANCH  14  15
HETATM   15  C   UNL     1      -9.722   8.286  72.246  1.00  0.00    -0.292 C  
HETATM   16  H   UNL     1      -8.610   9.690  73.053  1.00  0.00     0.000 HD 
HETATM   17  O   UNL     1      -8.468   8.827  72.682  1.00  0.00    -0.413 OA 
BRANCH  15  18
HETATM   18  C   UNL     1     -10.363   9.218  71.224  1.00  0.00    -0.397 A  
HETATM   19  C   UNL     1      -9.624   9.723  70.134  1.00  0.00    -0.287 A  
HETATM   20  C   UNL     1     -10.212  10.554  69.174  1.00  0.00    -0.224 A  
HETATM   21  H   UNL     1     -13.127  11.930  68.536  1.00  0.00     0.000 HD 
HETATM   22  C   UNL     1     -11.569  10.873  69.312  1.00  0.00    -0.318 A  
HETATM   23  C   UNL     1     -11.716   9.559  71.333  1.00  0.00    -0.465 A  
HETATM   24  C   UNL     1     -12.318  10.377  70.375  1.00  0.00    -0.370 A  
HETATM   25  O   UNL     1     -12.206  11.713  68.443  1.00  0.00    -0.498 OA 
BRANCH  20  26
HETATM   26  N   UNL     1      -9.499  11.047  68.066  1.00  0.00    -0.162 N  
HETATM   27  H   UNL     1      -8.800  11.764  68.258  1.00  0.00     0.000 HD 
HETATM   28  O   UNL     1      -8.989  11.186  65.859  1.00  0.00    -0.194 OA 
HETATM   29  C   UNL     1      -9.638  10.672  66.763  1.00  0.00    -0.169 C  
ENDBRANCH  20  26
ENDBRANCH  15  18
ENDBRANCH  14  15
ENDBRANCH  12  14
ENDBRANCH  10  12
ENDBRANCH   9  10
ENDBRANCH   6   9
ENDBRANCH   2   3
TORSDOF 8
ENDMDL
MODEL      343
REMARK 921   NORMALIZED FREE ENERGY PREDICTED BY IDOCK:   -3.41 KCAL/MOL
REMARK 922        TOTAL FREE ENERGY PREDICTED BY IDOCK:   -6.50 KCAL/MOL
REMARK 923 INTER-LIGAND FREE ENERGY PREDICTED BY IDOCK:   -5.76 KCAL/MOL
REMARK 924 INTRA-LIGAND FREE ENERGY PREDICTED BY IDOCK:   -0.74 KCAL/MOL
REMARK 927      BINDING AFFINITY PREDICTED BY RF-SCORE:    0.00 PKD
ROOT
HETATM    1  C   UNL     1      -9.615  20.781  67.624  1.00  0.00    -0.238 C  
HETATM    2  O   UNL     1      -8.456  19.986  67.390  1.00  0.00    -0.314 OA 
ENDROOT
BRANCH   2   3
HETATM    3  C   UNL     1      -8.713  18.706  66.984  1.00  0.00    -0.280 A  
HETATM    4  C   UNL     1     -10.060  18.367  66.857  1.00  0.00    -0.385 A  
HETATM    5  C   UNL     1     -10.431  17.071  66.491  1.00  0.00    -0.250 A  
HETATM    6  C   UNL     1      -9.453  16.106  66.216  1.00  0.00    -0.347 A  
HETATM    7  C   UNL     1      -7.737  17.762  66.677  1.00  0.00    -0.274 A  
HETATM    8  C   UNL     1      -8.104  16.469  66.298  1.00  0.00    -0.341 A  
BRANCH   6   9
HETATM    9  C   UNL     1      -9.819  14.665  65.955  1.00  0.00    -0.358 C  
BRANCH   9  10
HETATM   10  C   UNL     1     -11.332  14.336  65.925  1.00  0.00    -0.328 C  
HETATM   11  C   UNL     1     -11.879  14.452  64.499  1.00  0.00    -0.463 C  
BRANCH  10  12
HETATM   12  N   UNL     1     -11.640  12.977  66.420  1.00  0.00    -0.345 NA 
HETATM   13  H   UNL     1     -12.253  12.483  65.771  1.00  0.00     0.000 HD 
BRANCH  12  14
HETATM   14  C   UNL     1     -10.436  12.187  66.709  1.00  0.00    -0.218 C  
BRANCH  14  15
HETATM   15  C   UNL     1     -10.186  11.038  65.697  1.00  0.00    -0.260 C  
HETATM   16  H   UNL     1      -9.077  10.761  64.100  1.00  0.00     0.000 HD 
HETATM   17  O   UNL     1      -9.229  11.465  64.719  1.00  0.00    -0.155 OA 
BRANCH  15  18
HETATM   18  C   UNL     1      -9.681   9.788  66.408  1.00  0.00    -0.275 A  
HETATM   19  C   UNL     1      -8.855   9.880  67.548  1.00  0.00    -0.131 A  
HETATM   20  C   UNL     1      -8.412   8.738  68.224  1.00  0.00    -0.130 A  
HETATM   21  H   UNL     1      -8.665   5.470  68.003  1.00  0.00     0.000 HD 
HETATM   22  C   UNL     1      -8.816   7.485  67.748  1.00  0.00    -0.132 A  
HETATM   23  C   UNL     1     -10.063   8.518  65.957  1.00  0.00     0.098 A  
HETATM   24  C   UNL     1      -9.639   7.372  66.632  1.00  0.00    -0.251 A  
HETATM   25  O   UNL     1      -8.391   6.321  68.326  1.00  0.00    -0.114 OA 
BRANCH  20  26
HETATM   26  N   UNL     1      -7.609   8.811  69.378  1.00  0.00    -0.086 N  
HETATM   27  H   UNL     1      -7.554   7.965  69.946  1.00  0.00     0.000 HD 
HETATM   28  O   UNL     1      -6.251   9.860  70.861  1.00  0.00    -0.098 OA 
HETATM   29  C   UNL     1      -6.898   9.885  69.820  1.00  0.00    -0.084 C  
ENDBRANCH  20  26
ENDBRANCH  15  18
ENDBRANCH  14  15
ENDBRANCH  12  14
ENDBRANCH  10  12
ENDBRANCH   9  10
ENDBRANCH   6   9
ENDBRANCH   2   3
TORSDOF 8
ENDMDL
MODEL      344
REMARK 921   NORMALIZED FREE ENERGY PREDICTED BY IDOCK:   -3.40 KCAL/MOL
REMARK 922        TOTAL FREE ENERGY PREDICTED BY IDOCK:   -6.49 KCAL/MOL
REMARK 923 INTER-LIGAND FREE ENERGY PREDICTED BY IDOCK:   -5.71 KCAL/MOL
REMARK 924 INTRA-LIGAND FREE ENERGY PREDICTED BY IDOCK:   -0.78 KCAL/MOL
REMARK 927      BINDING AFFINITY PREDICTED BY RF-SCORE:    0.00 PKD
ROOT
HETATM    1  C   UNL     1      -8.615   4.360  73.413  1.00  0.00    -0.097 C  
HETATM    2  O   UNL     1      -7.826   5.503  73.096  1.00  0.00    -0.100 OA 
ENDROOT
BRANCH   2   3
HETATM    3  C   UNL     1      -8.435   6.408  72.271  1.00  0.00    -0.110 A  
HETATM    4  C   UNL     1      -7.618   6.999  71.309  1.00  0.00    -0.086 A  
HETATM    5  C   UNL     1      -8.132   7.969  70.445  1.00  0.00    -0.112 A  
HETATM    6  C   UNL     1      -9.482   8.335  70.515  1.00  0.00    -0.178 A  
HETATM    7  C   UNL     1      -9.786   6.741  72.323  1.00  0.00    -0.156 A  
HETATM    8  C   UNL     1     -10.306   7.701  71.452  1.00  0.00    -0.219 A  
BRANCH   6   9
HETATM    9  C   UNL     1     -10.034   9.476  69.694  1.00  0.00    -0.220 C  
BRANCH   9  10
HETATM   10  C   UNL     1     -10.090   9.253  68.163  1.00  0.00    -0.187 C  
HETATM   11  C   UNL     1     -10.525   7.818  67.844  1.00  0.00    -0.263 C  
BRANCH  10  12
HETATM   12  N   UNL     1     -11.024  10.172  67.477  1.00  0.00    -0.315 NA 
HETATM   13  H   UNL     1     -11.432  10.835  68.136  1.00  0.00     0.000 HD 
BRANCH  12  14
HETATM   14  C   UNL     1     -10.409  10.870  66.341  1.00  0.00    -0.251 C  
BRANCH  14  15
HETATM   15  C   UNL     1     -10.925  12.320  66.147  1.00  0.00    -0.293 C  
HETATM   16  H   UNL     1     -12.655  13.244  66.265  1.00  0.00     0.000 HD 
HETATM   17  O   UNL     1     -12.339  12.356  66.384  1.00  0.00    -0.539 OA 
BRANCH  15  18
HETATM   18  C   UNL     1     -10.215  13.282  67.091  1.00  0.00    -0.246 A  
HETATM   19  C   UNL     1     -10.943  14.143  67.939  1.00  0.00    -0.264 A  
HETATM   20  C   UNL     1     -10.299  15.007  68.832  1.00  0.00    -0.244 A  
HETATM   21  H   UNL     1      -7.245  15.833  69.717  1.00  0.00     0.000 HD 
HETATM   22  C   UNL     1      -8.900  14.996  68.876  1.00  0.00    -0.201 A  
HETATM   23  C   UNL     1      -8.816  13.299  67.159  1.00  0.00    -0.223 A  
HETATM   24  C   UNL     1      -8.163  14.147  68.055  1.00  0.00    -0.152 A  
HETATM   25  O   UNL     1      -8.194  15.840  69.687  1.00  0.00    -0.193 OA 
BRANCH  20  26
HETATM   26  N   UNL     1     -11.008  15.854  69.703  1.00  0.00    -0.290 N  
HETATM   27  H   UNL     1     -11.067  16.836  69.434  1.00  0.00     0.000 HD 
HETATM   28  O   UNL     1     -12.193  16.329  71.579  1.00  0.00    -0.391 OA 
HETATM   29  C   UNL     1     -11.625  15.508  70.868  1.00  0.00    -0.375 C  
ENDBRANCH  20  26
ENDBRANCH  15  18
ENDBRANCH  14  15
ENDBRANCH  12  14
ENDBRANCH  10  12
ENDBRANCH   9  10
ENDBRANCH   6   9
ENDBRANCH   2   3
TORSDOF 8
ENDMDL
MODEL      345
REMARK 921   NORMALIZED FREE ENERGY PREDICTED BY IDOCK:   -3.40 KCAL/MOL
REMARK 922        TOTAL FREE ENERGY PREDICTED BY IDOCK:   -6.49 KCAL/MOL
REMARK 923 INTER-LIGAND FREE ENERGY PREDICTED BY IDOCK:   -5.64 KCAL/MOL
REMARK 924 INTRA-LIGAND FREE ENERGY PREDICTED BY IDOCK:   -0.85 KCAL/MOL
REMARK 927      BINDING AFFINITY PREDICTED BY RF-SCORE:    0.00 PKD
ROOT
HETATM    1  C   UNL     1      -9.946  20.531  67.048  1.00  0.00    -0.349 C  
HETATM    2  O   UNL     1     -10.378  19.334  66.409  1.00  0.00    -0.399 OA 
ENDROOT
BRANCH   2   3
HETATM    3  C   UNL     1      -9.601  18.237  66.663  1.00  0.00    -0.315 A  
HETATM    4  C   UNL     1      -8.706  18.359  67.725  1.00  0.00    -0.278 A  
HETATM    5  C   UNL     1      -7.836  17.312  68.039  1.00  0.00    -0.205 A  
HETATM    6  C   UNL     1      -7.876  16.116  67.312  1.00  0.00    -0.207 A  
HETATM    7  C   UNL     1      -9.671  17.037  65.960  1.00  0.00    -0.243 A  
HETATM    8  C   UNL     1      -8.812  15.984  66.279  1.00  0.00    -0.379 A  
BRANCH   6   9
HETATM    9  C   UNL     1      -6.859  15.023  67.535  1.00  0.00    -0.197 C  
BRANCH   9  10
HETATM   10  C   UNL     1      -7.391  13.570  67.476  1.00  0.00    -0.164 C  
HETATM   11  C   UNL     1      -6.230  12.570  67.502  1.00  0.00    -0.155 C  
BRANCH  10  12
HETATM   12  N   UNL     1      -8.298  13.239  68.596  1.00  0.00    -0.338 NA 
HETATM   13  H   UNL     1      -8.370  14.019  69.250  1.00  0.00     0.000 HD 
BRANCH  12  14
HETATM   14  C   UNL     1      -9.628  12.806  68.147  1.00  0.00    -0.223 C  
BRANCH  14  15
HETATM   15  C   UNL     1     -10.344  11.858  69.144  1.00  0.00     0.061 C  
HETATM   16  H   UNL     1     -12.151  11.684  69.896  1.00  0.00     0.000 HD 
HETATM   17  O   UNL     1     -11.712  12.264  69.285  1.00  0.00    -0.294 OA 
BRANCH  15  18
HETATM   18  C   UNL     1     -10.278  10.413  68.664  1.00  0.00    -0.196 A  
HETATM   19  C   UNL     1      -9.714  10.085  67.412  1.00  0.00    -0.196 A  
HETATM   20  C   UNL     1      -9.622   8.758  66.978  1.00  0.00    -0.179 A  
HETATM   21  H   UNL     1     -10.404   5.744  68.026  1.00  0.00     0.000 HD 
HETATM   22  C   UNL     1     -10.096   7.747  67.822  1.00  0.00    -0.189 A  
HETATM   23  C   UNL     1     -10.746   9.377  69.481  1.00  0.00    -0.238 A  
HETATM   24  C   UNL     1     -10.646   8.049  69.064  1.00  0.00    -0.169 A  
HETATM   25  O   UNL     1     -10.082   6.431  67.453  1.00  0.00    -0.133 OA 
BRANCH  20  26
HETATM   26  N   UNL     1      -9.039   8.409  65.746  1.00  0.00    -0.320 N  
HETATM   27  H   UNL     1      -8.956   7.412  65.550  1.00  0.00     0.000 HD 
HETATM   28  O   UNL     1      -8.050   8.853  63.752  1.00  0.00    -0.147 OA 
HETATM   29  C   UNL     1      -8.574   9.256  64.785  1.00  0.00    -0.184 C  
ENDBRANCH  20  26
ENDBRANCH  15  18
ENDBRANCH  14  15
ENDBRANCH  12  14
ENDBRANCH  10  12
ENDBRANCH   9  10
ENDBRANCH   6   9
ENDBRANCH   2   3
TORSDOF 8
ENDMDL
MODEL      346
REMARK 921   NORMALIZED FREE ENERGY PREDICTED BY IDOCK:   -3.39 KCAL/MOL
REMARK 922        TOTAL FREE ENERGY PREDICTED BY IDOCK:   -6.47 KCAL/MOL
REMARK 923 INTER-LIGAND FREE ENERGY PREDICTED BY IDOCK:   -5.99 KCAL/MOL
REMARK 924 INTRA-LIGAND FREE ENERGY PREDICTED BY IDOCK:   -0.47 KCAL/MOL
REMARK 927      BINDING AFFINITY PREDICTED BY RF-SCORE:    0.00 PKD
ROOT
HETATM    1  C   UNL     1      -6.764   4.900  71.365  1.00  0.00    -0.039 C  
HETATM    2  O   UNL     1      -6.076   6.102  71.699  1.00  0.00    -0.038 OA 
ENDROOT
BRANCH   2   3
HETATM    3  C   UNL     1      -6.482   7.206  71.002  1.00  0.00    -0.044 A  
HETATM    4  C   UNL     1      -5.636   7.621  69.975  1.00  0.00    -0.023 A  
HETATM    5  C   UNL     1      -5.937   8.764  69.230  1.00  0.00    -0.041 A  
HETATM    6  C   UNL     1      -7.108   9.488  69.487  1.00  0.00    -0.068 A  
HETATM    7  C   UNL     1      -7.666   7.900  71.238  1.00  0.00    -0.086 A  
HETATM    8  C   UNL     1      -7.977   9.035  70.488  1.00  0.00    -0.150 A  
BRANCH   6   9
HETATM    9  C   UNL     1      -7.392  10.801  68.798  1.00  0.00    -0.104 C  
BRANCH   9  10
HETATM   10  C   UNL     1      -7.895  10.713  67.337  1.00  0.00    -0.110 C  
HETATM   11  C   UNL     1      -9.382  10.341  67.302  1.00  0.00    -0.169 C  
BRANCH  10  12
HETATM   12  N   UNL     1      -7.728  11.978  66.589  1.00  0.00    -0.376 NA 
HETATM   13  H   UNL     1      -8.461  12.087  65.888  1.00  0.00     0.000 HD 
BRANCH  12  14
HETATM   14  C   UNL     1      -7.659  13.155  67.464  1.00  0.00    -0.163 C  
BRANCH  14  15
HETATM   15  C   UNL     1      -9.044  13.636  67.972  1.00  0.00    -0.192 C  
HETATM   16  H   UNL     1      -9.720  14.687  69.488  1.00  0.00     0.000 HD 
HETATM   17  O   UNL     1      -8.872  14.393  69.177  1.00  0.00    -0.053 OA 
BRANCH  15  18
HETATM   18  C   UNL     1      -9.744  14.486  66.919  1.00  0.00    -0.257 A  
HETATM   19  C   UNL     1      -9.696  15.896  66.969  1.00  0.00    -0.235 A  
HETATM   20  C   UNL     1     -10.310  16.684  65.989  1.00  0.00    -0.340 A  
HETATM   21  H   UNL     1     -12.089  16.302  63.255  1.00  0.00     0.000 HD 
HETATM   22  C   UNL     1     -10.975  16.041  64.939  1.00  0.00    -0.384 A  
HETATM   23  C   UNL     1     -10.421  13.876  65.856  1.00  0.00    -0.309 A  
HETATM   24  C   UNL     1     -11.026  14.652  64.866  1.00  0.00    -0.419 A  
HETATM   25  O   UNL     1     -11.637  16.738  63.967  1.00  0.00    -1.195 OA 
BRANCH  20  26
HETATM   26  N   UNL     1     -10.250  18.090  66.008  1.00  0.00    -0.341 N  
HETATM   27  H   UNL     1      -9.946  18.542  65.146  1.00  0.00     0.000 HD 
HETATM   28  O   UNL     1     -10.436  20.132  66.979  1.00  0.00    -0.418 OA 
HETATM   29  C   UNL     1     -10.552  18.914  67.050  1.00  0.00    -0.438 C  
ENDBRANCH  20  26
ENDBRANCH  15  18
ENDBRANCH  14  15
ENDBRANCH  12  14
ENDBRANCH  10  12
ENDBRANCH   9  10
ENDBRANCH   6   9
ENDBRANCH   2   3
TORSDOF 8
ENDMDL
MODEL      347
REMARK 921   NORMALIZED FREE ENERGY PREDICTED BY IDOCK:   -3.39 KCAL/MOL
REMARK 922        TOTAL FREE ENERGY PREDICTED BY IDOCK:   -6.46 KCAL/MOL
REMARK 923 INTER-LIGAND FREE ENERGY PREDICTED BY IDOCK:   -5.34 KCAL/MOL
REMARK 924 INTRA-LIGAND FREE ENERGY PREDICTED BY IDOCK:   -1.13 KCAL/MOL
REMARK 927      BINDING AFFINITY PREDICTED BY RF-SCORE:    0.00 PKD
ROOT
HETATM    1  C   UNL     1     -11.250  12.428  63.540  1.00  0.00    -0.469 C  
HETATM    2  O   UNL     1     -11.626  12.323  64.910  1.00  0.00    -0.330 OA 
ENDROOT
BRANCH   2   3
HETATM    3  C   UNL     1     -10.811  11.529  65.668  1.00  0.00    -0.252 A  
HETATM    4  C   UNL     1      -9.894  10.750  64.963  1.00  0.00    -0.346 A  
HETATM    5  C   UNL     1      -9.045   9.872  65.641  1.00  0.00    -0.220 A  
HETATM    6  C   UNL     1      -9.084   9.788  67.038  1.00  0.00    -0.157 A  
HETATM    7  C   UNL     1     -10.829  11.476  67.059  1.00  0.00    -0.320 A  
HETATM    8  C   UNL     1      -9.973  10.609  67.741  1.00  0.00    -0.192 A  
BRANCH   6   9
HETATM    9  C   UNL     1      -8.281   8.751  67.788  1.00  0.00    -0.111 C  
BRANCH   9  10
HETATM   10  C   UNL     1      -7.319   7.884  66.940  1.00  0.00    -0.090 C  
HETATM   11  C   UNL     1      -5.867   8.107  67.378  1.00  0.00    -0.043 C  
BRANCH  10  12
HETATM   12  N   UNL     1      -7.604   6.437  67.038  1.00  0.00    -0.094 NA 
HETATM   13  H   UNL     1      -7.195   6.041  67.884  1.00  0.00     0.000 HD 
BRANCH  12  14
HETATM   14  C   UNL     1      -9.038   6.130  66.956  1.00  0.00    -0.118 C  
BRANCH  14  15
HETATM   15  C   UNL     1      -9.446   4.847  67.726  1.00  0.00    -0.138 C  
HETATM   16  H   UNL     1      -8.699   3.051  68.000  1.00  0.00     0.000 HD 
HETATM   17  O   UNL     1      -8.449   3.836  67.528  1.00  0.00    -0.093 OA 
BRANCH  15  18
HETATM   18  C   UNL     1      -9.606   5.134  69.214  1.00  0.00    -0.223 A  
HETATM   19  C   UNL     1     -10.470   6.153  69.672  1.00  0.00    -0.312 A  
HETATM   20  C   UNL     1     -10.646   6.402  71.038  1.00  0.00    -0.234 A  
HETATM   21  H   UNL     1      -9.558   5.278  73.926  1.00  0.00     0.000 HD 
HETATM   22  C   UNL     1      -9.948   5.608  71.955  1.00  0.00    -0.177 A  
HETATM   23  C   UNL     1      -8.921   4.361  70.160  1.00  0.00    -0.143 A  
HETATM   24  C   UNL     1      -9.099   4.592  71.524  1.00  0.00    -0.175 A  
HETATM   25  O   UNL     1     -10.032   5.817  73.303  1.00  0.00    -0.169 OA 
BRANCH  20  26
HETATM   26  N   UNL     1     -11.522   7.396  71.514  1.00  0.00    -0.256 N  
HETATM   27  H   UNL     1     -11.102   8.148  72.059  1.00  0.00     0.000 HD 
HETATM   28  O   UNL     1     -13.556   8.356  71.812  1.00  0.00    -0.352 OA 
HETATM   29  C   UNL     1     -12.870   7.463  71.327  1.00  0.00    -0.321 C  
ENDBRANCH  20  26
ENDBRANCH  15  18
ENDBRANCH  14  15
ENDBRANCH  12  14
ENDBRANCH  10  12
ENDBRANCH   9  10
ENDBRANCH   6   9
ENDBRANCH   2   3
TORSDOF 8
ENDMDL
MODEL      348
REMARK 921   NORMALIZED FREE ENERGY PREDICTED BY IDOCK:   -3.38 KCAL/MOL
REMARK 922        TOTAL FREE ENERGY PREDICTED BY IDOCK:   -6.46 KCAL/MOL
REMARK 923 INTER-LIGAND FREE ENERGY PREDICTED BY IDOCK:   -5.30 KCAL/MOL
REMARK 924 INTRA-LIGAND FREE ENERGY PREDICTED BY IDOCK:   -1.16 KCAL/MOL
REMARK 927      BINDING AFFINITY PREDICTED BY RF-SCORE:    0.00 PKD
ROOT
HETATM    1  C   UNL     1     -10.315  12.386  66.981  1.00  0.00    -0.220 C  
HETATM    2  O   UNL     1      -9.725  11.623  68.029  1.00  0.00    -0.171 OA 
ENDROOT
BRANCH   2   3
HETATM    3  C   UNL     1      -9.454  10.322  67.707  1.00  0.00    -0.148 A  
HETATM    4  C   UNL     1     -10.555   9.471  67.632  1.00  0.00    -0.329 A  
HETATM    5  C   UNL     1     -10.382   8.114  67.353  1.00  0.00    -0.351 A  
HETATM    6  C   UNL     1      -9.101   7.599  67.113  1.00  0.00    -0.146 A  
HETATM    7  C   UNL     1      -8.182   9.824  67.434  1.00  0.00    -0.114 A  
HETATM    8  C   UNL     1      -8.006   8.470  67.142  1.00  0.00    -0.101 A  
BRANCH   6   9
HETATM    9  C   UNL     1      -8.866   6.116  66.948  1.00  0.00    -0.117 C  
BRANCH   9  10
HETATM   10  C   UNL     1      -8.159   5.400  68.124  1.00  0.00    -0.095 C  
HETATM   11  C   UNL     1      -6.793   4.862  67.684  1.00  0.00    -0.060 C  
BRANCH  10  12
HETATM   12  N   UNL     1      -7.944   6.279  69.294  1.00  0.00    -0.108 NA 
HETATM   13  H   UNL     1      -8.615   7.047  69.301  1.00  0.00     0.000 HD 
BRANCH  12  14
HETATM   14  C   UNL     1      -7.965   5.551  70.569  1.00  0.00    -0.103 C  
BRANCH  14  15
HETATM   15  C   UNL     1      -8.381   6.427  71.780  1.00  0.00    -0.120 C  
HETATM   16  H   UNL     1      -7.904   8.196  72.489  1.00  0.00     0.000 HD 
HETATM   17  O   UNL     1      -7.650   7.660  71.747  1.00  0.00    -0.080 OA 
BRANCH  15  18
HETATM   18  C   UNL     1      -9.878   6.710  71.758  1.00  0.00    -0.171 A  
HETATM   19  C   UNL     1     -10.383   7.934  71.270  1.00  0.00    -0.222 A  
HETATM   20  C   UNL     1     -11.757   8.189  71.218  1.00  0.00    -0.279 A  
HETATM   21  H   UNL     1     -14.587   6.704  71.977  1.00  0.00     0.000 HD 
HETATM   22  C   UNL     1     -12.637   7.192  71.657  1.00  0.00    -0.375 A  
HETATM   23  C   UNL     1     -10.786   5.736  72.192  1.00  0.00    -0.296 A  
HETATM   24  C   UNL     1     -12.160   5.974  72.133  1.00  0.00    -0.201 A  
HETATM   25  O   UNL     1     -13.990   7.380  71.680  1.00  0.00    -0.400 OA 
BRANCH  20  26
HETATM   26  N   UNL     1     -12.280   9.393  70.711  1.00  0.00    -0.455 N  
HETATM   27  H   UNL     1     -13.071   9.311  70.073  1.00  0.00     0.000 HD 
HETATM   28  O   UNL     1     -12.349  11.647  70.457  1.00  0.00    -0.343 OA 
HETATM   29  C   UNL     1     -11.846  10.657  70.977  1.00  0.00    -0.296 C  
ENDBRANCH  20  26
ENDBRANCH  15  18
ENDBRANCH  14  15
ENDBRANCH  12  14
ENDBRANCH  10  12
ENDBRANCH   9  10
ENDBRANCH   6   9
ENDBRANCH   2   3
TORSDOF 8
ENDMDL
MODEL      349
REMARK 921   NORMALIZED FREE ENERGY PREDICTED BY IDOCK:   -3.37 KCAL/MOL
REMARK 922        TOTAL FREE ENERGY PREDICTED BY IDOCK:   -6.44 KCAL/MOL
REMARK 923 INTER-LIGAND FREE ENERGY PREDICTED BY IDOCK:   -5.85 KCAL/MOL
REMARK 924 INTRA-LIGAND FREE ENERGY PREDICTED BY IDOCK:   -0.58 KCAL/MOL
REMARK 927      BINDING AFFINITY PREDICTED BY RF-SCORE:    0.00 PKD
ROOT
HETATM    1  C   UNL     1      -8.839   3.666  72.616  1.00  0.00    -0.093 C  
HETATM    2  O   UNL     1      -9.439   4.044  71.381  1.00  0.00    -0.137 OA 
ENDROOT
BRANCH   2   3
HETATM    3  C   UNL     1      -9.205   5.337  71.004  1.00  0.00    -0.147 A  
HETATM    4  C   UNL     1      -8.212   6.008  71.716  1.00  0.00    -0.118 A  
HETATM    5  C   UNL     1      -7.926   7.347  71.438  1.00  0.00    -0.096 A  
HETATM    6  C   UNL     1      -8.610   8.020  70.419  1.00  0.00    -0.131 A  
HETATM    7  C   UNL     1      -9.863   5.990  69.965  1.00  0.00    -0.215 A  
HETATM    8  C   UNL     1      -9.570   7.324  69.675  1.00  0.00    -0.155 A  
BRANCH   6   9
HETATM    9  C   UNL     1      -8.424   9.501  70.187  1.00  0.00    -0.227 C  
BRANCH   9  10
HETATM   10  C   UNL     1      -7.446   9.900  69.055  1.00  0.00    -0.083 C  
HETATM   11  C   UNL     1      -6.388   8.810  68.850  1.00  0.00    -0.045 C  
BRANCH  10  12
HETATM   12  N   UNL     1      -8.122  10.124  67.758  1.00  0.00    -0.109 NA 
HETATM   13  H   UNL     1      -8.921   9.499  67.651  1.00  0.00     0.000 HD 
BRANCH  12  14
HETATM   14  C   UNL     1      -8.519  11.523  67.555  1.00  0.00    -0.143 C  
BRANCH  14  15
HETATM   15  C   UNL     1     -10.026  11.787  67.809  1.00  0.00    -0.190 C  
HETATM   16  H   UNL     1     -11.092  12.945  68.985  1.00  0.00     0.000 HD 
HETATM   17  O   UNL     1     -10.169  12.784  68.830  1.00  0.00    -0.187 OA 
BRANCH  15  18
HETATM   18  C   UNL     1     -10.721  12.246  66.533  1.00  0.00    -0.279 A  
HETATM   19  C   UNL     1     -10.990  13.612  66.300  1.00  0.00    -0.300 A  
HETATM   20  C   UNL     1     -11.600  14.045  65.118  1.00  0.00    -0.342 A  
HETATM   21  H   UNL     1     -12.799  12.776  62.335  1.00  0.00     0.000 HD 
HETATM   22  C   UNL     1     -11.935  13.089  64.152  1.00  0.00    -0.427 A  
HETATM   23  C   UNL     1     -11.072  11.316  65.547  1.00  0.00    -0.138 A  
HETATM   24  C   UNL     1     -11.669  11.738  64.358  1.00  0.00    -0.301 A  
HETATM   25  O   UNL     1     -12.572  13.425  62.990  1.00  0.00    -0.669 OA 
BRANCH  20  26
HETATM   26  N   UNL     1     -11.852  15.405  64.856  1.00  0.00    -0.164 N  
HETATM   27  H   UNL     1     -12.828  15.666  64.716  1.00  0.00     0.000 HD 
HETATM   28  O   UNL     1     -11.254  17.565  64.502  1.00  0.00    -0.926 OA 
HETATM   29  C   UNL     1     -10.937  16.411  64.769  1.00  0.00    -0.231 C  
ENDBRANCH  20  26
ENDBRANCH  15  18
ENDBRANCH  14  15
ENDBRANCH  12  14
ENDBRANCH  10  12
ENDBRANCH   9  10
ENDBRANCH   6   9
ENDBRANCH   2   3
TORSDOF 8
ENDMDL
MODEL      350
REMARK 921   NORMALIZED FREE ENERGY PREDICTED BY IDOCK:   -3.33 KCAL/MOL
REMARK 922        TOTAL FREE ENERGY PREDICTED BY IDOCK:   -6.39 KCAL/MOL
REMARK 923 INTER-LIGAND FREE ENERGY PREDICTED BY IDOCK:   -5.78 KCAL/MOL
REMARK 924 INTRA-LIGAND FREE ENERGY PREDICTED BY IDOCK:   -0.61 KCAL/MOL
REMARK 927      BINDING AFFINITY PREDICTED BY RF-SCORE:    0.00 PKD
ROOT
HETATM    1  C   UNL     1      -9.608  20.392  67.065  1.00  0.00    -0.431 C  
HETATM    2  O   UNL     1      -8.693  19.460  67.635  1.00  0.00    -0.296 OA 
ENDROOT
BRANCH   2   3
HETATM    3  C   UNL     1      -9.243  18.256  67.978  1.00  0.00    -0.290 A  
HETATM    4  C   UNL     1      -8.392  17.362  68.626  1.00  0.00    -0.264 A  
HETATM    5  C   UNL     1      -8.843  16.088  68.980  1.00  0.00    -0.244 A  
HETATM    6  C   UNL     1     -10.165  15.707  68.716  1.00  0.00    -0.215 A  
HETATM    7  C   UNL     1     -10.568  17.896  67.745  1.00  0.00    -0.399 A  
HETATM    8  C   UNL     1     -11.026  16.629  68.109  1.00  0.00    -0.327 A  
BRANCH   6   9
HETATM    9  C   UNL     1     -10.642  14.295  68.957  1.00  0.00    -0.243 C  
BRANCH   9  10
HETATM   10  C   UNL     1      -9.976  13.190  68.100  1.00  0.00    -0.234 C  
HETATM   11  C   UNL     1      -9.627  13.727  66.708  1.00  0.00    -0.283 C  
BRANCH  10  12
HETATM   12  N   UNL     1      -8.734  12.659  68.704  1.00  0.00    -0.380 NA 
HETATM   13  H   UNL     1      -8.931  12.192  69.590  1.00  0.00     0.000 HD 
BRANCH  12  14
HETATM   14  C   UNL     1      -7.992  11.773  67.798  1.00  0.00    -0.141 C  
BRANCH  14  15
HETATM   15  C   UNL     1      -7.585  10.422  68.441  1.00  0.00    -0.093 C  
HETATM   16  H   UNL     1      -7.369   9.719  70.263  1.00  0.00     0.000 HD 
HETATM   17  O   UNL     1      -7.619  10.547  69.869  1.00  0.00    -0.146 OA 
BRANCH  15  18
HETATM   18  C   UNL     1      -8.518   9.304  67.995  1.00  0.00    -0.120 A  
HETATM   19  C   UNL     1      -8.636   8.110  68.739  1.00  0.00    -0.127 A  
HETATM   20  C   UNL     1      -9.514   7.091  68.353  1.00  0.00    -0.133 A  
HETATM   21  H   UNL     1     -11.666   6.447  65.956  1.00  0.00     0.000 HD 
HETATM   22  C   UNL     1     -10.290   7.282  67.204  1.00  0.00    -0.297 A  
HETATM   23  C   UNL     1      -9.308   9.459  66.848  1.00  0.00    -0.188 A  
HETATM   24  C   UNL     1     -10.196   8.455  66.461  1.00  0.00    -0.277 A  
HETATM   25  O   UNL     1     -11.139   6.318  66.736  1.00  0.00    -0.343 OA 
BRANCH  20  26
HETATM   26  N   UNL     1      -9.665   5.906  69.097  1.00  0.00    -0.135 N  
HETATM   27  H   UNL     1     -10.494   5.843  69.686  1.00  0.00     0.000 HD 
HETATM   28  O   UNL     1      -9.027   3.855  69.827  1.00  0.00    -0.084 OA 
HETATM   29  C   UNL     1      -8.825   4.833  69.117  1.00  0.00    -0.092 C  
ENDBRANCH  20  26
ENDBRANCH  15  18
ENDBRANCH  14  15
ENDBRANCH  12  14
ENDBRANCH  10  12
ENDBRANCH   9  10
ENDBRANCH   6   9
ENDBRANCH   2   3
TORSDOF 8
ENDMDL
MODEL      351
REMARK 921   NORMALIZED FREE ENERGY PREDICTED BY IDOCK:   -3.32 KCAL/MOL
REMARK 922        TOTAL FREE ENERGY PREDICTED BY IDOCK:   -6.36 KCAL/MOL
REMARK 923 INTER-LIGAND FREE ENERGY PREDICTED BY IDOCK:   -5.15 KCAL/MOL
REMARK 924 INTRA-LIGAND FREE ENERGY PREDICTED BY IDOCK:   -1.22 KCAL/MOL
REMARK 927      BINDING AFFINITY PREDICTED BY RF-SCORE:    0.00 PKD
ROOT
HETATM    1  C   UNL     1     -12.674  11.765  63.295  1.00  0.00    -0.180 C  
HETATM    2  O   UNL     1     -13.138  12.383  64.492  1.00  0.00    -0.823 OA 
ENDROOT
BRANCH   2   3
HETATM    3  C   UNL     1     -12.157  12.937  65.267  1.00  0.00    -0.453 A  
HETATM    4  C   UNL     1     -12.587  13.842  66.237  1.00  0.00    -0.372 A  
HETATM    5  C   UNL     1     -11.660  14.497  67.052  1.00  0.00    -0.402 A  
HETATM    6  C   UNL     1     -10.291  14.227  66.925  1.00  0.00    -0.268 A  
HETATM    7  C   UNL     1     -10.801  12.637  65.161  1.00  0.00    -0.321 A  
HETATM    8  C   UNL     1      -9.873  13.280  65.982  1.00  0.00    -0.271 A  
BRANCH   6   9
HETATM    9  C   UNL     1      -9.257  15.018  67.690  1.00  0.00    -0.182 C  
BRANCH   9  10
HETATM   10  C   UNL     1      -7.835  14.410  67.748  1.00  0.00    -0.160 C  
HETATM   11  C   UNL     1      -6.792  15.438  67.296  1.00  0.00    -0.143 C  
BRANCH  10  12
HETATM   12  N   UNL     1      -7.456  13.946  69.100  1.00  0.00    -0.300 NA 
HETATM   13  H   UNL     1      -8.106  14.301  69.802  1.00  0.00     0.000 HD 
BRANCH  12  14
HETATM   14  C   UNL     1      -7.333  12.486  69.190  1.00  0.00     0.127 C  
BRANCH  14  15
HETATM   15  C   UNL     1      -7.208  11.785  67.812  1.00  0.00    -0.097 C  
HETATM   16  H   UNL     1      -5.750  11.092  66.692  1.00  0.00     0.000 HD 
HETATM   17  O   UNL     1      -5.826  11.521  67.536  1.00  0.00    -0.052 OA 
BRANCH  15  18
HETATM   18  C   UNL     1      -8.000  10.483  67.790  1.00  0.00    -0.106 A  
HETATM   19  C   UNL     1      -7.364   9.238  67.986  1.00  0.00    -0.080 A  
HETATM   20  C   UNL     1      -8.088   8.041  67.998  1.00  0.00    -0.129 A  
HETATM   21  H   UNL     1     -11.189   7.014  67.651  1.00  0.00     0.000 HD 
HETATM   22  C   UNL     1      -9.475   8.101  67.818  1.00  0.00    -0.142 A  
HETATM   23  C   UNL     1      -9.389  10.505  67.610  1.00  0.00    -0.160 A  
HETATM   24  C   UNL     1     -10.123   9.319  67.633  1.00  0.00    -0.266 A  
HETATM   25  O   UNL     1     -10.248   6.974  67.773  1.00  0.00    -0.157 OA 
BRANCH  20  26
HETATM   26  N   UNL     1      -7.476   6.794  68.218  1.00  0.00    -0.096 N  
HETATM   27  H   UNL     1      -7.290   6.227  67.391  1.00  0.00     0.000 HD 
HETATM   28  O   UNL     1      -6.602   5.143  69.508  1.00  0.00    -0.040 OA 
HETATM   29  C   UNL     1      -7.103   6.259  69.415  1.00  0.00    -0.073 C  
ENDBRANCH  20  26
ENDBRANCH  15  18
ENDBRANCH  14  15
ENDBRANCH  12  14
ENDBRANCH  10  12
ENDBRANCH   9  10
ENDBRANCH   6   9
ENDBRANCH   2   3
TORSDOF 8
ENDMDL
MODEL      352
REMARK 921   NORMALIZED FREE ENERGY PREDICTED BY IDOCK:   -3.30 KCAL/MOL
REMARK 922        TOTAL FREE ENERGY PREDICTED BY IDOCK:   -6.34 KCAL/MOL
REMARK 923 INTER-LIGAND FREE ENERGY PREDICTED BY IDOCK:   -6.38 KCAL/MOL
REMARK 924 INTRA-LIGAND FREE ENERGY PREDICTED BY IDOCK:    0.04 KCAL/MOL
REMARK 927      BINDING AFFINITY PREDICTED BY RF-SCORE:    0.00 PKD
ROOT
HETATM    1  C   UNL     1     -12.463  12.878  64.665  1.00  0.00    -0.434 C  
HETATM    2  O   UNL     1     -11.380  12.867  63.740  1.00  0.00    -0.414 OA 
ENDROOT
BRANCH   2   3
HETATM    3  C   UNL     1     -10.497  11.837  63.905  1.00  0.00    -0.390 A  
HETATM    4  C   UNL     1     -10.595  11.139  65.108  1.00  0.00    -0.319 A  
HETATM    5  C   UNL     1      -9.709  10.096  65.394  1.00  0.00    -0.355 A  
HETATM    6  C   UNL     1      -8.734   9.721  64.461  1.00  0.00    -0.222 A  
HETATM    7  C   UNL     1      -9.553  11.444  62.959  1.00  0.00    -0.397 A  
HETATM    8  C   UNL     1      -8.675  10.395  63.236  1.00  0.00    -0.201 A  
BRANCH   6   9
HETATM    9  C   UNL     1      -7.676   8.696  64.795  1.00  0.00    -0.108 C  
BRANCH   9  10
HETATM   10  C   UNL     1      -6.687   9.076  65.924  1.00  0.00    -0.072 C  
HETATM   11  C   UNL     1      -6.151  10.496  65.714  1.00  0.00    -0.133 C  
BRANCH  10  12
HETATM   12  N   UNL     1      -7.294   9.016  67.271  1.00  0.00    -0.084 NA 
HETATM   13  H   UNL     1      -8.201   9.482  67.284  1.00  0.00     0.000 HD 
BRANCH  12  14
HETATM   14  C   UNL     1      -7.400   7.646  67.790  1.00  0.00    -0.099 C  
BRANCH  14  15
HETATM   15  C   UNL     1      -8.727   6.938  67.411  1.00  0.00    -0.119 C  
HETATM   16  H   UNL     1      -9.246   5.280  66.492  1.00  0.00     0.000 HD 
HETATM   17  O   UNL     1      -8.433   5.714  66.724  1.00  0.00    -0.112 OA 
BRANCH  15  18
HETATM   18  C   UNL     1      -9.563   6.649  68.652  1.00  0.00    -0.130 A  
HETATM   19  C   UNL     1     -10.475   7.601  69.155  1.00  0.00    -0.220 A  
HETATM   20  C   UNL     1     -11.268   7.331  70.276  1.00  0.00    -0.262 A  
HETATM   21  H   UNL     1     -11.771   4.908  72.436  1.00  0.00     0.000 HD 
HETATM   22  C   UNL     1     -11.146   6.081  70.893  1.00  0.00    -0.284 A  
HETATM   23  C   UNL     1      -9.464   5.409  69.296  1.00  0.00    -0.179 A  
HETATM   24  C   UNL     1     -10.260   5.124  70.406  1.00  0.00    -0.334 A  
HETATM   25  O   UNL     1     -11.853   5.756  72.017  1.00  0.00    -0.210 OA 
BRANCH  20  26
HETATM   26  N   UNL     1     -12.202   8.258  70.777  1.00  0.00    -0.495 N  
HETATM   27  H   UNL     1     -12.572   8.934  70.109  1.00  0.00     0.000 HD 
HETATM   28  O   UNL     1     -13.461   9.218  72.402  1.00  0.00    -0.451 OA 
HETATM   29  C   UNL     1     -12.667   8.350  72.054  1.00  0.00    -0.360 C  
ENDBRANCH  20  26
ENDBRANCH  15  18
ENDBRANCH  14  15
ENDBRANCH  12  14
ENDBRANCH  10  12
ENDBRANCH   9  10
ENDBRANCH   6   9
ENDBRANCH   2   3
TORSDOF 8
ENDMDL
MODEL      353
REMARK 921   NORMALIZED FREE ENERGY PREDICTED BY IDOCK:   -3.30 KCAL/MOL
REMARK 922        TOTAL FREE ENERGY PREDICTED BY IDOCK:   -6.34 KCAL/MOL
REMARK 923 INTER-LIGAND FREE ENERGY PREDICTED BY IDOCK:   -5.38 KCAL/MOL
REMARK 924 INTRA-LIGAND FREE ENERGY PREDICTED BY IDOCK:   -0.96 KCAL/MOL
REMARK 927      BINDING AFFINITY PREDICTED BY RF-SCORE:    0.00 PKD
ROOT
HETATM    1  C   UNL     1     -10.698  14.029  64.581  1.00  0.00    -0.399 C  
HETATM    2  O   UNL     1     -11.270  12.753  64.308  1.00  0.00    -0.324 OA 
ENDROOT
BRANCH   2   3
HETATM    3  C   UNL     1     -10.977  11.787  65.230  1.00  0.00    -0.295 A  
HETATM    4  C   UNL     1     -10.204  10.722  64.771  1.00  0.00    -0.403 A  
HETATM    5  C   UNL     1      -9.886   9.660  65.622  1.00  0.00    -0.369 A  
HETATM    6  C   UNL     1     -10.316   9.670  66.956  1.00  0.00    -0.315 A  
HETATM    7  C   UNL     1     -11.376  11.819  66.565  1.00  0.00    -0.370 A  
HETATM    8  C   UNL     1     -11.050  10.767  67.421  1.00  0.00    -0.363 A  
BRANCH   6   9
HETATM    9  C   UNL     1     -10.110   8.477  67.859  1.00  0.00    -0.258 C  
BRANCH   9  10
HETATM   10  C   UNL     1      -9.159   8.686  69.063  1.00  0.00    -0.145 C  
HETATM   11  C   UNL     1      -8.988   7.380  69.846  1.00  0.00    -0.141 C  
BRANCH  10  12
HETATM   12  N   UNL     1      -7.814   9.154  68.665  1.00  0.00    -0.096 NA 
HETATM   13  H   UNL     1      -7.666   9.029  67.663  1.00  0.00     0.000 HD 
BRANCH  12  14
HETATM   14  C   UNL     1      -7.550  10.543  69.064  1.00  0.00    -0.117 C  
BRANCH  14  15
HETATM   15  C   UNL     1      -6.894  11.398  67.949  1.00  0.00    -0.072 C  
HETATM   16  H   UNL     1      -6.728  11.306  65.994  1.00  0.00     0.000 HD 
HETATM   17  O   UNL     1      -7.130  10.782  66.677  1.00  0.00    -0.117 OA 
BRANCH  15  18
HETATM   18  C   UNL     1      -7.453  12.816  67.952  1.00  0.00    -0.127 A  
HETATM   19  C   UNL     1      -6.678  13.907  67.504  1.00  0.00    -0.132 A  
HETATM   20  C   UNL     1      -7.194  15.207  67.474  1.00  0.00    -0.200 A  
HETATM   21  H   UNL     1      -9.974  16.790  68.219  1.00  0.00     0.000 HD 
HETATM   22  C   UNL     1      -8.514  15.409  67.893  1.00  0.00    -0.147 A  
HETATM   23  C   UNL     1      -8.769  13.054  68.366  1.00  0.00    -0.115 A  
HETATM   24  C   UNL     1      -9.299  14.345  68.328  1.00  0.00    -0.206 A  
HETATM   25  O   UNL     1      -9.078  16.653  67.935  1.00  0.00    -0.213 OA 
BRANCH  20  26
HETATM   26  N   UNL     1      -6.445  16.303  67.007  1.00  0.00    -0.172 N  
HETATM   27  H   UNL     1      -6.100  16.242  66.049  1.00  0.00     0.000 HD 
HETATM   28  O   UNL     1      -5.440  18.328  67.206  1.00  0.00    -0.135 OA 
HETATM   29  C   UNL     1      -6.130  17.438  67.692  1.00  0.00    -0.145 C  
ENDBRANCH  20  26
ENDBRANCH  15  18
ENDBRANCH  14  15
ENDBRANCH  12  14
ENDBRANCH  10  12
ENDBRANCH   9  10
ENDBRANCH   6   9
ENDBRANCH   2   3
TORSDOF 8
ENDMDL
MODEL      354
REMARK 921   NORMALIZED FREE ENERGY PREDICTED BY IDOCK:   -3.30 KCAL/MOL
REMARK 922        TOTAL FREE ENERGY PREDICTED BY IDOCK:   -6.33 KCAL/MOL
REMARK 923 INTER-LIGAND FREE ENERGY PREDICTED BY IDOCK:   -4.94 KCAL/MOL
REMARK 924 INTRA-LIGAND FREE ENERGY PREDICTED BY IDOCK:   -1.39 KCAL/MOL
REMARK 927      BINDING AFFINITY PREDICTED BY RF-SCORE:    0.00 PKD
ROOT
HETATM    1  C   UNL     1     -14.146   8.437  71.390  1.00  0.00    -0.294 C  
HETATM    2  O   UNL     1     -12.780   8.815  71.530  1.00  0.00    -0.319 OA 
ENDROOT
BRANCH   2   3
HETATM    3  C   UNL     1     -11.967   7.844  72.045  1.00  0.00    -0.319 A  
HETATM    4  C   UNL     1     -12.383   6.530  71.838  1.00  0.00    -0.339 A  
HETATM    5  C   UNL     1     -11.646   5.465  72.363  1.00  0.00    -0.167 A  
HETATM    6  C   UNL     1     -10.464   5.705  73.074  1.00  0.00    -0.246 A  
HETATM    7  C   UNL     1     -10.773   8.088  72.720  1.00  0.00    -0.431 A  
HETATM    8  C   UNL     1     -10.028   7.025  73.234  1.00  0.00    -0.264 A  
BRANCH   6   9
HETATM    9  C   UNL     1      -9.722   4.589  73.771  1.00  0.00    -0.155 C  
BRANCH   9  10
HETATM   10  C   UNL     1      -9.211   3.439  72.869  1.00  0.00    -0.095 C  
HETATM   11  C   UNL     1      -9.873   2.114  73.261  1.00  0.00    -0.149 C  
BRANCH  10  12
HETATM   12  N   UNL     1      -9.474   3.669  71.432  1.00  0.00    -0.145 NA 
HETATM   13  H   UNL     1     -10.245   4.323  71.302  1.00  0.00     0.000 HD 
BRANCH  12  14
HETATM   14  C   UNL     1      -8.282   4.110  70.696  1.00  0.00    -0.066 C  
BRANCH  14  15
HETATM   15  C   UNL     1      -8.594   5.088  69.533  1.00  0.00    -0.091 C  
HETATM   16  H   UNL     1     -10.198   5.707  68.584  1.00  0.00     0.000 HD 
HETATM   17  O   UNL     1     -10.007   5.109  69.296  1.00  0.00    -0.175 OA 
BRANCH  15  18
HETATM   18  C   UNL     1      -8.100   6.493  69.857  1.00  0.00    -0.121 A  
HETATM   19  C   UNL     1      -8.957   7.610  69.749  1.00  0.00    -0.140 A  
HETATM   20  C   UNL     1      -8.521   8.899  70.074  1.00  0.00    -0.139 A  
HETATM   21  H   UNL     1      -5.796  10.407  71.120  1.00  0.00     0.000 HD 
HETATM   22  C   UNL     1      -7.205   9.064  70.522  1.00  0.00    -0.081 A  
HETATM   23  C   UNL     1      -6.789   6.695  70.305  1.00  0.00    -0.058 A  
HETATM   24  C   UNL     1      -6.347   7.974  70.644  1.00  0.00    -0.036 A  
HETATM   25  O   UNL     1      -6.689  10.295  70.816  1.00  0.00    -0.322 OA 
BRANCH  20  26
HETATM   26  N   UNL     1      -9.368  10.021  69.999  1.00  0.00    -0.382 N  
HETATM   27  H   UNL     1      -9.831  10.298  70.864  1.00  0.00     0.000 HD 
HETATM   28  O   UNL     1     -10.420  11.721  68.926  1.00  0.00    -0.207 OA 
HETATM   29  C   UNL     1      -9.638  10.777  68.898  1.00  0.00    -0.195 C  
ENDBRANCH  20  26
ENDBRANCH  15  18
ENDBRANCH  14  15
ENDBRANCH  12  14
ENDBRANCH  10  12
ENDBRANCH   9  10
ENDBRANCH   6   9
ENDBRANCH   2   3
TORSDOF 8
ENDMDL
MODEL      355
REMARK 921   NORMALIZED FREE ENERGY PREDICTED BY IDOCK:   -3.27 KCAL/MOL
REMARK 922        TOTAL FREE ENERGY PREDICTED BY IDOCK:   -6.29 KCAL/MOL
REMARK 923 INTER-LIGAND FREE ENERGY PREDICTED BY IDOCK:   -5.77 KCAL/MOL
REMARK 924 INTRA-LIGAND FREE ENERGY PREDICTED BY IDOCK:   -0.52 KCAL/MOL
REMARK 927      BINDING AFFINITY PREDICTED BY RF-SCORE:    0.00 PKD
ROOT
HETATM    1  C   UNL     1     -12.658  11.722  63.344  1.00  0.00    -0.336 C  
HETATM    2  O   UNL     1     -13.258  12.473  64.396  1.00  0.00    -0.782 OA 
ENDROOT
BRANCH   2   3
HETATM    3  C   UNL     1     -12.399  13.286  65.081  1.00  0.00    -0.466 A  
HETATM    4  C   UNL     1     -11.341  13.814  64.342  1.00  0.00    -0.375 A  
HETATM    5  C   UNL     1     -10.382  14.621  64.958  1.00  0.00    -0.432 A  
HETATM    6  C   UNL     1     -10.490  14.935  66.319  1.00  0.00    -0.306 A  
HETATM    7  C   UNL     1     -12.532  13.624  66.425  1.00  0.00    -0.377 A  
HETATM    8  C   UNL     1     -11.582  14.441  67.042  1.00  0.00    -0.402 A  
BRANCH   6   9
HETATM    9  C   UNL     1      -9.399  15.685  67.044  1.00  0.00    -0.241 C  
BRANCH   9  10
HETATM   10  C   UNL     1      -8.124  14.877  67.389  1.00  0.00    -0.196 C  
HETATM   11  C   UNL     1      -8.023  14.652  68.902  1.00  0.00    -0.149 C  
BRANCH  10  12
HETATM   12  N   UNL     1      -8.081  13.554  66.731  1.00  0.00    -0.374 NA 
HETATM   13  H   UNL     1      -7.556  13.598  65.858  1.00  0.00     0.000 HD 
BRANCH  12  14
HETATM   14  C   UNL     1      -7.557  12.497  67.606  1.00  0.00    -0.145 C  
BRANCH  14  15
HETATM   15  C   UNL     1      -8.509  11.282  67.755  1.00  0.00    -0.126 C  
HETATM   16  H   UNL     1      -9.379   9.996  66.551  1.00  0.00     0.000 HD 
HETATM   17  O   UNL     1      -8.795  10.740  66.459  1.00  0.00    -0.147 OA 
BRANCH  15  18
HETATM   18  C   UNL     1      -7.889  10.210  68.642  1.00  0.00    -0.097 A  
HETATM   19  C   UNL     1      -7.997   8.840  68.316  1.00  0.00    -0.106 A  
HETATM   20  C   UNL     1      -7.404   7.852  69.109  1.00  0.00    -0.083 A  
HETATM   21  H   UNL     1      -5.623   7.613  71.859  1.00  0.00     0.000 HD 
HETATM   22  C   UNL     1      -6.684   8.249  70.241  1.00  0.00    -0.036 A  
HETATM   23  C   UNL     1      -7.163  10.572  69.784  1.00  0.00    -0.152 A  
HETATM   24  C   UNL     1      -6.556   9.595  70.574  1.00  0.00    -0.107 A  
HETATM   25  O   UNL     1      -6.112   7.343  71.090  1.00  0.00    -0.036 OA 
BRANCH  20  26
HETATM   26  N   UNL     1      -7.479   6.484  68.786  1.00  0.00    -0.086 N  
HETATM   27  H   UNL     1      -6.648   5.926  68.981  1.00  0.00     0.000 HD 
HETATM   28  O   UNL     1      -8.495   4.629  67.964  1.00  0.00    -0.101 OA 
HETATM   29  C   UNL     1      -8.538   5.822  68.241  1.00  0.00    -0.112 C  
ENDBRANCH  20  26
ENDBRANCH  15  18
ENDBRANCH  14  15
ENDBRANCH  12  14
ENDBRANCH  10  12
ENDBRANCH   9  10
ENDBRANCH   6   9
ENDBRANCH   2   3
TORSDOF 8
ENDMDL
MODEL      356
REMARK 921   NORMALIZED FREE ENERGY PREDICTED BY IDOCK:   -3.27 KCAL/MOL
REMARK 922        TOTAL FREE ENERGY PREDICTED BY IDOCK:   -6.29 KCAL/MOL
REMARK 923 INTER-LIGAND FREE ENERGY PREDICTED BY IDOCK:   -5.27 KCAL/MOL
REMARK 924 INTRA-LIGAND FREE ENERGY PREDICTED BY IDOCK:   -1.01 KCAL/MOL
REMARK 927      BINDING AFFINITY PREDICTED BY RF-SCORE:    0.00 PKD
ROOT
HETATM    1  C   UNL     1     -12.125  15.706  69.464  1.00  0.00    -0.286 C  
HETATM    2  O   UNL     1     -11.631  15.727  68.127  1.00  0.00    -0.344 OA 
ENDROOT
BRANCH   2   3
HETATM    3  C   UNL     1     -10.442  15.077  67.946  1.00  0.00    -0.247 A  
HETATM    4  C   UNL     1     -10.250  13.933  68.719  1.00  0.00    -0.188 A  
HETATM    5  C   UNL     1      -9.051  13.221  68.642  1.00  0.00     0.025 A  
HETATM    6  C   UNL     1      -8.041  13.630  67.762  1.00  0.00    -0.173 A  
HETATM    7  C   UNL     1      -9.456  15.468  67.043  1.00  0.00    -0.238 A  
HETATM    8  C   UNL     1      -8.262  14.751  66.953  1.00  0.00    -0.144 A  
BRANCH   6   9
HETATM    9  C   UNL     1      -6.684  12.966  67.755  1.00  0.00    -0.141 C  
BRANCH   9  10
HETATM   10  C   UNL     1      -6.667  11.446  67.463  1.00  0.00    -0.078 C  
HETATM   11  C   UNL     1      -6.533  10.649  68.765  1.00  0.00    -0.051 C  
BRANCH  10  12
HETATM   12  N   UNL     1      -7.884  10.975  66.767  1.00  0.00    -0.142 NA 
HETATM   13  H   UNL     1      -7.682  10.750  65.793  1.00  0.00     0.000 HD 
BRANCH  12  14
HETATM   14  C   UNL     1      -8.529   9.844  67.445  1.00  0.00    -0.118 C  
BRANCH  14  15
HETATM   15  C   UNL     1     -10.073   9.831  67.305  1.00  0.00    -0.207 C  
HETATM   16  H   UNL     1     -11.406   8.777  66.319  1.00  0.00     0.000 HD 
HETATM   17  O   UNL     1     -10.460   8.785  66.405  1.00  0.00    -0.216 OA 
BRANCH  15  18
HETATM   18  C   UNL     1     -10.741   9.625  68.659  1.00  0.00    -0.233 A  
HETATM   19  C   UNL     1     -10.591   8.415  69.370  1.00  0.00    -0.204 A  
HETATM   20  C   UNL     1     -11.175   8.229  70.628  1.00  0.00    -0.256 A  
HETATM   21  H   UNL     1     -13.053   9.879  72.759  1.00  0.00     0.000 HD 
HETATM   22  C   UNL     1     -11.914   9.282  71.181  1.00  0.00    -0.322 A  
HETATM   23  C   UNL     1     -11.489  10.656  69.241  1.00  0.00    -0.351 A  
HETATM   24  C   UNL     1     -12.065  10.487  70.501  1.00  0.00    -0.437 A  
HETATM   25  O   UNL     1     -12.552   9.164  72.384  1.00  0.00    -0.368 OA 
BRANCH  20  26
HETATM   26  N   UNL     1     -11.015   7.040  71.363  1.00  0.00    -0.237 N  
HETATM   27  H   UNL     1     -11.849   6.465  71.483  1.00  0.00     0.000 HD 
HETATM   28  O   UNL     1      -9.838   5.534  72.585  1.00  0.00    -0.160 OA 
HETATM   29  C   UNL     1      -9.869   6.571  71.932  1.00  0.00    -0.157 C  
ENDBRANCH  20  26
ENDBRANCH  15  18
ENDBRANCH  14  15
ENDBRANCH  12  14
ENDBRANCH  10  12
ENDBRANCH   9  10
ENDBRANCH   6   9
ENDBRANCH   2   3
TORSDOF 8
ENDMDL
MODEL      357
REMARK 921   NORMALIZED FREE ENERGY PREDICTED BY IDOCK:   -3.25 KCAL/MOL
REMARK 922        TOTAL FREE ENERGY PREDICTED BY IDOCK:   -6.26 KCAL/MOL
REMARK 923 INTER-LIGAND FREE ENERGY PREDICTED BY IDOCK:   -6.15 KCAL/MOL
REMARK 924 INTRA-LIGAND FREE ENERGY PREDICTED BY IDOCK:   -0.11 KCAL/MOL
REMARK 927      BINDING AFFINITY PREDICTED BY RF-SCORE:    0.00 PKD
ROOT
HETATM    1  C   UNL     1      -7.815   2.245  68.123  1.00  0.00    -0.058 C  
HETATM    2  O   UNL     1      -8.689   2.815  67.153  1.00  0.00    -0.103 OA 
ENDROOT
BRANCH   2   3
HETATM    3  C   UNL     1      -8.814   4.174  67.225  1.00  0.00    -0.116 A  
HETATM    4  C   UNL     1     -10.071   4.687  66.910  1.00  0.00    -0.227 A  
HETATM    5  C   UNL     1     -10.292   6.067  66.910  1.00  0.00    -0.303 A  
HETATM    6  C   UNL     1      -9.261   6.948  67.259  1.00  0.00    -0.137 A  
HETATM    7  C   UNL     1      -7.795   5.044  67.608  1.00  0.00    -0.095 A  
HETATM    8  C   UNL     1      -8.016   6.422  67.622  1.00  0.00    -0.114 A  
BRANCH   6   9
HETATM    9  C   UNL     1      -9.427   8.444  67.134  1.00  0.00    -0.209 C  
BRANCH   9  10
HETATM   10  C   UNL     1      -9.520   9.236  68.461  1.00  0.00    -0.146 C  
HETATM   11  C   UNL     1      -8.120   9.538  69.006  1.00  0.00    -0.101 C  
BRANCH  10  12
HETATM   12  N   UNL     1     -10.238  10.521  68.320  1.00  0.00    -0.157 NA 
HETATM   13  H   UNL     1     -10.377  10.962  69.229  1.00  0.00     0.000 HD 
BRANCH  12  14
HETATM   14  C   UNL     1      -9.582  11.443  67.384  1.00  0.00    -0.174 C  
BRANCH  14  15
HETATM   15  C   UNL     1     -10.566  12.396  66.656  1.00  0.00    -0.231 C  
HETATM   16  H   UNL     1     -12.478  12.395  66.202  1.00  0.00     0.000 HD 
HETATM   17  O   UNL     1     -11.875  11.812  66.648  1.00  0.00    -0.569 OA 
BRANCH  15  18
HETATM   18  C   UNL     1     -10.609  13.758  67.337  1.00  0.00    -0.260 A  
HETATM   19  C   UNL     1     -10.789  13.871  68.733  1.00  0.00    -0.282 A  
HETATM   20  C   UNL     1     -10.798  15.116  69.370  1.00  0.00    -0.262 A  
HETATM   21  H   UNL     1     -10.531  18.299  68.601  1.00  0.00     0.000 HD 
HETATM   22  C   UNL     1     -10.615  16.264  68.590  1.00  0.00    -0.297 A  
HETATM   23  C   UNL     1     -10.431  14.927  66.587  1.00  0.00    -0.292 A  
HETATM   24  C   UNL     1     -10.426  16.174  67.214  1.00  0.00    -0.309 A  
HETATM   25  O   UNL     1     -10.655  17.520  69.130  1.00  0.00    -0.297 OA 
BRANCH  20  26
HETATM   26  N   UNL     1     -10.950  15.247  70.763  1.00  0.00    -0.474 N  
HETATM   27  H   UNL     1     -10.331  14.680  71.342  1.00  0.00     0.000 HD 
HETATM   28  O   UNL     1     -11.910  16.069  72.647  1.00  0.00    -0.468 OA 
HETATM   29  C   UNL     1     -11.832  16.049  71.424  1.00  0.00    -0.470 C  
ENDBRANCH  20  26
ENDBRANCH  15  18
ENDBRANCH  14  15
ENDBRANCH  12  14
ENDBRANCH  10  12
ENDBRANCH   9  10
ENDBRANCH   6   9
ENDBRANCH   2   3
TORSDOF 8
ENDMDL
MODEL      358
REMARK 921   NORMALIZED FREE ENERGY PREDICTED BY IDOCK:   -3.24 KCAL/MOL
REMARK 922        TOTAL FREE ENERGY PREDICTED BY IDOCK:   -6.25 KCAL/MOL
REMARK 923 INTER-LIGAND FREE ENERGY PREDICTED BY IDOCK:   -5.63 KCAL/MOL
REMARK 924 INTRA-LIGAND FREE ENERGY PREDICTED BY IDOCK:   -0.62 KCAL/MOL
REMARK 927      BINDING AFFINITY PREDICTED BY RF-SCORE:    0.00 PKD
ROOT
HETATM    1  C   UNL     1      -7.601   2.872  69.248  1.00  0.00    -0.047 C  
HETATM    2  O   UNL     1      -7.892   2.993  67.859  1.00  0.00    -0.066 OA 
ENDROOT
BRANCH   2   3
HETATM    3  C   UNL     1      -8.064   4.277  67.421  1.00  0.00    -0.099 A  
HETATM    4  C   UNL     1      -8.749   4.421  66.215  1.00  0.00    -0.113 A  
HETATM    5  C   UNL     1      -8.939   5.688  65.658  1.00  0.00    -0.139 A  
HETATM    6  C   UNL     1      -8.472   6.830  66.321  1.00  0.00    -0.131 A  
HETATM    7  C   UNL     1      -7.630   5.411  68.103  1.00  0.00    -0.081 A  
HETATM    8  C   UNL     1      -7.829   6.679  67.555  1.00  0.00    -0.111 A  
BRANCH   6   9
HETATM    9  C   UNL     1      -8.537   8.196  65.681  1.00  0.00    -0.181 C  
BRANCH   9  10
HETATM   10  C   UNL     1      -9.860   8.979  65.870  1.00  0.00    -0.187 C  
HETATM   11  C   UNL     1     -10.583   8.515  67.139  1.00  0.00    -0.314 C  
BRANCH  10  12
HETATM   12  N   UNL     1      -9.659  10.440  65.972  1.00  0.00    -0.190 NA 
HETATM   13  H   UNL     1     -10.412  10.945  65.504  1.00  0.00     0.000 HD 
BRANCH  12  14
HETATM   14  C   UNL     1      -9.500  10.900  67.357  1.00  0.00    -0.155 C  
BRANCH  14  15
HETATM   15  C   UNL     1      -9.510  12.444  67.506  1.00  0.00    -0.187 C  
HETATM   16  H   UNL     1      -9.767  13.989  66.320  1.00  0.00     0.000 HD 
HETATM   17  O   UNL     1      -9.761  13.043  66.228  1.00  0.00    -0.266 OA 
BRANCH  15  18
HETATM   18  C   UNL     1     -10.571  12.888  68.506  1.00  0.00    -0.270 A  
HETATM   19  C   UNL     1     -11.189  11.961  69.373  1.00  0.00    -0.278 A  
HETATM   20  C   UNL     1     -12.142  12.365  70.315  1.00  0.00    -0.297 A  
HETATM   21  H   UNL     1     -13.646  15.115  71.300  1.00  0.00     0.000 HD 
HETATM   22  C   UNL     1     -12.471  13.724  70.388  1.00  0.00    -0.314 A  
HETATM   23  C   UNL     1     -10.926  14.239  68.604  1.00  0.00    -0.268 A  
HETATM   24  C   UNL     1     -11.866  14.655  69.549  1.00  0.00    -0.374 A  
HETATM   25  O   UNL     1     -13.423  14.193  71.250  1.00  0.00    -0.333 OA 
BRANCH  20  26
HETATM   26  N   UNL     1     -12.749  11.461  71.206  1.00  0.00    -0.415 N  
HETATM   27  H   UNL     1     -13.541  11.815  71.742  1.00  0.00     0.000 HD 
HETATM   28  O   UNL     1     -12.970   9.463  72.258  1.00  0.00    -0.401 OA 
HETATM   29  C   UNL     1     -12.396  10.164  71.432  1.00  0.00    -0.416 C  
ENDBRANCH  20  26
ENDBRANCH  15  18
ENDBRANCH  14  15
ENDBRANCH  12  14
ENDBRANCH  10  12
ENDBRANCH   9  10
ENDBRANCH   6   9
ENDBRANCH   2   3
TORSDOF 8
ENDMDL
MODEL      359
REMARK 921   NORMALIZED FREE ENERGY PREDICTED BY IDOCK:   -3.22 KCAL/MOL
REMARK 922        TOTAL FREE ENERGY PREDICTED BY IDOCK:   -6.23 KCAL/MOL
REMARK 923 INTER-LIGAND FREE ENERGY PREDICTED BY IDOCK:   -5.50 KCAL/MOL
REMARK 924 INTRA-LIGAND FREE ENERGY PREDICTED BY IDOCK:   -0.72 KCAL/MOL
REMARK 927      BINDING AFFINITY PREDICTED BY RF-SCORE:    0.00 PKD
ROOT
HETATM    1  C   UNL     1      -5.775  20.106  71.591  1.00  0.00    -0.371 C  
HETATM    2  O   UNL     1      -5.161  19.252  70.629  1.00  0.00    -0.195 OA 
ENDROOT
BRANCH   2   3
HETATM    3  C   UNL     1      -6.030  18.652  69.761  1.00  0.00    -0.249 A  
HETATM    4  C   UNL     1      -7.057  19.458  69.273  1.00  0.00    -0.358 A  
HETATM    5  C   UNL     1      -8.024  18.929  68.414  1.00  0.00    -0.373 A  
HETATM    6  C   UNL     1      -7.953  17.591  68.008  1.00  0.00    -0.234 A  
HETATM    7  C   UNL     1      -5.934  17.330  69.332  1.00  0.00    -0.228 A  
HETATM    8  C   UNL     1      -6.890  16.801  68.463  1.00  0.00    -0.164 A  
BRANCH   6   9
HETATM    9  C   UNL     1      -9.055  16.953  67.196  1.00  0.00    -0.228 C  
BRANCH   9  10
HETATM   10  C   UNL     1      -9.900  15.875  67.916  1.00  0.00    -0.218 C  
HETATM   11  C   UNL     1     -11.373  16.294  67.970  1.00  0.00    -0.205 C  
BRANCH  10  12
HETATM   12  N   UNL     1      -9.830  14.551  67.261  1.00  0.00    -0.233 NA 
HETATM   13  H   UNL     1      -9.069  13.993  67.647  1.00  0.00     0.000 HD 
BRANCH  12  14
HETATM   14  C   UNL     1     -11.101  13.816  67.319  1.00  0.00    -0.304 C  
BRANCH  14  15
HETATM   15  C   UNL     1     -10.965  12.380  67.890  1.00  0.00    -0.228 C  
HETATM   16  H   UNL     1     -12.004  10.714  67.818  1.00  0.00     0.000 HD 
HETATM   17  O   UNL     1     -12.087  11.593  67.468  1.00  0.00    -0.611 OA 
BRANCH  15  18
HETATM   18  C   UNL     1      -9.669  11.729  67.422  1.00  0.00    -0.186 A  
HETATM   19  C   UNL     1      -8.580  11.556  68.303  1.00  0.00    -0.161 A  
HETATM   20  C   UNL     1      -7.398  10.931  67.890  1.00  0.00    -0.088 A  
HETATM   21  H   UNL     1      -6.125   9.571  65.184  1.00  0.00     0.000 HD 
HETATM   22  C   UNL     1      -7.316  10.467  66.572  1.00  0.00    -0.125 A  
HETATM   23  C   UNL     1      -9.551  11.256  66.109  1.00  0.00    -0.241 A  
HETATM   24  C   UNL     1      -8.382  10.620  65.690  1.00  0.00    -0.162 A  
HETATM   25  O   UNL     1      -6.181   9.886  66.079  1.00  0.00    -0.067 OA 
BRANCH  20  26
HETATM   26  N   UNL     1      -6.312  10.726  68.761  1.00  0.00    -0.043 N  
HETATM   27  H   UNL     1      -5.567  10.117  68.421  1.00  0.00     0.000 HD 
HETATM   28  O   UNL     1      -5.173  10.983  70.707  1.00  0.00    -0.087 OA 
HETATM   29  C   UNL     1      -6.145  11.250  70.008  1.00  0.00    -0.142 C  
ENDBRANCH  20  26
ENDBRANCH  15  18
ENDBRANCH  14  15
ENDBRANCH  12  14
ENDBRANCH  10  12
ENDBRANCH   9  10
ENDBRANCH   6   9
ENDBRANCH   2   3
TORSDOF 8
ENDMDL
MODEL      360
REMARK 921   NORMALIZED FREE ENERGY PREDICTED BY IDOCK:   -3.21 KCAL/MOL
REMARK 922        TOTAL FREE ENERGY PREDICTED BY IDOCK:   -6.21 KCAL/MOL
REMARK 923 INTER-LIGAND FREE ENERGY PREDICTED BY IDOCK:   -6.06 KCAL/MOL
REMARK 924 INTRA-LIGAND FREE ENERGY PREDICTED BY IDOCK:   -0.14 KCAL/MOL
REMARK 927      BINDING AFFINITY PREDICTED BY RF-SCORE:    0.00 PKD
ROOT
HETATM    1  C   UNL     1      -9.088   4.189  65.478  1.00  0.00    -0.138 C  
HETATM    2  O   UNL     1     -10.372   4.746  65.745  1.00  0.00    -0.249 OA 
ENDROOT
BRANCH   2   3
HETATM    3  C   UNL     1     -10.411   5.611  66.803  1.00  0.00    -0.262 A  
HETATM    4  C   UNL     1     -10.589   6.956  66.483  1.00  0.00    -0.034 A  
HETATM    5  C   UNL     1     -10.599   7.926  67.488  1.00  0.00    -0.312 A  
HETATM    6  C   UNL     1     -10.462   7.555  68.831  1.00  0.00    -0.214 A  
HETATM    7  C   UNL     1     -10.310   5.232  68.140  1.00  0.00    -0.181 A  
HETATM    8  C   UNL     1     -10.333   6.198  69.148  1.00  0.00    -0.271 A  
BRANCH   6   9
HETATM    9  C   UNL     1     -10.329   8.587  69.925  1.00  0.00    -0.210 C  
BRANCH   9  10
HETATM   10  C   UNL     1      -8.948   9.276  70.053  1.00  0.00    -0.198 C  
HETATM   11  C   UNL     1      -7.915   8.579  69.161  1.00  0.00    -0.112 C  
BRANCH  10  12
HETATM   12  N   UNL     1      -8.977  10.706  69.679  1.00  0.00    -0.396 NA 
HETATM   13  H   UNL     1      -8.275  11.233  70.199  1.00  0.00     0.000 HD 
BRANCH  12  14
HETATM   14  C   UNL     1      -8.830  10.923  68.233  1.00  0.00    -0.140 C  
BRANCH  14  15
HETATM   15  C   UNL     1      -7.746  11.969  67.866  1.00  0.00    -0.134 C  
HETATM   16  H   UNL     1      -6.561  12.317  66.338  1.00  0.00     0.000 HD 
HETATM   17  O   UNL     1      -7.226  11.676  66.562  1.00  0.00    -0.075 OA 
BRANCH  15  18
HETATM   18  C   UNL     1      -8.320  13.380  67.892  1.00  0.00    -0.166 A  
HETATM   19  C   UNL     1      -9.215  13.822  66.894  1.00  0.00    -0.263 A  
HETATM   20  C   UNL     1      -9.771  15.105  66.927  1.00  0.00    -0.239 A  
HETATM   21  H   UNL     1      -9.657  17.811  68.786  1.00  0.00     0.000 HD 
HETATM   22  C   UNL     1      -9.426  15.953  67.986  1.00  0.00    -0.206 A  
HETATM   23  C   UNL     1      -7.994  14.255  68.935  1.00  0.00    -0.080 A  
HETATM   24  C   UNL     1      -8.553  15.533  68.985  1.00  0.00    -0.234 A  
HETATM   25  O   UNL     1      -9.891  17.236  68.068  1.00  0.00    -0.264 OA 
BRANCH  20  26
HETATM   26  N   UNL     1     -10.685  15.554  65.956  1.00  0.00    -0.323 N  
HETATM   27  H   UNL     1     -11.538  15.006  65.848  1.00  0.00     0.000 HD 
HETATM   28  O   UNL     1     -11.399  16.934  64.301  1.00  0.00    -1.202 OA 
HETATM   29  C   UNL     1     -10.557  16.641  65.144  1.00  0.00    -0.161 C  
ENDBRANCH  20  26
ENDBRANCH  15  18
ENDBRANCH  14  15
ENDBRANCH  12  14
ENDBRANCH  10  12
ENDBRANCH   9  10
ENDBRANCH   6   9
ENDBRANCH   2   3
TORSDOF 8
ENDMDL
MODEL      361
REMARK 921   NORMALIZED FREE ENERGY PREDICTED BY IDOCK:   -3.19 KCAL/MOL
REMARK 922        TOTAL FREE ENERGY PREDICTED BY IDOCK:   -6.18 KCAL/MOL
REMARK 923 INTER-LIGAND FREE ENERGY PREDICTED BY IDOCK:   -5.45 KCAL/MOL
REMARK 924 INTRA-LIGAND FREE ENERGY PREDICTED BY IDOCK:   -0.72 KCAL/MOL
REMARK 927      BINDING AFFINITY PREDICTED BY RF-SCORE:    0.00 PKD
ROOT
HETATM    1  C   UNL     1      -7.885   3.581  65.113  1.00  0.00    -0.086 C  
HETATM    2  O   UNL     1      -7.108   3.906  66.262  1.00  0.00    -0.061 OA 
ENDROOT
BRANCH   2   3
HETATM    3  C   UNL     1      -7.790   3.858  67.446  1.00  0.00    -0.087 A  
HETATM    4  C   UNL     1      -7.010   3.918  68.600  1.00  0.00    -0.047 A  
HETATM    5  C   UNL     1      -7.606   3.833  69.861  1.00  0.00    -0.048 A  
HETATM    6  C   UNL     1      -8.997   3.718  69.979  1.00  0.00    -0.169 A  
HETATM    7  C   UNL     1      -9.176   3.781  67.558  1.00  0.00    -0.216 A  
HETATM    8  C   UNL     1      -9.776   3.708  68.816  1.00  0.00    -0.054 A  
BRANCH   6   9
HETATM    9  C   UNL     1      -9.658   3.484  71.317  1.00  0.00    -0.242 C  
BRANCH   9  10
HETATM   10  C   UNL     1     -10.076   4.749  72.105  1.00  0.00    -0.191 C  
HETATM   11  C   UNL     1      -8.870   5.350  72.836  1.00  0.00    -0.121 C  
BRANCH  10  12
HETATM   12  N   UNL     1     -10.656   5.803  71.245  1.00  0.00    -0.247 NA 
HETATM   13  H   UNL     1     -11.534   6.148  71.633  1.00  0.00     0.000 HD 
BRANCH  12  14
HETATM   14  C   UNL     1      -9.724   6.909  70.989  1.00  0.00    -0.174 C  
BRANCH  14  15
HETATM   15  C   UNL     1     -10.234   8.283  71.497  1.00  0.00    -0.214 C  
HETATM   16  H   UNL     1      -9.517   9.758  72.579  1.00  0.00     0.000 HD 
HETATM   17  O   UNL     1      -9.204   8.916  72.268  1.00  0.00    -0.376 OA 
BRANCH  15  18
HETATM   18  C   UNL     1     -10.634   9.179  70.331  1.00  0.00    -0.275 A  
HETATM   19  C   UNL     1     -10.277   8.855  69.005  1.00  0.00    -0.217 A  
HETATM   20  C   UNL     1     -10.667   9.655  67.926  1.00  0.00    -0.247 A  
HETATM   21  H   UNL     1     -12.342  12.426  67.371  1.00  0.00     0.000 HD 
HETATM   22  C   UNL     1     -11.436  10.795  68.187  1.00  0.00    -0.271 A  
HETATM   23  C   UNL     1     -11.402  10.329  70.556  1.00  0.00    -0.422 A  
HETATM   24  C   UNL     1     -11.808  11.128  69.487  1.00  0.00    -0.423 A  
HETATM   25  O   UNL     1     -11.820  11.653  67.194  1.00  0.00    -0.608 OA 
BRANCH  20  26
HETATM   26  N   UNL     1     -10.343   9.334  66.594  1.00  0.00    -0.248 N  
HETATM   27  H   UNL     1     -11.067   8.863  66.052  1.00  0.00     0.000 HD 
HETATM   28  O   UNL     1      -8.970   9.232  64.791  1.00  0.00    -0.205 OA 
HETATM   29  C   UNL     1      -9.169   9.583  65.949  1.00  0.00    -0.206 C  
ENDBRANCH  20  26
ENDBRANCH  15  18
ENDBRANCH  14  15
ENDBRANCH  12  14
ENDBRANCH  10  12
ENDBRANCH   9  10
ENDBRANCH   6   9
ENDBRANCH   2   3
TORSDOF 8
ENDMDL
MODEL      362
REMARK 921   NORMALIZED FREE ENERGY PREDICTED BY IDOCK:   -3.19 KCAL/MOL
REMARK 922        TOTAL FREE ENERGY PREDICTED BY IDOCK:   -6.17 KCAL/MOL
REMARK 923 INTER-LIGAND FREE ENERGY PREDICTED BY IDOCK:   -5.79 KCAL/MOL
REMARK 924 INTRA-LIGAND FREE ENERGY PREDICTED BY IDOCK:   -0.38 KCAL/MOL
REMARK 927      BINDING AFFINITY PREDICTED BY RF-SCORE:    0.00 PKD
ROOT
HETATM    1  C   UNL     1     -10.593  17.331  65.092  1.00  0.00     0.128 C  
HETATM    2  O   UNL     1     -11.129  16.149  64.504  1.00  0.00    -0.634 OA 
ENDROOT
BRANCH   2   3
HETATM    3  C   UNL     1     -10.924  15.007  65.228  1.00  0.00    -0.382 A  
HETATM    4  C   UNL     1     -10.380  15.182  66.499  1.00  0.00    -0.286 A  
HETATM    5  C   UNL     1     -10.091  14.076  67.302  1.00  0.00    -0.249 A  
HETATM    6  C   UNL     1     -10.375  12.780  66.851  1.00  0.00    -0.245 A  
HETATM    7  C   UNL     1     -11.242  13.724  64.788  1.00  0.00    -0.370 A  
HETATM    8  C   UNL     1     -10.967  12.617  65.593  1.00  0.00    -0.313 A  
BRANCH   6   9
HETATM    9  C   UNL     1      -9.947  11.561  67.633  1.00  0.00    -0.199 C  
BRANCH   9  10
HETATM   10  C   UNL     1     -10.767  11.243  68.907  1.00  0.00    -0.207 C  
HETATM   11  C   UNL     1     -11.975  12.180  69.018  1.00  0.00    -0.302 C  
BRANCH  10  12
HETATM   12  N   UNL     1     -11.267   9.852  68.942  1.00  0.00    -0.442 NA 
HETATM   13  H   UNL     1     -10.820   9.285  68.222  1.00  0.00     0.000 HD 
BRANCH  12  14
HETATM   14  C   UNL     1     -11.129   9.227  70.264  1.00  0.00    -0.251 C  
BRANCH  14  15
HETATM   15  C   UNL     1      -9.883   8.312  70.393  1.00  0.00    -0.186 C  
HETATM   16  H   UNL     1      -9.505   6.506  71.067  1.00  0.00     0.000 HD 
HETATM   17  O   UNL     1     -10.268   7.066  70.988  1.00  0.00    -0.197 OA 
BRANCH  15  18
HETATM   18  C   UNL     1      -9.247   8.063  69.031  1.00  0.00    -0.148 A  
HETATM   19  C   UNL     1      -9.844   7.191  68.095  1.00  0.00    -0.157 A  
HETATM   20  C   UNL     1      -9.283   6.981  66.831  1.00  0.00    -0.150 A  
HETATM   21  H   UNL     1      -6.677   7.948  65.081  1.00  0.00     0.000 HD 
HETATM   22  C   UNL     1      -8.108   7.667  66.501  1.00  0.00    -0.119 A  
HETATM   23  C   UNL     1      -8.070   8.730  68.669  1.00  0.00    -0.116 A  
HETATM   24  C   UNL     1      -7.509   8.538  67.406  1.00  0.00    -0.093 A  
HETATM   25  O   UNL     1      -7.474   7.483  65.304  1.00  0.00    -0.075 OA 
BRANCH  20  26
HETATM   26  N   UNL     1      -9.878   6.136  65.875  1.00  0.00    -0.377 N  
HETATM   27  H   UNL     1     -10.511   6.579  65.209  1.00  0.00     0.000 HD 
HETATM   28  O   UNL     1     -10.293   4.133  64.892  1.00  0.00    -0.235 OA 
HETATM   29  C   UNL     1      -9.702   4.791  65.741  1.00  0.00    -0.188 C  
ENDBRANCH  20  26
ENDBRANCH  15  18
ENDBRANCH  14  15
ENDBRANCH  12  14
ENDBRANCH  10  12
ENDBRANCH   9  10
ENDBRANCH   6   9
ENDBRANCH   2   3
TORSDOF 8
ENDMDL
MODEL      363
REMARK 921   NORMALIZED FREE ENERGY PREDICTED BY IDOCK:   -3.18 KCAL/MOL
REMARK 922        TOTAL FREE ENERGY PREDICTED BY IDOCK:   -6.15 KCAL/MOL
REMARK 923 INTER-LIGAND FREE ENERGY PREDICTED BY IDOCK:   -5.20 KCAL/MOL
REMARK 924 INTRA-LIGAND FREE ENERGY PREDICTED BY IDOCK:   -0.95 KCAL/MOL
REMARK 927      BINDING AFFINITY PREDICTED BY RF-SCORE:    0.00 PKD
ROOT
HETATM    1  C   UNL     1      -7.885   3.023  69.011  1.00  0.00    -0.049 C  
HETATM    2  O   UNL     1      -8.032   3.361  67.635  1.00  0.00    -0.079 OA 
ENDROOT
BRANCH   2   3
HETATM    3  C   UNL     1      -8.107   4.702  67.380  1.00  0.00    -0.101 A  
HETATM    4  C   UNL     1      -8.436   5.056  66.072  1.00  0.00    -0.116 A  
HETATM    5  C   UNL     1      -8.495   6.400  65.697  1.00  0.00    -0.147 A  
HETATM    6  C   UNL     1      -8.256   7.409  66.639  1.00  0.00    -0.125 A  
HETATM    7  C   UNL     1      -7.904   5.701  68.330  1.00  0.00    -0.096 A  
HETATM    8  C   UNL     1      -7.975   7.046  67.962  1.00  0.00    -0.115 A  
BRANCH   6   9
HETATM    9  C   UNL     1      -8.175   8.861  66.236  1.00  0.00    -0.111 C  
BRANCH   9  10
HETATM   10  C   UNL     1      -9.522   9.617  66.121  1.00  0.00    -0.217 C  
HETATM   11  C   UNL     1     -10.651   8.804  66.764  1.00  0.00    -0.220 C  
BRANCH  10  12
HETATM   12  N   UNL     1      -9.497  10.947  66.766  1.00  0.00    -0.175 NA 
HETATM   13  H   UNL     1     -10.251  11.537  66.413  1.00  0.00     0.000 HD 
BRANCH  12  14
HETATM   14  C   UNL     1      -9.530  10.873  68.232  1.00  0.00    -0.168 C  
BRANCH  14  15
HETATM   15  C   UNL     1     -10.617  11.771  68.877  1.00  0.00    -0.180 C  
HETATM   16  H   UNL     1     -12.122  12.865  68.245  1.00  0.00     0.000 HD 
HETATM   17  O   UNL     1     -11.456  12.314  67.850  1.00  0.00    -0.284 OA 
BRANCH  15  18
HETATM   18  C   UNL     1     -11.459  10.978  69.870  1.00  0.00    -0.400 A  
HETATM   19  C   UNL     1     -11.085   9.676  70.268  1.00  0.00    -0.327 A  
HETATM   20  C   UNL     1     -11.836   8.954  71.202  1.00  0.00    -0.298 A  
HETATM   21  H   UNL     1     -14.560   9.308  73.004  1.00  0.00     0.000 HD 
HETATM   22  C   UNL     1     -12.975   9.555  71.749  1.00  0.00    -0.412 A  
HETATM   23  C   UNL     1     -12.607  11.548  70.434  1.00  0.00    -0.238 A  
HETATM   24  C   UNL     1     -13.356  10.841  71.376  1.00  0.00    -0.256 A  
HETATM   25  O   UNL     1     -13.786   8.900  72.633  1.00  0.00    -0.445 OA 
BRANCH  20  26
HETATM   26  N   UNL     1     -11.464   7.666  71.631  1.00  0.00    -0.254 N  
HETATM   27  H   UNL     1     -12.115   6.911  71.417  1.00  0.00     0.000 HD 
HETATM   28  O   UNL     1     -10.111   6.166  72.664  1.00  0.00    -0.178 OA 
HETATM   29  C   UNL     1     -10.331   7.317  72.303  1.00  0.00    -0.210 C  
ENDBRANCH  20  26
ENDBRANCH  15  18
ENDBRANCH  14  15
ENDBRANCH  12  14
ENDBRANCH  10  12
ENDBRANCH   9  10
ENDBRANCH   6   9
ENDBRANCH   2   3
TORSDOF 8
ENDMDL
MODEL      364
REMARK 921   NORMALIZED FREE ENERGY PREDICTED BY IDOCK:   -3.17 KCAL/MOL
REMARK 922        TOTAL FREE ENERGY PREDICTED BY IDOCK:   -6.14 KCAL/MOL
REMARK 923 INTER-LIGAND FREE ENERGY PREDICTED BY IDOCK:   -5.62 KCAL/MOL
REMARK 924 INTRA-LIGAND FREE ENERGY PREDICTED BY IDOCK:   -0.52 KCAL/MOL
REMARK 927      BINDING AFFINITY PREDICTED BY RF-SCORE:    0.00 PKD
ROOT
HETATM    1  C   UNL     1      -9.261   4.195  73.715  1.00  0.00    -0.092 C  
HETATM    2  O   UNL     1      -8.932   5.461  74.278  1.00  0.00    -0.118 OA 
ENDROOT
BRANCH   2   3
HETATM    3  C   UNL     1      -8.618   6.429  73.365  1.00  0.00    -0.124 A  
HETATM    4  C   UNL     1      -9.664   7.270  72.986  1.00  0.00    -0.231 A  
HETATM    5  C   UNL     1      -9.459   8.264  72.026  1.00  0.00    -0.304 A  
HETATM    6  C   UNL     1      -8.193   8.448  71.458  1.00  0.00    -0.182 A  
HETATM    7  C   UNL     1      -7.348   6.631  72.830  1.00  0.00    -0.081 A  
HETATM    8  C   UNL     1      -7.137   7.632  71.880  1.00  0.00    -0.064 A  
BRANCH   6   9
HETATM    9  C   UNL     1      -7.972   9.416  70.320  1.00  0.00    -0.172 C  
BRANCH   9  10
HETATM   10  C   UNL     1      -7.852   8.797  68.906  1.00  0.00    -0.104 C  
HETATM   11  C   UNL     1      -8.579   7.449  68.846  1.00  0.00    -0.129 C  
BRANCH  10  12
HETATM   12  N   UNL     1      -8.413   9.661  67.845  1.00  0.00    -0.121 NA 
HETATM   13  H   UNL     1      -9.350   9.356  67.583  1.00  0.00     0.000 HD 
BRANCH  12  14
HETATM   14  C   UNL     1      -8.406  11.085  68.205  1.00  0.00    -0.130 C  
BRANCH  14  15
HETATM   15  C   UNL     1      -9.754  11.802  67.935  1.00  0.00    -0.185 C  
HETATM   16  H   UNL     1     -11.122  11.782  66.525  1.00  0.00     0.000 HD 
HETATM   17  O   UNL     1     -10.296  11.343  66.690  1.00  0.00    -0.218 OA 
BRANCH  15  18
HETATM   18  C   UNL     1     -10.746  11.539  69.062  1.00  0.00    -0.233 A  
HETATM   19  C   UNL     1     -11.450  12.596  69.677  1.00  0.00    -0.252 A  
HETATM   20  C   UNL     1     -12.384  12.360  70.691  1.00  0.00    -0.279 A  
HETATM   21  H   UNL     1     -13.642   9.829  72.365  1.00  0.00     0.000 HD 
HETATM   22  C   UNL     1     -12.619  11.037  71.085  1.00  0.00    -0.418 A  
HETATM   23  C   UNL     1     -11.003  10.228  69.483  1.00  0.00    -0.300 A  
HETATM   24  C   UNL     1     -11.942   9.979  70.485  1.00  0.00    -0.357 A  
HETATM   25  O   UNL     1     -13.483  10.726  72.098  1.00  0.00    -0.379 OA 
BRANCH  20  26
HETATM   26  N   UNL     1     -13.115  13.399  71.298  1.00  0.00    -0.281 N  
HETATM   27  H   UNL     1     -13.760  13.126  72.039  1.00  0.00     0.000 HD 
HETATM   28  O   UNL     1     -13.761  15.557  71.569  1.00  0.00    -0.492 OA 
HETATM   29  C   UNL     1     -13.056  14.728  71.003  1.00  0.00    -0.375 C  
ENDBRANCH  20  26
ENDBRANCH  15  18
ENDBRANCH  14  15
ENDBRANCH  12  14
ENDBRANCH  10  12
ENDBRANCH   9  10
ENDBRANCH   6   9
ENDBRANCH   2   3
TORSDOF 8
ENDMDL
MODEL      365
REMARK 921   NORMALIZED FREE ENERGY PREDICTED BY IDOCK:   -3.15 KCAL/MOL
REMARK 922        TOTAL FREE ENERGY PREDICTED BY IDOCK:   -6.12 KCAL/MOL
REMARK 923 INTER-LIGAND FREE ENERGY PREDICTED BY IDOCK:   -5.44 KCAL/MOL
REMARK 924 INTRA-LIGAND FREE ENERGY PREDICTED BY IDOCK:   -0.68 KCAL/MOL
REMARK 927      BINDING AFFINITY PREDICTED BY RF-SCORE:    0.00 PKD
ROOT
HETATM    1  C   UNL     1      -7.753   8.705  62.742  1.00  0.00    -0.119 C  
HETATM    2  O   UNL     1      -8.510   9.303  63.790  1.00  0.00    -0.175 OA 
ENDROOT
BRANCH   2   3
HETATM    3  C   UNL     1      -8.318   8.747  65.024  1.00  0.00    -0.170 A  
HETATM    4  C   UNL     1      -7.035   8.267  65.282  1.00  0.00    -0.066 A  
HETATM    5  C   UNL     1      -6.745   7.640  66.496  1.00  0.00    -0.058 A  
HETATM    6  C   UNL     1      -7.733   7.517  67.482  1.00  0.00    -0.118 A  
HETATM    7  C   UNL     1      -9.294   8.660  66.014  1.00  0.00    -0.284 A  
HETATM    8  C   UNL     1      -9.005   8.046  67.234  1.00  0.00    -0.148 A  
BRANCH   6   9
HETATM    9  C   UNL     1      -7.493   6.725  68.745  1.00  0.00    -0.096 C  
BRANCH   9  10
HETATM   10  C   UNL     1      -8.749   6.145  69.439  1.00  0.00    -0.123 C  
HETATM   11  C   UNL     1      -8.837   4.632  69.217  1.00  0.00    -0.124 C  
BRANCH  10  12
HETATM   12  N   UNL     1      -8.771   6.391  70.898  1.00  0.00    -0.135 NA 
HETATM   13  H   UNL     1      -7.844   6.261  71.302  1.00  0.00     0.000 HD 
BRANCH  12  14
HETATM   14  C   UNL     1      -9.317   7.708  71.248  1.00  0.00    -0.149 C  
BRANCH  14  15
HETATM   15  C   UNL     1     -10.847   7.827  71.025  1.00  0.00    -0.239 C  
HETATM   16  H   UNL     1     -12.456   7.825  72.154  1.00  0.00     0.000 HD 
HETATM   17  O   UNL     1     -11.518   7.752  72.290  1.00  0.00    -0.289 OA 
BRANCH  15  18
HETATM   18  C   UNL     1     -11.196   9.137  70.329  1.00  0.00    -0.249 A  
HETATM   19  C   UNL     1     -11.566  10.281  71.069  1.00  0.00    -0.430 A  
HETATM   20  C   UNL     1     -11.857  11.496  70.439  1.00  0.00    -0.320 A  
HETATM   21  H   UNL     1     -12.014  12.742  67.404  1.00  0.00     0.000 HD 
HETATM   22  C   UNL     1     -11.766  11.561  69.044  1.00  0.00    -0.335 A  
HETATM   23  C   UNL     1     -11.117   9.238  68.935  1.00  0.00     0.042 A  
HETATM   24  C   UNL     1     -11.393  10.448  68.297  1.00  0.00    -0.292 A  
HETATM   25  O   UNL     1     -12.076  12.698  68.351  1.00  0.00    -0.272 OA 
BRANCH  20  26
HETATM   26  N   UNL     1     -12.202  12.654  71.162  1.00  0.00    -0.341 N  
HETATM   27  H   UNL     1     -11.510  13.403  71.176  1.00  0.00     0.000 HD 
HETATM   28  O   UNL     1     -13.553  13.919  72.474  1.00  0.00    -0.512 OA 
HETATM   29  C   UNL     1     -13.358  12.885  71.844  1.00  0.00    -0.435 C  
ENDBRANCH  20  26
ENDBRANCH  15  18
ENDBRANCH  14  15
ENDBRANCH  12  14
ENDBRANCH  10  12
ENDBRANCH   9  10
ENDBRANCH   6   9
ENDBRANCH   2   3
TORSDOF 8
ENDMDL
MODEL      366
REMARK 921   NORMALIZED FREE ENERGY PREDICTED BY IDOCK:   -3.14 KCAL/MOL
REMARK 922        TOTAL FREE ENERGY PREDICTED BY IDOCK:   -6.11 KCAL/MOL
REMARK 923 INTER-LIGAND FREE ENERGY PREDICTED BY IDOCK:   -5.38 KCAL/MOL
REMARK 924 INTRA-LIGAND FREE ENERGY PREDICTED BY IDOCK:   -0.73 KCAL/MOL
REMARK 927      BINDING AFFINITY PREDICTED BY RF-SCORE:    0.00 PKD
ROOT
HETATM    1  C   UNL     1     -10.718  19.840  66.113  1.00  0.00    -0.386 C  
HETATM    2  O   UNL     1      -9.770  18.830  65.782  1.00  0.00    -0.450 OA 
ENDROOT
BRANCH   2   3
HETATM    3  C   UNL     1      -9.959  17.636  66.421  1.00  0.00    -0.334 A  
HETATM    4  C   UNL     1     -10.164  17.710  67.798  1.00  0.00    -0.354 A  
HETATM    5  C   UNL     1     -10.323  16.544  68.552  1.00  0.00    -0.289 A  
HETATM    6  C   UNL     1     -10.311  15.290  67.927  1.00  0.00    -0.246 A  
HETATM    7  C   UNL     1      -9.982  16.395  65.790  1.00  0.00    -0.331 A  
HETATM    8  C   UNL     1     -10.154  15.229  66.538  1.00  0.00    -0.280 A  
BRANCH   6   9
HETATM    9  C   UNL     1     -10.340  14.010  68.728  1.00  0.00    -0.225 C  
BRANCH   9  10
HETATM   10  C   UNL     1      -9.808  12.744  68.014  1.00  0.00    -0.226 C  
HETATM   11  C   UNL     1      -8.292  12.616  68.203  1.00  0.00    -0.175 C  
BRANCH  10  12
HETATM   12  N   UNL     1     -10.432  11.496  68.504  1.00  0.00    -0.201 NA 
HETATM   13  H   UNL     1     -10.665  11.570  69.495  1.00  0.00     0.000 HD 
BRANCH  12  14
HETATM   14  C   UNL     1     -11.606  11.097  67.717  1.00  0.00    -0.223 C  
BRANCH  14  15
HETATM   15  C   UNL     1     -11.251  10.395  66.380  1.00  0.00     0.419 C  
HETATM   16  H   UNL     1     -10.675  10.955  64.587  1.00  0.00     0.000 HD 
HETATM   17  O   UNL     1     -10.892  11.384  65.406  1.00  0.00    -0.281 OA 
BRANCH  15  18
HETATM   18  C   UNL     1     -10.102   9.412  66.570  1.00  0.00    -0.332 A  
HETATM   19  C   UNL     1     -10.286   8.201  67.270  1.00  0.00    -0.373 A  
HETATM   20  C   UNL     1      -9.245   7.279  67.422  1.00  0.00    -0.128 A  
HETATM   21  H   UNL     1      -6.079   6.955  66.607  1.00  0.00     0.000 HD 
HETATM   22  C   UNL     1      -8.002   7.579  66.852  1.00  0.00    -0.115 A  
HETATM   23  C   UNL     1      -8.844   9.682  66.016  1.00  0.00    -0.178 A  
HETATM   24  C   UNL     1      -7.802   8.764  66.150  1.00  0.00    -0.102 A  
HETATM   25  O   UNL     1      -6.923   6.752  66.993  1.00  0.00    -0.066 OA 
BRANCH  20  26
HETATM   26  N   UNL     1      -9.416   6.054  68.093  1.00  0.00    -0.114 N  
HETATM   27  H   UNL     1      -8.914   5.253  67.712  1.00  0.00     0.000 HD 
HETATM   28  O   UNL     1     -10.292   4.704  69.693  1.00  0.00    -0.169 OA 
HETATM   29  C   UNL     1     -10.180   5.819  69.197  1.00  0.00    -0.223 C  
ENDBRANCH  20  26
ENDBRANCH  15  18
ENDBRANCH  14  15
ENDBRANCH  12  14
ENDBRANCH  10  12
ENDBRANCH   9  10
ENDBRANCH   6   9
ENDBRANCH   2   3
TORSDOF 8
ENDMDL
MODEL      367
REMARK 921   NORMALIZED FREE ENERGY PREDICTED BY IDOCK:   -3.13 KCAL/MOL
REMARK 922        TOTAL FREE ENERGY PREDICTED BY IDOCK:   -6.09 KCAL/MOL
REMARK 923 INTER-LIGAND FREE ENERGY PREDICTED BY IDOCK:   -5.42 KCAL/MOL
REMARK 924 INTRA-LIGAND FREE ENERGY PREDICTED BY IDOCK:   -0.67 KCAL/MOL
REMARK 927      BINDING AFFINITY PREDICTED BY RF-SCORE:    0.00 PKD
ROOT
HETATM    1  C   UNL     1     -10.382  20.167  69.630  1.00  0.00     0.276 C  
HETATM    2  O   UNL     1     -10.053  20.079  68.247  1.00  0.00    -0.419 OA 
ENDROOT
BRANCH   2   3
HETATM    3  C   UNL     1      -9.142  19.108  67.937  1.00  0.00    -0.302 A  
HETATM    4  C   UNL     1      -7.815  19.393  68.257  1.00  0.00    -0.363 A  
HETATM    5  C   UNL     1      -6.801  18.486  67.942  1.00  0.00    -0.224 A  
HETATM    6  C   UNL     1      -7.110  17.265  67.328  1.00  0.00    -0.192 A  
HETATM    7  C   UNL     1      -9.459  17.881  67.360  1.00  0.00    -0.258 A  
HETATM    8  C   UNL     1      -8.450  16.966  67.055  1.00  0.00    -0.228 A  
BRANCH   6   9
HETATM    9  C   UNL     1      -6.028  16.327  66.849  1.00  0.00     0.073 C  
BRANCH   9  10
HETATM   10  C   UNL     1      -5.474  15.329  67.895  1.00  0.00    -0.119 C  
HETATM   11  C   UNL     1      -6.262  15.431  69.205  1.00  0.00    -0.124 C  
BRANCH  10  12
HETATM   12  N   UNL     1      -5.529  13.923  67.441  1.00  0.00    -0.321 NA 
HETATM   13  H   UNL     1      -4.604  13.593  67.165  1.00  0.00     0.000 HD 
BRANCH  12  14
HETATM   14  C   UNL     1      -6.133  13.025  68.434  1.00  0.00    -0.081 C  
BRANCH  14  15
HETATM   15  C   UNL     1      -6.623  11.679  67.840  1.00  0.00    -0.065 C  
HETATM   16  H   UNL     1      -6.306   9.770  68.183  1.00  0.00     0.000 HD 
HETATM   17  O   UNL     1      -6.006  10.595  68.547  1.00  0.00    -0.041 OA 
BRANCH  15  18
HETATM   18  C   UNL     1      -8.140  11.563  67.934  1.00  0.00    -0.132 A  
HETATM   19  C   UNL     1      -8.983  12.538  67.358  1.00  0.00    -0.188 A  
HETATM   20  C   UNL     1     -10.376  12.423  67.413  1.00  0.00    -0.207 A  
HETATM   21  H   UNL     1     -12.652  10.383  68.615  1.00  0.00     0.000 HD 
HETATM   22  C   UNL     1     -10.928  11.305  68.049  1.00  0.00    -0.247 A  
HETATM   23  C   UNL     1      -8.725  10.459  68.565  1.00  0.00    -0.135 A  
HETATM   24  C   UNL     1     -10.114  10.328  68.614  1.00  0.00    -0.187 A  
HETATM   25  O   UNL     1     -12.278  11.142  68.183  1.00  0.00    -0.612 OA 
BRANCH  20  26
HETATM   26  N   UNL     1     -11.233  13.371  66.822  1.00  0.00    -0.302 N  
HETATM   27  H   UNL     1     -11.272  14.287  67.269  1.00  0.00     0.000 HD 
HETATM   28  O   UNL     1     -12.756  14.082  65.299  1.00  0.00    -0.595 OA 
HETATM   29  C   UNL     1     -12.015  13.201  65.720  1.00  0.00    -0.423 C  
ENDBRANCH  20  26
ENDBRANCH  15  18
ENDBRANCH  14  15
ENDBRANCH  12  14
ENDBRANCH  10  12
ENDBRANCH   9  10
ENDBRANCH   6   9
ENDBRANCH   2   3
TORSDOF 8
ENDMDL
MODEL      368
REMARK 921   NORMALIZED FREE ENERGY PREDICTED BY IDOCK:   -3.10 KCAL/MOL
REMARK 922        TOTAL FREE ENERGY PREDICTED BY IDOCK:   -6.04 KCAL/MOL
REMARK 923 INTER-LIGAND FREE ENERGY PREDICTED BY IDOCK:   -5.21 KCAL/MOL
REMARK 924 INTRA-LIGAND FREE ENERGY PREDICTED BY IDOCK:   -0.83 KCAL/MOL
REMARK 927      BINDING AFFINITY PREDICTED BY RF-SCORE:    0.00 PKD
ROOT
HETATM    1  C   UNL     1      -7.278   7.689  64.489  1.00  0.00    -0.076 C  
HETATM    2  O   UNL     1      -6.630   7.327  65.705  1.00  0.00    -0.046 OA 
ENDROOT
BRANCH   2   3
HETATM    3  C   UNL     1      -7.380   6.549  66.543  1.00  0.00    -0.078 A  
HETATM    4  C   UNL     1      -6.665   5.749  67.432  1.00  0.00    -0.059 A  
HETATM    5  C   UNL     1      -7.336   4.884  68.301  1.00  0.00    -0.066 A  
HETATM    6  C   UNL     1      -8.736   4.836  68.310  1.00  0.00    -0.111 A  
HETATM    7  C   UNL     1      -8.773   6.532  66.572  1.00  0.00    -0.135 A  
HETATM    8  C   UNL     1      -9.447   5.679  67.448  1.00  0.00    -0.116 A  
BRANCH   6   9
HETATM    9  C   UNL     1      -9.485   3.816  69.134  1.00  0.00    -0.242 C  
BRANCH   9  10
HETATM   10  C   UNL     1      -9.639   4.133  70.641  1.00  0.00    -0.194 C  
HETATM   11  C   UNL     1      -8.474   3.535  71.438  1.00  0.00    -0.093 C  
BRANCH  10  12
HETATM   12  N   UNL     1      -9.686   5.583  70.927  1.00  0.00    -0.170 NA 
HETATM   13  H   UNL     1     -10.547   5.831  71.414  1.00  0.00     0.000 HD 
BRANCH  12  14
HETATM   14  C   UNL     1      -8.509   6.059  71.666  1.00  0.00    -0.127 C  
BRANCH  14  15
HETATM   15  C   UNL     1      -8.839   7.115  72.752  1.00  0.00    -0.122 C  
HETATM   16  H   UNL     1      -7.884   8.572  73.661  1.00  0.00     0.000 HD 
HETATM   17  O   UNL     1      -7.682   7.925  72.995  1.00  0.00    -0.108 OA 
BRANCH  15  18
HETATM   18  C   UNL     1     -10.007   7.993  72.319  1.00  0.00    -0.304 A  
HETATM   19  C   UNL     1      -9.838   9.009  71.353  1.00  0.00    -0.381 A  
HETATM   20  C   UNL     1     -10.911   9.799  70.928  1.00  0.00    -0.328 A  
HETATM   21  H   UNL     1     -14.123  10.149  71.521  1.00  0.00     0.000 HD 
HETATM   22  C   UNL     1     -12.175   9.557  71.478  1.00  0.00    -0.386 A  
HETATM   23  C   UNL     1     -11.285   7.781  72.851  1.00  0.00    -0.434 A  
HETATM   24  C   UNL     1     -12.365   8.554  72.424  1.00  0.00    -0.424 A  
HETATM   25  O   UNL     1     -13.265  10.313  71.148  1.00  0.00    -0.381 OA 
BRANCH  20  26
HETATM   26  N   UNL     1     -10.767  10.798  69.947  1.00  0.00    -0.443 N  
HETATM   27  H   UNL     1     -11.331  11.639  70.069  1.00  0.00     0.000 HD 
HETATM   28  O   UNL     1      -9.926  11.678  68.032  1.00  0.00    -0.177 OA 
HETATM   29  C   UNL     1      -9.957  10.766  68.851  1.00  0.00    -0.202 C  
ENDBRANCH  20  26
ENDBRANCH  15  18
ENDBRANCH  14  15
ENDBRANCH  12  14
ENDBRANCH  10  12
ENDBRANCH   9  10
ENDBRANCH   6   9
ENDBRANCH   2   3
TORSDOF 8
ENDMDL
MODEL      369
REMARK 921   NORMALIZED FREE ENERGY PREDICTED BY IDOCK:   -3.06 KCAL/MOL
REMARK 922        TOTAL FREE ENERGY PREDICTED BY IDOCK:   -5.99 KCAL/MOL
REMARK 923 INTER-LIGAND FREE ENERGY PREDICTED BY IDOCK:   -4.52 KCAL/MOL
REMARK 924 INTRA-LIGAND FREE ENERGY PREDICTED BY IDOCK:   -1.47 KCAL/MOL
REMARK 927      BINDING AFFINITY PREDICTED BY RF-SCORE:    0.00 PKD
ROOT
HETATM    1  C   UNL     1     -11.058  12.376  66.552  1.00  0.00    -0.301 C  
HETATM    2  O   UNL     1     -10.807  11.638  67.744  1.00  0.00    -0.197 OA 
ENDROOT
BRANCH   2   3
HETATM    3  C   UNL     1     -10.488  10.324  67.548  1.00  0.00    -0.244 A  
HETATM    4  C   UNL     1      -9.956  10.007  66.298  1.00  0.00    -0.310 A  
HETATM    5  C   UNL     1      -9.638   8.685  65.980  1.00  0.00    -0.265 A  
HETATM    6  C   UNL     1      -9.819   7.667  66.925  1.00  0.00    -0.304 A  
HETATM    7  C   UNL     1     -10.636   9.321  68.503  1.00  0.00    -0.222 A  
HETATM    8  C   UNL     1     -10.307   8.001  68.193  1.00  0.00    -0.250 A  
BRANCH   6   9
HETATM    9  C   UNL     1      -9.618   6.213  66.567  1.00  0.00    -0.183 C  
BRANCH   9  10
HETATM   10  C   UNL     1      -8.196   5.643  66.794  1.00  0.00    -0.105 C  
HETATM   11  C   UNL     1      -7.290   6.696  67.440  1.00  0.00    -0.095 C  
BRANCH  10  12
HETATM   12  N   UNL     1      -8.184   4.443  67.659  1.00  0.00    -0.099 NA 
HETATM   13  H   UNL     1      -7.498   4.541  68.407  1.00  0.00     0.000 HD 
BRANCH  12  14
HETATM   14  C   UNL     1      -9.509   4.116  68.201  1.00  0.00    -0.158 C  
BRANCH  14  15
HETATM   15  C   UNL     1      -9.506   3.830  69.725  1.00  0.00    -0.185 C  
HETATM   16  H   UNL     1      -8.328   2.909  71.000  1.00  0.00     0.000 HD 
HETATM   17  O   UNL     1      -8.330   3.084  70.066  1.00  0.00    -0.047 OA 
BRANCH  15  18
HETATM   18  C   UNL     1      -9.547   5.129  70.522  1.00  0.00    -0.244 A  
HETATM   19  C   UNL     1      -8.429   5.989  70.573  1.00  0.00    -0.132 A  
HETATM   20  C   UNL     1      -8.469   7.198  71.277  1.00  0.00    -0.113 A  
HETATM   21  H   UNL     1     -10.566   8.927  73.121  1.00  0.00     0.000 HD 
HETATM   22  C   UNL     1      -9.656   7.548  71.932  1.00  0.00    -0.148 A  
HETATM   23  C   UNL     1     -10.717   5.509  71.192  1.00  0.00    -0.280 A  
HETATM   24  C   UNL     1     -10.772   6.718  71.886  1.00  0.00    -0.250 A  
HETATM   25  O   UNL     1      -9.761   8.689  72.677  1.00  0.00    -0.255 OA 
BRANCH  20  26
HETATM   26  N   UNL     1      -7.374   8.081  71.317  1.00  0.00    -0.063 N  
HETATM   27  H   UNL     1      -7.537   9.022  70.960  1.00  0.00     0.000 HD 
HETATM   28  O   UNL     1      -5.219   8.649  71.744  1.00  0.00    -0.034 OA 
HETATM   29  C   UNL     1      -6.120   7.818  71.781  1.00  0.00    -0.035 C  
ENDBRANCH  20  26
ENDBRANCH  15  18
ENDBRANCH  14  15
ENDBRANCH  12  14
ENDBRANCH  10  12
ENDBRANCH   9  10
ENDBRANCH   6   9
ENDBRANCH   2   3
TORSDOF 8
ENDMDL
MODEL      370
REMARK 921   NORMALIZED FREE ENERGY PREDICTED BY IDOCK:   -3.05 KCAL/MOL
REMARK 922        TOTAL FREE ENERGY PREDICTED BY IDOCK:   -5.97 KCAL/MOL
REMARK 923 INTER-LIGAND FREE ENERGY PREDICTED BY IDOCK:   -5.26 KCAL/MOL
REMARK 924 INTRA-LIGAND FREE ENERGY PREDICTED BY IDOCK:   -0.71 KCAL/MOL
REMARK 927      BINDING AFFINITY PREDICTED BY RF-SCORE:    0.00 PKD
ROOT
HETATM    1  C   UNL     1      -8.247   4.558  74.170  1.00  0.00    -0.099 C  
HETATM    2  O   UNL     1      -7.183   5.478  74.396  1.00  0.00    -0.084 OA 
ENDROOT
BRANCH   2   3
HETATM    3  C   UNL     1      -7.156   6.544  73.541  1.00  0.00    -0.081 A  
HETATM    4  C   UNL     1      -5.997   6.684  72.779  1.00  0.00    -0.042 A  
HETATM    5  C   UNL     1      -5.851   7.765  71.906  1.00  0.00    -0.035 A  
HETATM    6  C   UNL     1      -6.882   8.703  71.763  1.00  0.00    -0.087 A  
HETATM    7  C   UNL     1      -8.199   7.453  73.376  1.00  0.00    -0.151 A  
HETATM    8  C   UNL     1      -8.062   8.528  72.496  1.00  0.00    -0.122 A  
BRANCH   6   9
HETATM    9  C   UNL     1      -6.701   9.954  70.937  1.00  0.00     0.011 C  
BRANCH   9  10
HETATM   10  C   UNL     1      -7.524  10.036  69.629  1.00  0.00    -0.134 C  
HETATM   11  C   UNL     1      -7.411   8.727  68.839  1.00  0.00    -0.078 C  
BRANCH  10  12
HETATM   12  N   UNL     1      -8.960  10.300  69.863  1.00  0.00    -0.390 NA 
HETATM   13  H   UNL     1      -9.186  11.277  69.675  1.00  0.00     0.000 HD 
BRANCH  12  14
HETATM   14  C   UNL     1      -9.838   9.402  69.102  1.00  0.00    -0.174 C  
BRANCH  14  15
HETATM   15  C   UNL     1     -11.332   9.818  69.132  1.00  0.00     0.015 C  
HETATM   16  H   UNL     1     -12.758   9.913  70.480  1.00  0.00     0.000 HD 
HETATM   17  O   UNL     1     -11.843   9.658  70.462  1.00  0.00    -0.265 OA 
BRANCH  15  18
HETATM   18  C   UNL     1     -11.504  11.263  68.680  1.00  0.00    -0.362 A  
HETATM   19  C   UNL     1     -11.830  12.282  69.600  1.00  0.00    -0.393 A  
HETATM   20  C   UNL     1     -11.959  13.616  69.198  1.00  0.00    -0.351 A  
HETATM   21  H   UNL     1     -11.754  15.412  66.455  1.00  0.00     0.000 HD 
HETATM   22  C   UNL     1     -11.747  13.929  67.850  1.00  0.00    -0.361 A  
HETATM   23  C   UNL     1     -11.302  11.611  67.338  1.00  0.00    -0.367 A  
HETATM   24  C   UNL     1     -11.415  12.940  66.928  1.00  0.00    -0.393 A  
HETATM   25  O   UNL     1     -11.897  15.200  67.370  1.00  0.00    -0.264 OA 
BRANCH  20  26
HETATM   26  N   UNL     1     -12.257  14.650  70.106  1.00  0.00    -0.318 N  
HETATM   27  H   UNL     1     -13.065  15.230  69.883  1.00  0.00     0.000 HD 
HETATM   28  O   UNL     1     -11.905  15.907  71.962  1.00  0.00    -0.428 OA 
HETATM   29  C   UNL     1     -11.585  14.961  71.250  1.00  0.00    -0.308 C  
ENDBRANCH  20  26
ENDBRANCH  15  18
ENDBRANCH  14  15
ENDBRANCH  12  14
ENDBRANCH  10  12
ENDBRANCH   9  10
ENDBRANCH   6   9
ENDBRANCH   2   3
TORSDOF 8
ENDMDL
MODEL      371
REMARK 921   NORMALIZED FREE ENERGY PREDICTED BY IDOCK:   -3.04 KCAL/MOL
REMARK 922        TOTAL FREE ENERGY PREDICTED BY IDOCK:   -5.96 KCAL/MOL
REMARK 923 INTER-LIGAND FREE ENERGY PREDICTED BY IDOCK:   -4.84 KCAL/MOL
REMARK 924 INTRA-LIGAND FREE ENERGY PREDICTED BY IDOCK:   -1.12 KCAL/MOL
REMARK 927      BINDING AFFINITY PREDICTED BY RF-SCORE:    0.00 PKD
ROOT
HETATM    1  C   UNL     1      -6.211  13.179  67.794  1.00  0.00    -0.156 C  
HETATM    2  O   UNL     1      -6.031  12.225  66.751  1.00  0.00    -0.252 OA 
ENDROOT
BRANCH   2   3
HETATM    3  C   UNL     1      -6.904  11.173  66.781  1.00  0.00    -0.134 A  
HETATM    4  C   UNL     1      -6.827  10.288  65.707  1.00  0.00    -0.128 A  
HETATM    5  C   UNL     1      -7.705   9.205  65.620  1.00  0.00    -0.094 A  
HETATM    6  C   UNL     1      -8.651   8.978  66.628  1.00  0.00    -0.134 A  
HETATM    7  C   UNL     1      -7.818  10.932  67.805  1.00  0.00    -0.109 A  
HETATM    8  C   UNL     1      -8.688   9.844  67.727  1.00  0.00    -0.129 A  
BRANCH   6   9
HETATM    9  C   UNL     1      -9.703   7.902  66.495  1.00  0.00    -0.279 C  
BRANCH   9  10
HETATM   10  C   UNL     1      -9.216   6.443  66.674  1.00  0.00    -0.151 C  
HETATM   11  C   UNL     1      -8.884   5.817  65.316  1.00  0.00    -0.057 C  
BRANCH  10  12
HETATM   12  N   UNL     1      -8.015   6.333  67.529  1.00  0.00    -0.108 NA 
HETATM   13  H   UNL     1      -7.810   7.222  67.987  1.00  0.00     0.000 HD 
BRANCH  12  14
HETATM   14  C   UNL     1      -8.110   5.246  68.512  1.00  0.00    -0.087 C  
BRANCH  14  15
HETATM   15  C   UNL     1      -9.564   4.923  68.945  1.00  0.00    -0.158 C  
HETATM   16  H   UNL     1     -10.599   3.308  69.369  1.00  0.00     0.000 HD 
HETATM   17  O   UNL     1      -9.709   3.506  69.104  1.00  0.00    -0.139 OA 
BRANCH  15  18
HETATM   18  C   UNL     1      -9.913   5.631  70.249  1.00  0.00    -0.269 A  
HETATM   19  C   UNL     1     -10.275   6.995  70.265  1.00  0.00    -0.206 A  
HETATM   20  C   UNL     1     -10.627   7.644  71.453  1.00  0.00    -0.213 A  
HETATM   21  H   UNL     1     -10.908   6.973  74.657  1.00  0.00     0.000 HD 
HETATM   22  C   UNL     1     -10.622   6.904  72.642  1.00  0.00    -0.233 A  
HETATM   23  C   UNL     1      -9.916   4.922  71.457  1.00  0.00    -0.260 A  
HETATM   24  C   UNL     1     -10.278   5.556  72.646  1.00  0.00    -0.222 A  
HETATM   25  O   UNL     1     -10.911   7.475  73.850  1.00  0.00    -0.244 OA 
BRANCH  20  26
HETATM   26  N   UNL     1     -11.017   8.996  71.485  1.00  0.00    -0.321 N  
HETATM   27  H   UNL     1     -10.265   9.685  71.465  1.00  0.00     0.000 HD 
HETATM   28  O   UNL     1     -12.524  10.688  71.598  1.00  0.00    -0.373 OA 
HETATM   29  C   UNL     1     -12.287   9.486  71.541  1.00  0.00    -0.380 C  
ENDBRANCH  20  26
ENDBRANCH  15  18
ENDBRANCH  14  15
ENDBRANCH  12  14
ENDBRANCH  10  12
ENDBRANCH   9  10
ENDBRANCH   6   9
ENDBRANCH   2   3
TORSDOF 8
ENDMDL
MODEL      372
REMARK 921   NORMALIZED FREE ENERGY PREDICTED BY IDOCK:   -3.04 KCAL/MOL
REMARK 922        TOTAL FREE ENERGY PREDICTED BY IDOCK:   -5.96 KCAL/MOL
REMARK 923 INTER-LIGAND FREE ENERGY PREDICTED BY IDOCK:   -5.16 KCAL/MOL
REMARK 924 INTRA-LIGAND FREE ENERGY PREDICTED BY IDOCK:   -0.80 KCAL/MOL
REMARK 927      BINDING AFFINITY PREDICTED BY RF-SCORE:    0.00 PKD
ROOT
HETATM    1  C   UNL     1      -8.075   3.284  64.484  1.00  0.00    -0.086 C  
HETATM    2  O   UNL     1      -7.269   3.759  65.559  1.00  0.00    -0.068 OA 
ENDROOT
BRANCH   2   3
HETATM    3  C   UNL     1      -7.926   3.892  66.751  1.00  0.00    -0.096 A  
HETATM    4  C   UNL     1      -7.125   4.156  67.861  1.00  0.00    -0.059 A  
HETATM    5  C   UNL     1      -7.693   4.266  69.132  1.00  0.00    -0.054 A  
HETATM    6  C   UNL     1      -9.078   4.144  69.301  1.00  0.00    -0.188 A  
HETATM    7  C   UNL     1      -9.307   3.806  66.907  1.00  0.00    -0.214 A  
HETATM    8  C   UNL     1      -9.880   3.928  68.175  1.00  0.00    -0.039 A  
BRANCH   6   9
HETATM    9  C   UNL     1      -9.706   4.118  70.674  1.00  0.00    -0.273 C  
BRANCH   9  10
HETATM   10  C   UNL     1     -10.169   5.482  71.242  1.00  0.00    -0.222 C  
HETATM   11  C   UNL     1      -9.002   6.206  71.921  1.00  0.00    -0.140 C  
BRANCH  10  12
HETATM   12  N   UNL     1     -10.721   6.383  70.207  1.00  0.00    -0.245 NA 
HETATM   13  H   UNL     1     -11.684   6.638  70.422  1.00  0.00     0.000 HD 
BRANCH  12  14
HETATM   14  C   UNL     1      -9.896   7.579  69.991  1.00  0.00    -0.180 C  
BRANCH  14  15
HETATM   15  C   UNL     1     -10.717   8.889  69.870  1.00  0.00    -0.227 C  
HETATM   16  H   UNL     1     -10.801  10.611  70.813  1.00  0.00     0.000 HD 
HETATM   17  O   UNL     1     -10.298   9.809  70.887  1.00  0.00    -0.286 OA 
BRANCH  15  18
HETATM   18  C   UNL     1     -10.538   9.518  68.494  1.00  0.00    -0.247 A  
HETATM   19  C   UNL     1     -10.576  10.919  68.321  1.00  0.00    -0.223 A  
HETATM   20  C   UNL     1     -10.381  11.506  67.066  1.00  0.00    -0.220 A  
HETATM   21  H   UNL     1      -9.815  10.594  63.962  1.00  0.00     0.000 HD 
HETATM   22  C   UNL     1     -10.137  10.669  65.971  1.00  0.00    -0.250 A  
HETATM   23  C   UNL     1     -10.295   8.711  67.376  1.00  0.00    -0.353 A  
HETATM   24  C   UNL     1     -10.086   9.286  66.121  1.00  0.00    -0.304 A  
HETATM   25  O   UNL     1      -9.980  11.161  64.705  1.00  0.00    -0.246 OA 
BRANCH  20  26
HETATM   26  N   UNL     1     -10.389  12.900  66.879  1.00  0.00    -0.242 N  
HETATM   27  H   UNL     1      -9.478  13.358  66.845  1.00  0.00     0.000 HD 
HETATM   28  O   UNL     1     -11.382  14.923  66.611  1.00  0.00    -0.349 OA 
HETATM   29  C   UNL     1     -11.478  13.707  66.737  1.00  0.00    -0.346 C  
ENDBRANCH  20  26
ENDBRANCH  15  18
ENDBRANCH  14  15
ENDBRANCH  12  14
ENDBRANCH  10  12
ENDBRANCH   9  10
ENDBRANCH   6   9
ENDBRANCH   2   3
TORSDOF 8
ENDMDL
MODEL      373
REMARK 921   NORMALIZED FREE ENERGY PREDICTED BY IDOCK:   -3.02 KCAL/MOL
REMARK 922        TOTAL FREE ENERGY PREDICTED BY IDOCK:   -5.92 KCAL/MOL
REMARK 923 INTER-LIGAND FREE ENERGY PREDICTED BY IDOCK:   -5.31 KCAL/MOL
REMARK 924 INTRA-LIGAND FREE ENERGY PREDICTED BY IDOCK:   -0.61 KCAL/MOL
REMARK 927      BINDING AFFINITY PREDICTED BY RF-SCORE:    0.00 PKD
ROOT
HETATM    1  C   UNL     1     -10.406   3.708  73.845  1.00  0.00    -0.169 C  
HETATM    2  O   UNL     1     -10.964   5.006  74.025  1.00  0.00    -0.287 OA 
ENDROOT
BRANCH   2   3
HETATM    3  C   UNL     1     -10.828   5.841  72.951  1.00  0.00    -0.261 A  
HETATM    4  C   UNL     1     -10.043   6.975  73.156  1.00  0.00    -0.260 A  
HETATM    5  C   UNL     1      -9.878   7.914  72.135  1.00  0.00    -0.264 A  
HETATM    6  C   UNL     1     -10.472   7.710  70.883  1.00  0.00    -0.210 A  
HETATM    7  C   UNL     1     -11.391   5.615  71.697  1.00  0.00    -0.150 A  
HETATM    8  C   UNL     1     -11.217   6.545  70.670  1.00  0.00    -0.386 A  
BRANCH   6   9
HETATM    9  C   UNL     1     -10.428   8.770  69.808  1.00  0.00    -0.222 C  
BRANCH   9  10
HETATM   10  C   UNL     1      -9.031   9.101  69.229  1.00  0.00    -0.145 C  
HETATM   11  C   UNL     1      -8.279   7.814  68.871  1.00  0.00    -0.127 C  
BRANCH  10  12
HETATM   12  N   UNL     1      -9.092   9.942  68.014  1.00  0.00    -0.121 NA 
HETATM   13  H   UNL     1      -9.793  10.676  68.114  1.00  0.00     0.000 HD 
BRANCH  12  14
HETATM   14  C   UNL     1      -7.788  10.508  67.645  1.00  0.00    -0.105 C  
BRANCH  14  15
HETATM   15  C   UNL     1      -7.652  12.020  67.963  1.00  0.00    -0.120 C  
HETATM   16  H   UNL     1      -6.508  13.503  67.371  1.00  0.00     0.000 HD 
HETATM   17  O   UNL     1      -6.591  12.578  67.176  1.00  0.00    -0.150 OA 
BRANCH  15  18
HETATM   18  C   UNL     1      -8.955  12.756  67.676  1.00  0.00    -0.191 A  
HETATM   19  C   UNL     1      -9.952  12.887  68.666  1.00  0.00    -0.099 A  
HETATM   20  C   UNL     1     -11.138  13.588  68.421  1.00  0.00    -0.271 A  
HETATM   21  H   UNL     1     -12.587  15.231  65.973  1.00  0.00     0.000 HD 
HETATM   22  C   UNL     1     -11.317  14.172  67.161  1.00  0.00    -0.332 A  
HETATM   23  C   UNL     1      -9.169  13.350  66.426  1.00  0.00    -0.131 A  
HETATM   24  C   UNL     1     -10.342  14.062  66.174  1.00  0.00    -0.301 A  
HETATM   25  O   UNL     1     -12.465  14.835  66.828  1.00  0.00    -0.041 OA 
BRANCH  20  26
HETATM   26  N   UNL     1     -12.132  13.752  69.403  1.00  0.00    -0.337 N  
HETATM   27  H   UNL     1     -12.946  14.306  69.137  1.00  0.00     0.000 HD 
HETATM   28  O   UNL     1     -13.031  13.480  71.469  1.00  0.00    -0.347 OA 
HETATM   29  C   UNL     1     -12.127  13.253  70.671  1.00  0.00    -0.280 C  
ENDBRANCH  20  26
ENDBRANCH  15  18
ENDBRANCH  14  15
ENDBRANCH  12  14
ENDBRANCH  10  12
ENDBRANCH   9  10
ENDBRANCH   6   9
ENDBRANCH   2   3
TORSDOF 8
ENDMDL
MODEL      374
REMARK 921   NORMALIZED FREE ENERGY PREDICTED BY IDOCK:   -3.00 KCAL/MOL
REMARK 922        TOTAL FREE ENERGY PREDICTED BY IDOCK:   -5.90 KCAL/MOL
REMARK 923 INTER-LIGAND FREE ENERGY PREDICTED BY IDOCK:   -4.90 KCAL/MOL
REMARK 924 INTRA-LIGAND FREE ENERGY PREDICTED BY IDOCK:   -1.00 KCAL/MOL
REMARK 927      BINDING AFFINITY PREDICTED BY RF-SCORE:    0.00 PKD
ROOT
HETATM    1  C   UNL     1     -10.005   8.726  72.177  1.00  0.00    -0.289 C  
HETATM    2  O   UNL     1     -11.352   8.867  71.733  1.00  0.00    -0.314 OA 
ENDROOT
BRANCH   2   3
HETATM    3  C   UNL     1     -11.568   9.914  70.882  1.00  0.00    -0.373 A  
HETATM    4  C   UNL     1     -11.030   9.779  69.603  1.00  0.00    -0.269 A  
HETATM    5  C   UNL     1     -11.156  10.811  68.670  1.00  0.00    -0.312 A  
HETATM    6  C   UNL     1     -11.852  11.981  69.000  1.00  0.00    -0.372 A  
HETATM    7  C   UNL     1     -12.292  11.060  71.203  1.00  0.00    -0.465 A  
HETATM    8  C   UNL     1     -12.431  12.088  70.269  1.00  0.00    -0.176 A  
BRANCH   6   9
HETATM    9  C   UNL     1     -11.886  13.168  68.067  1.00  0.00    -0.398 C  
BRANCH   9  10
HETATM   10  C   UNL     1     -10.585  14.001  67.970  1.00  0.00    -0.247 C  
HETATM   11  C   UNL     1     -10.323  14.744  69.285  1.00  0.00    -0.213 C  
BRANCH  10  12
HETATM   12  N   UNL     1      -9.392  13.180  67.669  1.00  0.00    -0.197 NA 
HETATM   13  H   UNL     1      -9.602  12.480  66.958  1.00  0.00     0.000 HD 
BRANCH  12  14
HETATM   14  C   UNL     1      -8.226  13.986  67.284  1.00  0.00    -0.171 C  
BRANCH  14  15
HETATM   15  C   UNL     1      -6.896  13.497  67.915  1.00  0.00    -0.151 C  
HETATM   16  H   UNL     1      -5.945  13.754  69.615  1.00  0.00     0.000 HD 
HETATM   17  O   UNL     1      -6.760  14.053  69.229  1.00  0.00    -0.114 OA 
BRANCH  15  18
HETATM   18  C   UNL     1      -6.855  11.976  67.988  1.00  0.00    -0.078 A  
HETATM   19  C   UNL     1      -6.885  11.303  69.229  1.00  0.00    -0.116 A  
HETATM   20  C   UNL     1      -6.879   9.906  69.303  1.00  0.00    -0.057 A  
HETATM   21  H   UNL     1      -6.780   7.314  67.288  1.00  0.00     0.000 HD 
HETATM   22  C   UNL     1      -6.851   9.176  68.109  1.00  0.00    -0.068 A  
HETATM   23  C   UNL     1      -6.824  11.214  66.813  1.00  0.00    -0.134 A  
HETATM   24  C   UNL     1      -6.831   9.819  66.875  1.00  0.00    -0.083 A  
HETATM   25  O   UNL     1      -6.799   7.810  68.098  1.00  0.00    -0.064 OA 
BRANCH  20  26
HETATM   26  N   UNL     1      -6.936   9.218  70.530  1.00  0.00    -0.081 N  
HETATM   27  H   UNL     1      -7.549   8.404  70.565  1.00  0.00     0.000 HD 
HETATM   28  O   UNL     1      -6.403   8.875  72.709  1.00  0.00    -0.239 OA 
HETATM   29  C   UNL     1      -6.261   9.519  71.675  1.00  0.00     0.079 C  
ENDBRANCH  20  26
ENDBRANCH  15  18
ENDBRANCH  14  15
ENDBRANCH  12  14
ENDBRANCH  10  12
ENDBRANCH   9  10
ENDBRANCH   6   9
ENDBRANCH   2   3
TORSDOF 8
ENDMDL
MODEL      375
REMARK 921   NORMALIZED FREE ENERGY PREDICTED BY IDOCK:   -2.98 KCAL/MOL
REMARK 922        TOTAL FREE ENERGY PREDICTED BY IDOCK:   -5.87 KCAL/MOL
REMARK 923 INTER-LIGAND FREE ENERGY PREDICTED BY IDOCK:   -5.29 KCAL/MOL
REMARK 924 INTRA-LIGAND FREE ENERGY PREDICTED BY IDOCK:   -0.58 KCAL/MOL
REMARK 927      BINDING AFFINITY PREDICTED BY RF-SCORE:    0.00 PKD
ROOT
HETATM    1  C   UNL     1      -5.644  20.012  71.219  1.00  0.00    -0.342 C  
HETATM    2  O   UNL     1      -5.126  19.159  70.203  1.00  0.00    -0.188 OA 
ENDROOT
BRANCH   2   3
HETATM    3  C   UNL     1      -6.074  18.582  69.403  1.00  0.00    -0.259 A  
HETATM    4  C   UNL     1      -7.214  19.347  69.161  1.00  0.00    -0.377 A  
HETATM    5  C   UNL     1      -8.261  18.832  68.393  1.00  0.00    -0.372 A  
HETATM    6  C   UNL     1      -8.163  17.552  67.831  1.00  0.00    -0.231 A  
HETATM    7  C   UNL     1      -5.955  17.324  68.818  1.00  0.00    -0.167 A  
HETATM    8  C   UNL     1      -6.994  16.810  68.039  1.00  0.00    -0.156 A  
BRANCH   6   9
HETATM    9  C   UNL     1      -9.329  16.913  67.117  1.00  0.00    -0.241 C  
BRANCH   9  10
HETATM   10  C   UNL     1     -10.083  15.804  67.890  1.00  0.00    -0.230 C  
HETATM   11  C   UNL     1     -11.551  16.191  68.093  1.00  0.00    -0.133 C  
BRANCH  10  12
HETATM   12  N   UNL     1     -10.051  14.494  67.203  1.00  0.00    -0.250 NA 
HETATM   13  H   UNL     1      -9.338  13.887  67.609  1.00  0.00     0.000 HD 
BRANCH  12  14
HETATM   14  C   UNL     1     -11.359  13.827  67.183  1.00  0.00    -0.324 C  
BRANCH  14  15
HETATM   15  C   UNL     1     -11.315  12.353  67.664  1.00  0.00    -0.312 C  
HETATM   16  H   UNL     1     -12.243  10.680  67.217  1.00  0.00     0.000 HD 
HETATM   17  O   UNL     1     -12.270  11.583  66.922  1.00  0.00    -0.135 OA 
BRANCH  15  18
HETATM   18  C   UNL     1      -9.921  11.765  67.485  1.00  0.00    -0.204 A  
HETATM   19  C   UNL     1      -9.440  11.402  66.208  1.00  0.00    -0.229 A  
HETATM   20  C   UNL     1      -8.150  10.890  66.032  1.00  0.00    -0.142 A  
HETATM   21  H   UNL     1      -5.517  10.119  67.840  1.00  0.00     0.000 HD 
HETATM   22  C   UNL     1      -7.330  10.748  67.158  1.00  0.00    -0.101 A  
HETATM   23  C   UNL     1      -9.075  11.607  68.590  1.00  0.00    -0.103 A  
HETATM   24  C   UNL     1      -7.782  11.109  68.424  1.00  0.00    -0.125 A  
HETATM   25  O   UNL     1      -6.074  10.215  67.076  1.00  0.00    -0.054 OA 
BRANCH  20  26
HETATM   26  N   UNL     1      -7.643  10.548  64.764  1.00  0.00    -0.333 N  
HETATM   27  H   UNL     1      -6.628  10.545  64.667  1.00  0.00     0.000 HD 
HETATM   28  O   UNL     1      -7.824   9.967  62.578  1.00  0.00    -0.116 OA 
HETATM   29  C   UNL     1      -8.359  10.219  63.652  1.00  0.00    -0.169 C  
ENDBRANCH  20  26
ENDBRANCH  15  18
ENDBRANCH  14  15
ENDBRANCH  12  14
ENDBRANCH  10  12
ENDBRANCH   9  10
ENDBRANCH   6   9
ENDBRANCH   2   3
TORSDOF 8
ENDMDL
MODEL      376
REMARK 921   NORMALIZED FREE ENERGY PREDICTED BY IDOCK:   -2.98 KCAL/MOL
REMARK 922        TOTAL FREE ENERGY PREDICTED BY IDOCK:   -5.87 KCAL/MOL
REMARK 923 INTER-LIGAND FREE ENERGY PREDICTED BY IDOCK:   -4.46 KCAL/MOL
REMARK 924 INTRA-LIGAND FREE ENERGY PREDICTED BY IDOCK:   -1.41 KCAL/MOL
REMARK 927      BINDING AFFINITY PREDICTED BY RF-SCORE:    0.00 PKD
ROOT
HETATM    1  C   UNL     1      -6.276   9.305  62.738  1.00  0.00    -0.094 C  
HETATM    2  O   UNL     1      -6.298  10.290  63.768  1.00  0.00    -0.136 OA 
ENDROOT
BRANCH   2   3
HETATM    3  C   UNL     1      -6.938   9.905  64.913  1.00  0.00    -0.131 A  
HETATM    4  C   UNL     1      -6.553  10.569  66.077  1.00  0.00    -0.127 A  
HETATM    5  C   UNL     1      -7.114  10.220  67.308  1.00  0.00    -0.088 A  
HETATM    6  C   UNL     1      -8.093   9.221  67.382  1.00  0.00    -0.110 A  
HETATM    7  C   UNL     1      -7.936   8.937  64.975  1.00  0.00    -0.125 A  
HETATM    8  C   UNL     1      -8.508   8.594  66.201  1.00  0.00    -0.140 A  
BRANCH   6   9
HETATM    9  C   UNL     1      -8.615   8.725  68.709  1.00  0.00    -0.137 C  
BRANCH   9  10
HETATM   10  C   UNL     1      -9.521   9.703  69.497  1.00  0.00    -0.199 C  
HETATM   11  C   UNL     1     -10.662  10.212  68.610  1.00  0.00    -0.253 C  
BRANCH  10  12
HETATM   12  N   UNL     1     -10.122   9.092  70.702  1.00  0.00    -0.211 NA 
HETATM   13  H   UNL     1     -11.141   9.124  70.657  1.00  0.00     0.000 HD 
BRANCH  12  14
HETATM   14  C   UNL     1      -9.650   7.723  70.945  1.00  0.00    -0.167 C  
BRANCH  14  15
HETATM   15  C   UNL     1     -10.718   6.635  70.656  1.00  0.00    -0.241 C  
HETATM   16  H   UNL     1     -12.666   6.580  70.410  1.00  0.00     0.000 HD 
HETATM   17  O   UNL     1     -12.013   7.247  70.587  1.00  0.00    -0.291 OA 
BRANCH  15  18
HETATM   18  C   UNL     1     -10.415   5.910  69.350  1.00  0.00    -0.343 A  
HETATM   19  C   UNL     1      -9.579   4.773  69.324  1.00  0.00    -0.243 A  
HETATM   20  C   UNL     1      -9.321   4.083  68.134  1.00  0.00    -0.164 A  
HETATM   21  H   UNL     1     -10.095   4.259  64.946  1.00  0.00     0.000 HD 
HETATM   22  C   UNL     1      -9.922   4.541  66.955  1.00  0.00    -0.179 A  
HETATM   23  C   UNL     1     -10.998   6.342  68.152  1.00  0.00    -0.412 A  
HETATM   24  C   UNL     1     -10.758   5.653  66.962  1.00  0.00    -0.332 A  
HETATM   25  O   UNL     1      -9.687   3.949  65.746  1.00  0.00    -0.180 OA 
BRANCH  20  26
HETATM   26  N   UNL     1      -8.511   2.933  68.092  1.00  0.00    -0.078 N  
HETATM   27  H   UNL     1      -8.698   2.274  67.336  1.00  0.00     0.000 HD 
HETATM   28  O   UNL     1      -6.875   1.554  68.848  1.00  0.00    -0.029 OA 
HETATM   29  C   UNL     1      -7.506   2.601  68.949  1.00  0.00    -0.047 C  
ENDBRANCH  20  26
ENDBRANCH  15  18
ENDBRANCH  14  15
ENDBRANCH  12  14
ENDBRANCH  10  12
ENDBRANCH   9  10
ENDBRANCH   6   9
ENDBRANCH   2   3
TORSDOF 8
ENDMDL
MODEL      377
REMARK 921   NORMALIZED FREE ENERGY PREDICTED BY IDOCK:   -2.97 KCAL/MOL
REMARK 922        TOTAL FREE ENERGY PREDICTED BY IDOCK:   -5.85 KCAL/MOL
REMARK 923 INTER-LIGAND FREE ENERGY PREDICTED BY IDOCK:   -4.51 KCAL/MOL
REMARK 924 INTRA-LIGAND FREE ENERGY PREDICTED BY IDOCK:   -1.34 KCAL/MOL
REMARK 927      BINDING AFFINITY PREDICTED BY RF-SCORE:    0.00 PKD
ROOT
HETATM    1  C   UNL     1     -10.131   9.136  66.251  1.00  0.00    -0.249 C  
HETATM    2  O   UNL     1     -10.206   7.718  66.135  1.00  0.00     0.045 OA 
ENDROOT
BRANCH   2   3
HETATM    3  C   UNL     1     -10.238   7.047  67.326  1.00  0.00    -0.234 A  
HETATM    4  C   UNL     1      -8.999   6.748  67.890  1.00  0.00    -0.113 A  
HETATM    5  C   UNL     1      -8.921   6.027  69.084  1.00  0.00    -0.124 A  
HETATM    6  C   UNL     1     -10.089   5.625  69.745  1.00  0.00    -0.286 A  
HETATM    7  C   UNL     1     -11.403   6.681  67.997  1.00  0.00    -0.068 A  
HETATM    8  C   UNL     1     -11.329   5.972  69.197  1.00  0.00    -0.196 A  
BRANCH   6   9
HETATM    9  C   UNL     1     -10.039   4.727  70.958  1.00  0.00    -0.269 C  
BRANCH   9  10
HETATM   10  C   UNL     1     -10.248   5.416  72.329  1.00  0.00    -0.196 C  
HETATM   11  C   UNL     1     -11.435   4.792  73.069  1.00  0.00    -0.297 C  
BRANCH  10  12
HETATM   12  N   UNL     1      -9.064   5.322  73.211  1.00  0.00    -0.129 NA 
HETATM   13  H   UNL     1      -8.514   4.490  72.995  1.00  0.00     0.000 HD 
BRANCH  12  14
HETATM   14  C   UNL     1      -8.228   6.529  73.177  1.00  0.00    -0.113 C  
BRANCH  14  15
HETATM   15  C   UNL     1      -9.035   7.848  73.292  1.00  0.00    -0.264 C  
HETATM   16  H   UNL     1      -8.956   9.475  74.391  1.00  0.00     0.000 HD 
HETATM   17  O   UNL     1      -8.462   8.667  74.320  1.00  0.00    -0.173 OA 
BRANCH  15  18
HETATM   18  C   UNL     1      -9.036   8.602  71.968  1.00  0.00    -0.311 A  
HETATM   19  C   UNL     1      -7.829   8.936  71.317  1.00  0.00    -0.163 A  
HETATM   20  C   UNL     1      -7.822   9.600  70.085  1.00  0.00    -0.174 A  
HETATM   21  H   UNL     1      -9.962  10.836  67.921  1.00  0.00     0.000 HD 
HETATM   22  C   UNL     1      -9.050   9.927  69.498  1.00  0.00    -0.223 A  
HETATM   23  C   UNL     1     -10.247   8.947  71.354  1.00  0.00    -0.375 A  
HETATM   24  C   UNL     1     -10.252   9.598  70.119  1.00  0.00    -0.313 A  
HETATM   25  O   UNL     1      -9.129  10.614  68.320  1.00  0.00    -0.142 OA 
BRANCH  20  26
HETATM   26  N   UNL     1      -6.630   9.917  69.408  1.00  0.00    -0.048 N  
HETATM   27  H   UNL     1      -5.900  10.366  69.961  1.00  0.00     0.000 HD 
HETATM   28  O   UNL     1      -5.282  10.035  67.587  1.00  0.00    -0.035 OA 
HETATM   29  C   UNL     1      -6.343   9.691  68.096  1.00  0.00    -0.056 C  
ENDBRANCH  20  26
ENDBRANCH  15  18
ENDBRANCH  14  15
ENDBRANCH  12  14
ENDBRANCH  10  12
ENDBRANCH   9  10
ENDBRANCH   6   9
ENDBRANCH   2   3
TORSDOF 8
ENDMDL
MODEL      378
REMARK 921   NORMALIZED FREE ENERGY PREDICTED BY IDOCK:   -2.97 KCAL/MOL
REMARK 922        TOTAL FREE ENERGY PREDICTED BY IDOCK:   -5.85 KCAL/MOL
REMARK 923 INTER-LIGAND FREE ENERGY PREDICTED BY IDOCK:   -4.66 KCAL/MOL
REMARK 924 INTRA-LIGAND FREE ENERGY PREDICTED BY IDOCK:   -1.19 KCAL/MOL
REMARK 927      BINDING AFFINITY PREDICTED BY RF-SCORE:    0.00 PKD
ROOT
HETATM    1  C   UNL     1      -9.607  13.072  67.708  1.00  0.00    -0.208 C  
HETATM    2  O   UNL     1      -8.924  12.069  66.963  1.00  0.00    -0.184 OA 
ENDROOT
BRANCH   2   3
HETATM    3  C   UNL     1      -9.434  10.808  67.100  1.00  0.00    -0.160 A  
HETATM    4  C   UNL     1      -9.270   9.963  66.002  1.00  0.00    -0.215 A  
HETATM    5  C   UNL     1      -9.793   8.668  66.023  1.00  0.00    -0.183 A  
HETATM    6  C   UNL     1     -10.461   8.193  67.159  1.00  0.00    -0.396 A  
HETATM    7  C   UNL     1     -10.065  10.329  68.245  1.00  0.00    -0.176 A  
HETATM    8  C   UNL     1     -10.578   9.031  68.274  1.00  0.00    -0.213 A  
BRANCH   6   9
HETATM    9  C   UNL     1     -11.158   6.853  67.162  1.00  0.00    -0.362 C  
BRANCH   9  10
HETATM   10  C   UNL     1     -10.246   5.607  67.270  1.00  0.00    -0.206 C  
HETATM   11  C   UNL     1     -10.004   4.997  65.885  1.00  0.00    -0.189 C  
BRANCH  10  12
HETATM   12  N   UNL     1      -8.928   5.904  67.871  1.00  0.00    -0.112 NA 
HETATM   13  H   UNL     1      -8.828   6.901  68.056  1.00  0.00     0.000 HD 
BRANCH  12  14
HETATM   14  C   UNL     1      -8.661   5.115  69.081  1.00  0.00    -0.092 C  
BRANCH  14  15
HETATM   15  C   UNL     1      -9.670   5.377  70.230  1.00  0.00    -0.192 C  
HETATM   16  H   UNL     1     -10.626   4.293  71.561  1.00  0.00     0.000 HD 
HETATM   17  O   UNL     1     -10.008   4.133  70.858  1.00  0.00    -0.197 OA 
BRANCH  15  18
HETATM   18  C   UNL     1      -9.086   6.337  71.259  1.00  0.00    -0.148 A  
HETATM   19  C   UNL     1      -8.087   7.269  70.903  1.00  0.00    -0.106 A  
HETATM   20  C   UNL     1      -7.568   8.174  71.835  1.00  0.00    -0.097 A  
HETATM   21  H   UNL     1      -7.922   8.947  75.008  1.00  0.00     0.000 HD 
HETATM   22  C   UNL     1      -8.068   8.145  73.142  1.00  0.00    -0.179 A  
HETATM   23  C   UNL     1      -9.561   6.333  72.576  1.00  0.00    -0.146 A  
HETATM   24  C   UNL     1      -9.060   7.241  73.511  1.00  0.00    -0.226 A  
HETATM   25  O   UNL     1      -7.583   8.966  74.121  1.00  0.00    -0.416 OA 
BRANCH  20  26
HETATM   26  N   UNL     1      -6.591   9.128  71.493  1.00  0.00    -0.065 N  
HETATM   27  H   UNL     1      -5.732   9.115  72.041  1.00  0.00     0.000 HD 
HETATM   28  O   UNL     1      -5.772  10.882  70.309  1.00  0.00    -0.077 OA 
HETATM   29  C   UNL     1      -6.667  10.069  70.510  1.00  0.00    -0.115 C  
ENDBRANCH  20  26
ENDBRANCH  15  18
ENDBRANCH  14  15
ENDBRANCH  12  14
ENDBRANCH  10  12
ENDBRANCH   9  10
ENDBRANCH   6   9
ENDBRANCH   2   3
TORSDOF 8
ENDMDL
MODEL      379
REMARK 921   NORMALIZED FREE ENERGY PREDICTED BY IDOCK:   -2.88 KCAL/MOL
REMARK 922        TOTAL FREE ENERGY PREDICTED BY IDOCK:   -5.72 KCAL/MOL
REMARK 923 INTER-LIGAND FREE ENERGY PREDICTED BY IDOCK:   -4.68 KCAL/MOL
REMARK 924 INTRA-LIGAND FREE ENERGY PREDICTED BY IDOCK:   -1.04 KCAL/MOL
REMARK 927      BINDING AFFINITY PREDICTED BY RF-SCORE:    0.00 PKD
ROOT
HETATM    1  C   UNL     1     -11.032  11.845  63.337  1.00  0.00    -0.395 C  
HETATM    2  O   UNL     1     -10.138  10.777  63.636  1.00  0.00    -0.325 OA 
ENDROOT
BRANCH   2   3
HETATM    3  C   UNL     1      -9.203  11.064  64.591  1.00  0.00    -0.168 A  
HETATM    4  C   UNL     1      -9.625  11.902  65.623  1.00  0.00    -0.221 A  
HETATM    5  C   UNL     1      -8.734  12.293  66.626  1.00  0.00    -0.132 A  
HETATM    6  C   UNL     1      -7.415  11.820  66.623  1.00  0.00     0.014 A  
HETATM    7  C   UNL     1      -7.904  10.563  64.604  1.00  0.00    -0.004 A  
HETATM    8  C   UNL     1      -7.014  10.940  65.612  1.00  0.00     0.059 A  
BRANCH   6   9
HETATM    9  C   UNL     1      -6.393  12.332  67.610  1.00  0.00    -0.122 C  
BRANCH   9  10
HETATM   10  C   UNL     1      -6.940  13.170  68.791  1.00  0.00    -0.103 C  
HETATM   11  C   UNL     1      -6.535  12.542  70.129  1.00  0.00     0.180 C  
BRANCH  10  12
HETATM   12  N   UNL     1      -6.458  14.568  68.782  1.00  0.00    -0.085 NA 
HETATM   13  H   UNL     1      -5.758  14.716  69.510  1.00  0.00     0.000 HD 
BRANCH  12  14
HETATM   14  C   UNL     1      -5.949  14.989  67.471  1.00  0.00     0.036 C  
BRANCH  14  15
HETATM   15  C   UNL     1      -5.858  16.528  67.303  1.00  0.00    -0.157 C  
HETATM   16  H   UNL     1      -5.114  17.776  65.979  1.00  0.00     0.000 HD 
HETATM   17  O   UNL     1      -5.171  16.833  66.082  1.00  0.00    -0.287 OA 
BRANCH  15  18
HETATM   18  C   UNL     1      -7.245  17.158  67.289  1.00  0.00    -0.191 A  
HETATM   19  C   UNL     1      -8.364  16.449  66.800  1.00  0.00    -0.285 A  
HETATM   20  C   UNL     1      -9.646  17.008  66.812  1.00  0.00    -0.264 A  
HETATM   21  H   UNL     1     -11.124  19.806  67.696  1.00  0.00     0.000 HD 
HETATM   22  C   UNL     1      -9.805  18.297  67.334  1.00  0.00    -0.316 A  
HETATM   23  C   UNL     1      -7.440  18.447  67.801  1.00  0.00    -0.236 A  
HETATM   24  C   UNL     1      -8.717  19.009  67.831  1.00  0.00    -0.333 A  
HETATM   25  O   UNL     1     -11.016  18.931  67.342  1.00  0.00    -0.437 OA 
BRANCH  20  26
HETATM   26  N   UNL     1     -10.777  16.307  66.353  1.00  0.00    -0.238 N  
HETATM   27  H   UNL     1     -11.490  16.091  67.050  1.00  0.00     0.000 HD 
HETATM   28  O   UNL     1     -12.030  15.250  64.785  1.00  0.00    -0.293 OA 
HETATM   29  C   UNL     1     -11.025  15.886  65.081  1.00  0.00    -0.377 C  
ENDBRANCH  20  26
ENDBRANCH  15  18
ENDBRANCH  14  15
ENDBRANCH  12  14
ENDBRANCH  10  12
ENDBRANCH   9  10
ENDBRANCH   6   9
ENDBRANCH   2   3
TORSDOF 8
ENDMDL
MODEL      380
REMARK 921   NORMALIZED FREE ENERGY PREDICTED BY IDOCK:   -2.86 KCAL/MOL
REMARK 922        TOTAL FREE ENERGY PREDICTED BY IDOCK:   -5.69 KCAL/MOL
REMARK 923 INTER-LIGAND FREE ENERGY PREDICTED BY IDOCK:   -5.16 KCAL/MOL
REMARK 924 INTRA-LIGAND FREE ENERGY PREDICTED BY IDOCK:   -0.53 KCAL/MOL
REMARK 927      BINDING AFFINITY PREDICTED BY RF-SCORE:    0.00 PKD
ROOT
HETATM    1  C   UNL     1      -5.166  18.609  66.936  1.00  0.00    -0.130 C  
HETATM    2  O   UNL     1      -5.580  18.251  68.251  1.00  0.00    -0.167 OA 
ENDROOT
BRANCH   2   3
HETATM    3  C   UNL     1      -6.305  17.094  68.328  1.00  0.00    -0.149 A  
HETATM    4  C   UNL     1      -6.995  16.731  67.172  1.00  0.00    -0.226 A  
HETATM    5  C   UNL     1      -7.800  15.589  67.160  1.00  0.00    -0.256 A  
HETATM    6  C   UNL     1      -7.898  14.780  68.298  1.00  0.00    -0.125 A  
HETATM    7  C   UNL     1      -6.369  16.274  69.452  1.00  0.00    -0.184 A  
HETATM    8  C   UNL     1      -7.163  15.125  69.438  1.00  0.00    -0.198 A  
BRANCH   6   9
HETATM    9  C   UNL     1      -8.865  13.622  68.362  1.00  0.00    -0.152 C  
BRANCH   9  10
HETATM   10  C   UNL     1      -8.467  12.353  67.570  1.00  0.00    -0.175 C  
HETATM   11  C   UNL     1      -6.951  12.310  67.349  1.00  0.00    -0.151 C  
BRANCH  10  12
HETATM   12  N   UNL     1      -8.861  11.099  68.248  1.00  0.00    -0.149 NA 
HETATM   13  H   UNL     1      -8.099  10.739  68.821  1.00  0.00     0.000 HD 
BRANCH  12  14
HETATM   14  C   UNL     1     -10.092  11.238  69.037  1.00  0.00    -0.128 C  
BRANCH  14  15
HETATM   15  C   UNL     1     -11.093  10.069  68.843  1.00  0.00    -0.176 C  
HETATM   16  H   UNL     1     -11.420   8.684  67.489  1.00  0.00     0.000 HD 
HETATM   17  O   UNL     1     -10.807   9.399  67.608  1.00  0.00    -0.267 OA 
BRANCH  15  18
HETATM   18  C   UNL     1     -11.008   9.082  70.001  1.00  0.00    -0.230 A  
HETATM   19  C   UNL     1     -10.333   7.851  69.863  1.00  0.00    -0.224 A  
HETATM   20  C   UNL     1     -10.225   6.953  70.930  1.00  0.00    -0.197 A  
HETATM   21  H   UNL     1     -11.163   6.705  74.068  1.00  0.00     0.000 HD 
HETATM   22  C   UNL     1     -10.798   7.305  72.157  1.00  0.00    -0.229 A  
HETATM   23  C   UNL     1     -11.573   9.402  71.242  1.00  0.00    -0.434 A  
HETATM   24  C   UNL     1     -11.460   8.519  72.317  1.00  0.00    -0.445 A  
HETATM   25  O   UNL     1     -10.774   6.465  73.235  1.00  0.00    -0.248 OA 
BRANCH  20  26
HETATM   26  N   UNL     1      -9.532   5.732  70.819  1.00  0.00    -0.163 N  
HETATM   27  H   UNL     1      -8.558   5.734  71.121  1.00  0.00     0.000 HD 
HETATM   28  O   UNL     1      -9.325   3.542  70.264  1.00  0.00    -0.140 OA 
HETATM   29  C   UNL     1     -10.020   4.548  70.353  1.00  0.00    -0.213 C  
ENDBRANCH  20  26
ENDBRANCH  15  18
ENDBRANCH  14  15
ENDBRANCH  12  14
ENDBRANCH  10  12
ENDBRANCH   9  10
ENDBRANCH   6   9
ENDBRANCH   2   3
TORSDOF 8
ENDMDL
MODEL      381
REMARK 921   NORMALIZED FREE ENERGY PREDICTED BY IDOCK:   -2.84 KCAL/MOL
REMARK 922        TOTAL FREE ENERGY PREDICTED BY IDOCK:   -5.67 KCAL/MOL
REMARK 923 INTER-LIGAND FREE ENERGY PREDICTED BY IDOCK:   -3.92 KCAL/MOL
REMARK 924 INTRA-LIGAND FREE ENERGY PREDICTED BY IDOCK:   -1.75 KCAL/MOL
REMARK 927      BINDING AFFINITY PREDICTED BY RF-SCORE:    0.00 PKD
ROOT
HETATM    1  C   UNL     1     -13.026   7.328  71.087  1.00  0.00    -0.259 C  
HETATM    2  O   UNL     1     -11.776   7.984  70.894  1.00  0.00    -0.287 OA 
ENDROOT
BRANCH   2   3
HETATM    3  C   UNL     1     -10.679   7.184  71.053  1.00  0.00    -0.232 A  
HETATM    4  C   UNL     1     -10.925   5.812  71.071  1.00  0.00    -0.300 A  
HETATM    5  C   UNL     1      -9.878   4.909  71.272  1.00  0.00    -0.253 A  
HETATM    6  C   UNL     1      -8.565   5.371  71.427  1.00  0.00    -0.131 A  
HETATM    7  C   UNL     1      -9.371   7.648  71.170  1.00  0.00    -0.161 A  
HETATM    8  C   UNL     1      -8.321   6.748  71.359  1.00  0.00    -0.119 A  
BRANCH   6   9
HETATM    9  C   UNL     1      -7.436   4.435  71.785  1.00  0.00    -0.070 C  
BRANCH   9  10
HETATM   10  C   UNL     1      -7.181   3.263  70.806  1.00  0.00    -0.033 C  
HETATM   11  C   UNL     1      -7.253   1.921  71.542  1.00  0.00    -0.032 C  
BRANCH  10  12
HETATM   12  N   UNL     1      -8.151   3.219  69.690  1.00  0.00    -0.048 NA 
HETATM   13  H   UNL     1      -9.004   3.724  69.929  1.00  0.00     0.000 HD 
BRANCH  12  14
HETATM   14  C   UNL     1      -7.588   3.709  68.424  1.00  0.00    -0.057 C  
BRANCH  14  15
HETATM   15  C   UNL     1      -8.651   3.943  67.319  1.00  0.00    -0.102 C  
HETATM   16  H   UNL     1     -10.354   3.122  66.783  1.00  0.00     0.000 HD 
HETATM   17  O   UNL     1      -9.703   2.979  67.460  1.00  0.00    -0.102 OA 
BRANCH  15  18
HETATM   18  C   UNL     1      -9.223   5.353  67.405  1.00  0.00    -0.112 A  
HETATM   19  C   UNL     1      -8.379   6.476  67.541  1.00  0.00    -0.121 A  
HETATM   20  C   UNL     1      -8.894   7.776  67.589  1.00  0.00    -0.128 A  
HETATM   21  H   UNL     1     -11.806   9.295  67.505  1.00  0.00     0.000 HD 
HETATM   22  C   UNL     1     -10.280   7.946  67.490  1.00  0.00    -0.242 A  
HETATM   23  C   UNL     1     -10.605   5.560  67.311  1.00  0.00    -0.294 A  
HETATM   24  C   UNL     1     -11.129   6.853  67.345  1.00  0.00    -0.322 A  
HETATM   25  O   UNL     1     -10.865   9.179  67.572  1.00  0.00    -0.242 OA 
BRANCH  20  26
HETATM   26  N   UNL     1      -8.067   8.909  67.697  1.00  0.00    -0.106 N  
HETATM   27  H   UNL     1      -8.037   9.363  68.610  1.00  0.00     0.000 HD 
HETATM   28  O   UNL     1      -6.637  10.481  66.902  1.00  0.00    -0.073 OA 
HETATM   29  C   UNL     1      -7.302   9.468  66.718  1.00  0.00    -0.090 C  
ENDBRANCH  20  26
ENDBRANCH  15  18
ENDBRANCH  14  15
ENDBRANCH  12  14
ENDBRANCH  10  12
ENDBRANCH   9  10
ENDBRANCH   6   9
ENDBRANCH   2   3
TORSDOF 8
ENDMDL
MODEL      382
REMARK 921   NORMALIZED FREE ENERGY PREDICTED BY IDOCK:   -2.84 KCAL/MOL
REMARK 922        TOTAL FREE ENERGY PREDICTED BY IDOCK:   -5.66 KCAL/MOL
REMARK 923 INTER-LIGAND FREE ENERGY PREDICTED BY IDOCK:   -4.89 KCAL/MOL
REMARK 924 INTRA-LIGAND FREE ENERGY PREDICTED BY IDOCK:   -0.77 KCAL/MOL
REMARK 927      BINDING AFFINITY PREDICTED BY RF-SCORE:    0.00 PKD
ROOT
HETATM    1  C   UNL     1     -10.874  14.616  64.862  1.00  0.00    -0.419 C  
HETATM    2  O   UNL     1     -10.495  14.381  66.215  1.00  0.00    -0.279 OA 
ENDROOT
BRANCH   2   3
HETATM    3  C   UNL     1      -9.683  13.297  66.402  1.00  0.00    -0.276 A  
HETATM    4  C   UNL     1      -9.913  12.212  65.557  1.00  0.00    -0.269 A  
HETATM    5  C   UNL     1      -9.167  11.039  65.694  1.00  0.00    -0.231 A  
HETATM    6  C   UNL     1      -8.159  10.951  66.662  1.00  0.00    -0.147 A  
HETATM    7  C   UNL     1      -8.657  13.229  67.341  1.00  0.00    -0.204 A  
HETATM    8  C   UNL     1      -7.902  12.063  67.473  1.00  0.00    -0.155 A  
BRANCH   6   9
HETATM    9  C   UNL     1      -7.432   9.655  66.929  1.00  0.00    -0.091 C  
BRANCH   9  10
HETATM   10  C   UNL     1      -7.949   8.813  68.121  1.00  0.00    -0.106 C  
HETATM   11  C   UNL     1      -8.187   7.361  67.692  1.00  0.00    -0.118 C  
BRANCH  10  12
HETATM   12  N   UNL     1      -7.015   8.799  69.268  1.00  0.00    -0.057 NA 
HETATM   13  H   UNL     1      -7.178   9.598  69.880  1.00  0.00     0.000 HD 
BRANCH  12  14
HETATM   14  C   UNL     1      -7.058   7.540  70.024  1.00  0.00    -0.060 C  
BRANCH  14  15
HETATM   15  C   UNL     1      -7.327   7.733  71.540  1.00  0.00    -0.069 C  
HETATM   16  H   UNL     1      -7.478   9.251  72.778  1.00  0.00     0.000 HD 
HETATM   17  O   UNL     1      -7.314   9.133  71.850  1.00  0.00    -0.334 OA 
BRANCH  15  18
HETATM   18  C   UNL     1      -8.667   7.125  71.936  1.00  0.00    -0.126 A  
HETATM   19  C   UNL     1      -9.860   7.501  71.283  1.00  0.00    -0.188 A  
HETATM   20  C   UNL     1     -11.090   6.925  71.620  1.00  0.00    -0.240 A  
HETATM   21  H   UNL     1     -12.299   4.709  73.722  1.00  0.00     0.000 HD 
HETATM   22  C   UNL     1     -11.116   5.950  72.624  1.00  0.00    -0.280 A  
HETATM   23  C   UNL     1      -8.729   6.148  72.938  1.00  0.00    -0.122 A  
HETATM   24  C   UNL     1      -9.949   5.558  73.273  1.00  0.00    -0.188 A  
HETATM   25  O   UNL     1     -12.282   5.371  73.041  1.00  0.00    -0.062 OA 
BRANCH  20  26
HETATM   26  N   UNL     1     -12.287   7.268  70.963  1.00  0.00    -0.468 N  
HETATM   27  H   UNL     1     -12.353   7.011  69.978  1.00  0.00     0.000 HD 
HETATM   28  O   UNL     1     -14.355   8.190  70.830  1.00  0.00    -0.099 OA 
HETATM   29  C   UNL     1     -13.367   7.905  71.496  1.00  0.00    -0.303 C  
ENDBRANCH  20  26
ENDBRANCH  15  18
ENDBRANCH  14  15
ENDBRANCH  12  14
ENDBRANCH  10  12
ENDBRANCH   9  10
ENDBRANCH   6   9
ENDBRANCH   2   3
TORSDOF 8
ENDMDL
MODEL      383
REMARK 921   NORMALIZED FREE ENERGY PREDICTED BY IDOCK:   -2.81 KCAL/MOL
REMARK 922        TOTAL FREE ENERGY PREDICTED BY IDOCK:   -5.62 KCAL/MOL
REMARK 923 INTER-LIGAND FREE ENERGY PREDICTED BY IDOCK:   -5.28 KCAL/MOL
REMARK 924 INTRA-LIGAND FREE ENERGY PREDICTED BY IDOCK:   -0.35 KCAL/MOL
REMARK 927      BINDING AFFINITY PREDICTED BY RF-SCORE:    0.00 PKD
ROOT
HETATM    1  C   UNL     1     -10.670  16.259  65.510  1.00  0.00    -0.313 C  
HETATM    2  O   UNL     1     -11.454  15.169  65.034  1.00  0.00    -0.368 OA 
ENDROOT
BRANCH   2   3
HETATM    3  C   UNL     1     -11.201  13.972  65.645  1.00  0.00    -0.310 A  
HETATM    4  C   UNL     1     -10.402  13.081  64.930  1.00  0.00    -0.343 A  
HETATM    5  C   UNL     1     -10.120  11.814  65.447  1.00  0.00    -0.291 A  
HETATM    6  C   UNL     1     -10.612  11.437  66.703  1.00  0.00    -0.302 A  
HETATM    7  C   UNL     1     -11.662  13.617  66.910  1.00  0.00    -0.423 A  
HETATM    8  C   UNL     1     -11.372  12.356  67.435  1.00  0.00    -0.381 A  
BRANCH   6   9
HETATM    9  C   UNL     1     -10.443  10.030  67.227  1.00  0.00    -0.313 C  
BRANCH   9  10
HETATM   10  C   UNL     1      -9.056   9.681  67.818  1.00  0.00    -0.124 C  
HETATM   11  C   UNL     1      -8.337  10.949  68.291  1.00  0.00    -0.129 C  
BRANCH  10  12
HETATM   12  N   UNL     1      -9.132   8.750  68.964  1.00  0.00    -0.141 NA 
HETATM   13  H   UNL     1      -9.970   8.922  69.518  1.00  0.00     0.000 HD 
BRANCH  12  14
HETATM   14  C   UNL     1      -9.048   7.340  68.562  1.00  0.00    -0.136 C  
BRANCH  14  15
HETATM   15  C   UNL     1     -10.207   6.466  69.109  1.00  0.00    -0.182 C  
HETATM   16  H   UNL     1     -11.227   4.904  68.493  1.00  0.00     0.000 HD 
HETATM   17  O   UNL     1     -10.517   5.439  68.158  1.00  0.00    -0.178 OA 
BRANCH  15  18
HETATM   18  C   UNL     1      -9.831   5.839  70.447  1.00  0.00    -0.241 A  
HETATM   19  C   UNL     1      -8.892   6.454  71.302  1.00  0.00    -0.138 A  
HETATM   20  C   UNL     1      -8.564   5.901  72.545  1.00  0.00    -0.120 A  
HETATM   21  H   UNL     1      -9.335   3.286  74.378  1.00  0.00     0.000 HD 
HETATM   22  C   UNL     1      -9.200   4.716  72.935  1.00  0.00    -0.123 A  
HETATM   23  C   UNL     1     -10.446   4.653  70.867  1.00  0.00    -0.028 A  
HETATM   24  C   UNL     1     -10.136   4.100  72.110  1.00  0.00    -0.248 A  
HETATM   25  O   UNL     1      -8.904   4.090  74.113  1.00  0.00    -0.095 OA 
BRANCH  20  26
HETATM   26  N   UNL     1      -7.650   6.513  73.423  1.00  0.00    -0.092 N  
HETATM   27  H   UNL     1      -7.079   5.888  73.991  1.00  0.00     0.000 HD 
HETATM   28  O   UNL     1      -6.643   8.287  74.416  1.00  0.00    -0.115 OA 
HETATM   29  C   UNL     1      -7.444   7.848  73.598  1.00  0.00    -0.141 C  
ENDBRANCH  20  26
ENDBRANCH  15  18
ENDBRANCH  14  15
ENDBRANCH  12  14
ENDBRANCH  10  12
ENDBRANCH   9  10
ENDBRANCH   6   9
ENDBRANCH   2   3
TORSDOF 8
ENDMDL
MODEL      384
REMARK 921   NORMALIZED FREE ENERGY PREDICTED BY IDOCK:   -2.79 KCAL/MOL
REMARK 922        TOTAL FREE ENERGY PREDICTED BY IDOCK:   -5.59 KCAL/MOL
REMARK 923 INTER-LIGAND FREE ENERGY PREDICTED BY IDOCK:   -4.98 KCAL/MOL
REMARK 924 INTRA-LIGAND FREE ENERGY PREDICTED BY IDOCK:   -0.60 KCAL/MOL
REMARK 927      BINDING AFFINITY PREDICTED BY RF-SCORE:    0.00 PKD
ROOT
HETATM    1  C   UNL     1      -9.039   4.432  72.190  1.00  0.00    -0.121 C  
HETATM    2  O   UNL     1      -8.555   5.661  72.725  1.00  0.00    -0.120 OA 
ENDROOT
BRANCH   2   3
HETATM    3  C   UNL     1      -8.848   6.766  71.975  1.00  0.00    -0.134 A  
HETATM    4  C   UNL     1      -8.212   6.847  70.737  1.00  0.00    -0.122 A  
HETATM    5  C   UNL     1      -8.409   7.958  69.913  1.00  0.00    -0.122 A  
HETATM    6  C   UNL     1      -9.273   8.987  70.307  1.00  0.00    -0.229 A  
HETATM    7  C   UNL     1      -9.736   7.768  72.356  1.00  0.00    -0.249 A  
HETATM    8  C   UNL     1      -9.946   8.874  71.530  1.00  0.00    -0.391 A  
BRANCH   6   9
HETATM    9  C   UNL     1      -9.400  10.261  69.507  1.00  0.00    -0.200 C  
BRANCH   9  10
HETATM   10  C   UNL     1      -9.553  10.096  67.975  1.00  0.00    -0.145 C  
HETATM   11  C   UNL     1     -10.944   9.554  67.629  1.00  0.00    -0.150 C  
BRANCH  10  12
HETATM   12  N   UNL     1      -9.362  11.361  67.233  1.00  0.00    -0.166 NA 
HETATM   13  H   UNL     1     -10.003  12.080  67.569  1.00  0.00     0.000 HD 
BRANCH  12  14
HETATM   14  C   UNL     1      -7.974  11.838  67.264  1.00  0.00    -0.161 C  
BRANCH  14  15
HETATM   15  C   UNL     1      -7.666  12.784  68.455  1.00  0.00    -0.132 C  
HETATM   16  H   UNL     1      -6.058  13.506  69.323  1.00  0.00     0.000 HD 
HETATM   17  O   UNL     1      -6.246  12.927  68.593  1.00  0.00    -0.064 OA 
BRANCH  15  18
HETATM   18  C   UNL     1      -8.308  14.150  68.244  1.00  0.00    -0.157 A  
HETATM   19  C   UNL     1      -9.527  14.488  68.871  1.00  0.00    -0.144 A  
HETATM   20  C   UNL     1     -10.107  15.751  68.708  1.00  0.00    -0.215 A  
HETATM   21  H   UNL     1      -9.518  18.565  67.119  1.00  0.00     0.000 HD 
HETATM   22  C   UNL     1      -9.445  16.689  67.907  1.00  0.00    -0.225 A  
HETATM   23  C   UNL     1      -7.674  15.112  67.448  1.00  0.00    -0.225 A  
HETATM   24  C   UNL     1      -8.237  16.379  67.288  1.00  0.00    -0.193 A  
HETATM   25  O   UNL     1      -9.967  17.928  67.662  1.00  0.00    -0.299 OA 
BRANCH  20  26
HETATM   26  N   UNL     1     -11.307  16.116  69.346  1.00  0.00    -0.333 N  
HETATM   27  H   UNL     1     -11.498  17.115  69.415  1.00  0.00     0.000 HD 
HETATM   28  O   UNL     1     -13.246  15.698  70.449  1.00  0.00    -0.361 OA 
HETATM   29  C   UNL     1     -12.242  15.281  69.881  1.00  0.00    -0.323 C  
ENDBRANCH  20  26
ENDBRANCH  15  18
ENDBRANCH  14  15
ENDBRANCH  12  14
ENDBRANCH  10  12
ENDBRANCH   9  10
ENDBRANCH   6   9
ENDBRANCH   2   3
TORSDOF 8
ENDMDL
MODEL      385
REMARK 921   NORMALIZED FREE ENERGY PREDICTED BY IDOCK:   -2.77 KCAL/MOL
REMARK 922        TOTAL FREE ENERGY PREDICTED BY IDOCK:   -5.56 KCAL/MOL
REMARK 923 INTER-LIGAND FREE ENERGY PREDICTED BY IDOCK:   -5.08 KCAL/MOL
REMARK 924 INTRA-LIGAND FREE ENERGY PREDICTED BY IDOCK:   -0.49 KCAL/MOL
REMARK 927      BINDING AFFINITY PREDICTED BY RF-SCORE:    0.00 PKD
ROOT
HETATM    1  C   UNL     1      -8.891   1.700  65.652  1.00  0.00    -0.124 C  
HETATM    2  O   UNL     1      -8.237   2.365  66.728  1.00  0.00    -0.080 OA 
ENDROOT
BRANCH   2   3
HETATM    3  C   UNL     1      -8.818   3.542  67.111  1.00  0.00    -0.131 A  
HETATM    4  C   UNL     1      -8.505   4.656  66.334  1.00  0.00    -0.109 A  
HETATM    5  C   UNL     1      -9.012   5.915  66.667  1.00  0.00    -0.125 A  
HETATM    6  C   UNL     1      -9.867   6.065  67.766  1.00  0.00    -0.129 A  
HETATM    7  C   UNL     1      -9.697   3.679  68.183  1.00  0.00    -0.089 A  
HETATM    8  C   UNL     1     -10.216   4.933  68.511  1.00  0.00    -0.105 A  
BRANCH   6   9
HETATM    9  C   UNL     1     -10.318   7.428  68.234  1.00  0.00    -0.231 C  
BRANCH   9  10
HETATM   10  C   UNL     1      -9.279   8.259  69.026  1.00  0.00    -0.147 C  
HETATM   11  C   UNL     1      -8.408   7.344  69.894  1.00  0.00    -0.134 C  
BRANCH  10  12
HETATM   12  N   UNL     1      -8.380   9.046  68.155  1.00  0.00    -0.120 NA 
HETATM   13  H   UNL     1      -8.548   8.833  67.171  1.00  0.00     0.000 HD 
BRANCH  12  14
HETATM   14  C   UNL     1      -8.467  10.492  68.401  1.00  0.00    -0.128 C  
BRANCH  14  15
HETATM   15  C   UNL     1      -7.818  11.354  67.287  1.00  0.00    -0.149 C  
HETATM   16  H   UNL     1      -7.193  11.068  65.446  1.00  0.00     0.000 HD 
HETATM   17  O   UNL     1      -7.591  10.540  66.128  1.00  0.00    -0.124 OA 
BRANCH  15  18
HETATM   18  C   UNL     1      -8.709  12.536  66.926  1.00  0.00    -0.182 A  
HETATM   19  C   UNL     1      -9.722  12.415  65.951  1.00  0.00    -0.237 A  
HETATM   20  C   UNL     1     -10.565  13.486  65.635  1.00  0.00    -0.284 A  
HETATM   21  H   UNL     1     -11.021  16.622  66.501  1.00  0.00     0.000 HD 
HETATM   22  C   UNL     1     -10.389  14.695  66.319  1.00  0.00    -0.294 A  
HETATM   23  C   UNL     1      -8.558  13.761  67.587  1.00  0.00    -0.187 A  
HETATM   24  C   UNL     1      -9.402  14.832  67.290  1.00  0.00    -0.211 A  
HETATM   25  O   UNL     1     -11.141  15.801  66.038  1.00  0.00    -0.229 OA 
BRANCH  20  26
HETATM   26  N   UNL     1     -11.598  13.377  64.685  1.00  0.00    -0.340 N  
HETATM   27  H   UNL     1     -12.013  14.251  64.364  1.00  0.00     0.000 HD 
HETATM   28  O   UNL     1     -13.032  12.238  63.346  1.00  0.00    -0.753 OA 
HETATM   29  C   UNL     1     -12.104  12.232  64.147  1.00  0.00    -0.436 C  
ENDBRANCH  20  26
ENDBRANCH  15  18
ENDBRANCH  14  15
ENDBRANCH  12  14
ENDBRANCH  10  12
ENDBRANCH   9  10
ENDBRANCH   6   9
ENDBRANCH   2   3
TORSDOF 8
ENDMDL
MODEL      386
REMARK 921   NORMALIZED FREE ENERGY PREDICTED BY IDOCK:   -2.76 KCAL/MOL
REMARK 922        TOTAL FREE ENERGY PREDICTED BY IDOCK:   -5.54 KCAL/MOL
REMARK 923 INTER-LIGAND FREE ENERGY PREDICTED BY IDOCK:   -4.00 KCAL/MOL
REMARK 924 INTRA-LIGAND FREE ENERGY PREDICTED BY IDOCK:   -1.54 KCAL/MOL
REMARK 927      BINDING AFFINITY PREDICTED BY RF-SCORE:    0.00 PKD
ROOT
HETATM    1  C   UNL     1      -9.981  13.350  67.789  1.00  0.00    -0.233 C  
HETATM    2  O   UNL     1      -9.361  12.681  66.695  1.00  0.00    -0.229 OA 
ENDROOT
BRANCH   2   3
HETATM    3  C   UNL     1      -9.369  11.316  66.781  1.00  0.00    -0.177 A  
HETATM    4  C   UNL     1      -9.332  10.630  65.567  1.00  0.00    -0.245 A  
HETATM    5  C   UNL     1      -9.381   9.235  65.543  1.00  0.00    -0.303 A  
HETATM    6  C   UNL     1      -9.437   8.508  66.739  1.00  0.00    -0.253 A  
HETATM    7  C   UNL     1      -9.388  10.598  67.974  1.00  0.00    -0.151 A  
HETATM    8  C   UNL     1      -9.425   9.203  67.954  1.00  0.00    -0.158 A  
BRANCH   6   9
HETATM    9  C   UNL     1      -9.632   7.010  66.743  1.00  0.00    -0.221 C  
BRANCH   9  10
HETATM   10  C   UNL     1      -8.398   6.158  66.360  1.00  0.00    -0.120 C  
HETATM   11  C   UNL     1      -8.467   5.743  64.886  1.00  0.00    -0.103 C  
BRANCH  10  12
HETATM   12  N   UNL     1      -7.116   6.865  66.571  1.00  0.00    -0.066 NA 
HETATM   13  H   UNL     1      -7.267   7.764  67.027  1.00  0.00     0.000 HD 
BRANCH  12  14
HETATM   14  C   UNL     1      -6.134   6.060  67.308  1.00  0.00    -0.018 C  
BRANCH  14  15
HETATM   15  C   UNL     1      -6.734   5.299  68.519  1.00  0.00    -0.054 C  
HETATM   16  H   UNL     1      -6.098   3.987  69.836  1.00  0.00     0.000 HD 
HETATM   17  O   UNL     1      -5.730   4.453  69.095  1.00  0.00    -0.016 OA 
BRANCH  15  18
HETATM   18  C   UNL     1      -7.257   6.272  69.568  1.00  0.00    -0.078 A  
HETATM   19  C   UNL     1      -8.512   6.077  70.185  1.00  0.00    -0.127 A  
HETATM   20  C   UNL     1      -8.986   6.948  71.171  1.00  0.00    -0.143 A  
HETATM   21  H   UNL     1      -8.041   9.683  72.727  1.00  0.00     0.000 HD 
HETATM   22  C   UNL     1      -8.179   8.029  71.548  1.00  0.00    -0.115 A  
HETATM   23  C   UNL     1      -6.478   7.366  69.967  1.00  0.00    -0.038 A  
HETATM   24  C   UNL     1      -6.935   8.234  70.959  1.00  0.00    -0.054 A  
HETATM   25  O   UNL     1      -8.588   8.950  72.471  1.00  0.00    -0.396 OA 
BRANCH  20  26
HETATM   26  N   UNL     1     -10.222   6.755  71.816  1.00  0.00    -0.191 N  
HETATM   27  H   UNL     1     -10.831   7.570  71.883  1.00  0.00     0.000 HD 
HETATM   28  O   UNL     1     -11.777   5.537  72.932  1.00  0.00    -0.278 OA 
HETATM   29  C   UNL     1     -10.695   5.598  72.360  1.00  0.00    -0.237 C  
ENDBRANCH  20  26
ENDBRANCH  15  18
ENDBRANCH  14  15
ENDBRANCH  12  14
ENDBRANCH  10  12
ENDBRANCH   9  10
ENDBRANCH   6   9
ENDBRANCH   2   3
TORSDOF 8
ENDMDL
MODEL      387
REMARK 921   NORMALIZED FREE ENERGY PREDICTED BY IDOCK:   -2.75 KCAL/MOL
REMARK 922        TOTAL FREE ENERGY PREDICTED BY IDOCK:   -5.53 KCAL/MOL
REMARK 923 INTER-LIGAND FREE ENERGY PREDICTED BY IDOCK:   -4.74 KCAL/MOL
REMARK 924 INTRA-LIGAND FREE ENERGY PREDICTED BY IDOCK:   -0.79 KCAL/MOL
REMARK 927      BINDING AFFINITY PREDICTED BY RF-SCORE:    0.00 PKD
ROOT
HETATM    1  C   UNL     1     -12.740  14.297  64.756  1.00  0.00    -0.170 C  
HETATM    2  O   UNL     1     -12.402  14.047  66.118  1.00  0.00    -0.448 OA 
ENDROOT
BRANCH   2   3
HETATM    3  C   UNL     1     -11.366  13.174  66.298  1.00  0.00    -0.315 A  
HETATM    4  C   UNL     1     -11.272  12.140  65.368  1.00  0.00    -0.381 A  
HETATM    5  C   UNL     1     -10.275  11.169  65.489  1.00  0.00    -0.319 A  
HETATM    6  C   UNL     1      -9.339  11.241  66.528  1.00  0.00    -0.201 A  
HETATM    7  C   UNL     1     -10.416  13.272  67.313  1.00  0.00    -0.247 A  
HETATM    8  C   UNL     1      -9.411  12.310  67.429  1.00  0.00    -0.181 A  
BRANCH   6   9
HETATM    9  C   UNL     1      -8.340  10.135  66.768  1.00  0.00    -0.122 C  
BRANCH   9  10
HETATM   10  C   UNL     1      -8.734   9.073  67.823  1.00  0.00    -0.125 C  
HETATM   11  C   UNL     1      -8.015   9.340  69.150  1.00  0.00    -0.097 C  
BRANCH  10  12
HETATM   12  N   UNL     1     -10.187   9.037  68.095  1.00  0.00    -0.196 NA 
HETATM   13  H   UNL     1     -10.681   8.521  67.367  1.00  0.00     0.000 HD 
BRANCH  12  14
HETATM   14  C   UNL     1     -10.506   8.505  69.426  1.00  0.00    -0.218 C  
BRANCH  14  15
HETATM   15  C   UNL     1     -11.059   7.056  69.401  1.00  0.00    -0.157 C  
HETATM   16  H   UNL     1     -11.401   5.684  68.037  1.00  0.00     0.000 HD 
HETATM   17  O   UNL     1     -11.062   6.571  68.052  1.00  0.00    -0.289 OA 
BRANCH  15  18
HETATM   18  C   UNL     1     -10.220   6.138  70.281  1.00  0.00    -0.254 A  
HETATM   19  C   UNL     1      -9.071   5.491  69.775  1.00  0.00    -0.157 A  
HETATM   20  C   UNL     1      -8.278   4.672  70.585  1.00  0.00    -0.083 A  
HETATM   21  H   UNL     1      -8.192   3.579  73.682  1.00  0.00     0.000 HD 
HETATM   22  C   UNL     1      -8.642   4.508  71.927  1.00  0.00    -0.113 A  
HETATM   23  C   UNL     1     -10.557   5.949  71.627  1.00  0.00    -0.295 A  
HETATM   24  C   UNL     1      -9.765   5.145  72.448  1.00  0.00    -0.188 A  
HETATM   25  O   UNL     1      -7.945   3.690  72.772  1.00  0.00    -0.074 OA 
BRANCH  20  26
HETATM   26  N   UNL     1      -7.115   4.040  70.106  1.00  0.00    -0.041 N  
HETATM   27  H   UNL     1      -6.408   3.804  70.802  1.00  0.00     0.000 HD 
HETATM   28  O   UNL     1      -5.768   3.188  68.491  1.00  0.00    -0.021 OA 
HETATM   29  C   UNL     1      -6.829   3.710  68.815  1.00  0.00    -0.046 C  
ENDBRANCH  20  26
ENDBRANCH  15  18
ENDBRANCH  14  15
ENDBRANCH  12  14
ENDBRANCH  10  12
ENDBRANCH   9  10
ENDBRANCH   6   9
ENDBRANCH   2   3
TORSDOF 8
ENDMDL
MODEL      388
REMARK 921   NORMALIZED FREE ENERGY PREDICTED BY IDOCK:   -2.73 KCAL/MOL
REMARK 922        TOTAL FREE ENERGY PREDICTED BY IDOCK:   -5.50 KCAL/MOL
REMARK 923 INTER-LIGAND FREE ENERGY PREDICTED BY IDOCK:   -4.89 KCAL/MOL
REMARK 924 INTRA-LIGAND FREE ENERGY PREDICTED BY IDOCK:   -0.61 KCAL/MOL
REMARK 927      BINDING AFFINITY PREDICTED BY RF-SCORE:    0.00 PKD
ROOT
HETATM    1  C   UNL     1     -11.536  14.090  64.507  1.00  0.00    -0.370 C  
HETATM    2  O   UNL     1     -11.397  14.230  65.918  1.00  0.00    -0.317 OA 
ENDROOT
BRANCH   2   3
HETATM    3  C   UNL     1     -11.068  13.078  66.577  1.00  0.00    -0.288 A  
HETATM    4  C   UNL     1      -9.844  12.507  66.233  1.00  0.00    -0.260 A  
HETATM    5  C   UNL     1      -9.435  11.306  66.816  1.00  0.00    -0.196 A  
HETATM    6  C   UNL     1     -10.236  10.678  67.778  1.00  0.00    -0.212 A  
HETATM    7  C   UNL     1     -11.852  12.478  67.560  1.00  0.00    -0.389 A  
HETATM    8  C   UNL     1     -11.441  11.283  68.154  1.00  0.00    -0.376 A  
BRANCH   6   9
HETATM    9  C   UNL     1      -9.891   9.313  68.323  1.00  0.00    -0.179 C  
BRANCH   9  10
HETATM   10  C   UNL     1      -8.669   8.609  67.685  1.00  0.00    -0.136 C  
HETATM   11  C   UNL     1      -7.408   8.856  68.521  1.00  0.00    -0.081 C  
BRANCH  10  12
HETATM   12  N   UNL     1      -8.845   7.147  67.552  1.00  0.00    -0.120 NA 
HETATM   13  H   UNL     1      -8.671   6.677  68.440  1.00  0.00     0.000 HD 
BRANCH  12  14
HETATM   14  C   UNL     1     -10.159   6.776  67.010  1.00  0.00    -0.200 C  
BRANCH  14  15
HETATM   15  C   UNL     1     -10.323   5.254  66.761  1.00  0.00    -0.273 C  
HETATM   16  H   UNL     1      -9.890   3.991  65.320  1.00  0.00     0.000 HD 
HETATM   17  O   UNL     1      -9.789   4.923  65.472  1.00  0.00    -0.155 OA 
BRANCH  15  18
HETATM   18  C   UNL     1      -9.614   4.446  67.841  1.00  0.00    -0.205 A  
HETATM   19  C   UNL     1      -9.973   4.570  69.200  1.00  0.00    -0.169 A  
HETATM   20  C   UNL     1      -9.347   3.809  70.194  1.00  0.00    -0.174 A  
HETATM   21  H   UNL     1      -6.985   1.542  70.464  1.00  0.00     0.000 HD 
HETATM   22  C   UNL     1      -8.351   2.904  69.810  1.00  0.00    -0.051 A  
HETATM   23  C   UNL     1      -8.610   3.533  67.493  1.00  0.00    -0.114 A  
HETATM   24  C   UNL     1      -7.988   2.760  68.474  1.00  0.00    -0.061 A  
HETATM   25  O   UNL     1      -7.662   2.157  70.724  1.00  0.00    -0.039 OA 
BRANCH  20  26
HETATM   26  N   UNL     1      -9.710   3.900  71.550  1.00  0.00    -0.169 N  
HETATM   27  H   UNL     1      -9.793   3.019  72.057  1.00  0.00     0.000 HD 
HETATM   28  O   UNL     1     -10.306   5.008  73.439  1.00  0.00    -0.172 OA 
HETATM   29  C   UNL     1      -9.963   5.034  72.262  1.00  0.00    -0.182 C  
ENDBRANCH  20  26
ENDBRANCH  15  18
ENDBRANCH  14  15
ENDBRANCH  12  14
ENDBRANCH  10  12
ENDBRANCH   9  10
ENDBRANCH   6   9
ENDBRANCH   2   3
TORSDOF 8
ENDMDL
MODEL      389
REMARK 921   NORMALIZED FREE ENERGY PREDICTED BY IDOCK:   -2.70 KCAL/MOL
REMARK 922        TOTAL FREE ENERGY PREDICTED BY IDOCK:   -5.45 KCAL/MOL
REMARK 923 INTER-LIGAND FREE ENERGY PREDICTED BY IDOCK:   -4.85 KCAL/MOL
REMARK 924 INTRA-LIGAND FREE ENERGY PREDICTED BY IDOCK:   -0.60 KCAL/MOL
REMARK 927      BINDING AFFINITY PREDICTED BY RF-SCORE:    0.00 PKD
ROOT
HETATM    1  C   UNL     1     -14.382   8.236  71.465  1.00  0.00    -0.428 C  
HETATM    2  O   UNL     1     -13.080   8.805  71.362  1.00  0.00    -0.318 OA 
ENDROOT
BRANCH   2   3
HETATM    3  C   UNL     1     -12.075   8.029  71.869  1.00  0.00    -0.317 A  
HETATM    4  C   UNL     1     -12.398   6.693  72.103  1.00  0.00    -0.242 A  
HETATM    5  C   UNL     1     -11.455   5.826  72.661  1.00  0.00    -0.337 A  
HETATM    6  C   UNL     1     -10.165   6.282  72.962  1.00  0.00    -0.213 A  
HETATM    7  C   UNL     1     -10.784   8.479  72.133  1.00  0.00    -0.426 A  
HETATM    8  C   UNL     1      -9.835   7.612  72.679  1.00  0.00    -0.262 A  
BRANCH   6   9
HETATM    9  C   UNL     1      -9.171   5.411  73.692  1.00  0.00    -0.130 C  
BRANCH   9  10
HETATM   10  C   UNL     1      -8.687   4.146  72.941  1.00  0.00    -0.100 C  
HETATM   11  C   UNL     1      -9.171   2.879  73.655  1.00  0.00    -0.092 C  
BRANCH  10  12
HETATM   12  N   UNL     1      -9.161   4.086  71.542  1.00  0.00    -0.114 NA 
HETATM   13  H   UNL     1      -9.939   4.728  71.392  1.00  0.00     0.000 HD 
BRANCH  12  14
HETATM   14  C   UNL     1      -8.090   4.323  70.565  1.00  0.00    -0.066 C  
BRANCH  14  15
HETATM   15  C   UNL     1      -8.312   3.602  69.210  1.00  0.00    -0.063 C  
HETATM   16  H   UNL     1      -9.679   2.428  68.427  1.00  0.00     0.000 HD 
HETATM   17  O   UNL     1      -9.543   2.869  69.257  1.00  0.00    -0.132 OA 
BRANCH  15  18
HETATM   18  C   UNL     1      -8.347   4.603  68.061  1.00  0.00    -0.098 A  
HETATM   19  C   UNL     1      -8.868   4.247  66.798  1.00  0.00    -0.116 A  
HETATM   20  C   UNL     1      -8.932   5.168  65.748  1.00  0.00    -0.152 A  
HETATM   21  H   UNL     1      -8.147   8.300  65.144  1.00  0.00     0.000 HD 
HETATM   22  C   UNL     1      -8.471   6.470  65.976  1.00  0.00    -0.145 A  
HETATM   23  C   UNL     1      -7.892   5.913  68.253  1.00  0.00    -0.105 A  
HETATM   24  C   UNL     1      -7.963   6.845  67.216  1.00  0.00    -0.114 A  
HETATM   25  O   UNL     1      -8.459   7.417  64.989  1.00  0.00    -0.094 OA 
BRANCH  20  26
HETATM   26  N   UNL     1      -9.472   4.840  64.491  1.00  0.00    -0.345 N  
HETATM   27  H   UNL     1      -9.164   5.407  63.702  1.00  0.00     0.000 HD 
HETATM   28  O   UNL     1     -10.802   3.659  63.082  1.00  0.00    -0.213 OA 
HETATM   29  C   UNL     1     -10.362   3.847  64.211  1.00  0.00    -0.233 C  
ENDBRANCH  20  26
ENDBRANCH  15  18
ENDBRANCH  14  15
ENDBRANCH  12  14
ENDBRANCH  10  12
ENDBRANCH   9  10
ENDBRANCH   6   9
ENDBRANCH   2   3
TORSDOF 8
ENDMDL
MODEL      390
REMARK 921   NORMALIZED FREE ENERGY PREDICTED BY IDOCK:   -2.69 KCAL/MOL
REMARK 922        TOTAL FREE ENERGY PREDICTED BY IDOCK:   -5.44 KCAL/MOL
REMARK 923 INTER-LIGAND FREE ENERGY PREDICTED BY IDOCK:   -4.57 KCAL/MOL
REMARK 924 INTRA-LIGAND FREE ENERGY PREDICTED BY IDOCK:   -0.87 KCAL/MOL
REMARK 927      BINDING AFFINITY PREDICTED BY RF-SCORE:    0.00 PKD
ROOT
HETATM    1  C   UNL     1     -10.012  14.185  65.695  1.00  0.00    -0.306 C  
HETATM    2  O   UNL     1      -9.400  13.517  66.794  1.00  0.00    -0.247 OA 
ENDROOT
BRANCH   2   3
HETATM    3  C   UNL     1      -9.299  12.161  66.656  1.00  0.00    -0.226 A  
HETATM    4  C   UNL     1      -9.832  11.627  65.484  1.00  0.00    -0.264 A  
HETATM    5  C   UNL     1      -9.820  10.248  65.265  1.00  0.00    -0.372 A  
HETATM    6  C   UNL     1      -9.242   9.388  66.208  1.00  0.00    -0.229 A  
HETATM    7  C   UNL     1      -8.691  11.314  67.580  1.00  0.00    -0.131 A  
HETATM    8  C   UNL     1      -8.665   9.936  67.359  1.00  0.00    -0.129 A  
BRANCH   6   9
HETATM    9  C   UNL     1      -9.336   7.887  66.069  1.00  0.00    -0.129 C  
BRANCH   9  10
HETATM   10  C   UNL     1      -9.175   7.066  67.372  1.00  0.00    -0.126 C  
HETATM   11  C   UNL     1     -10.545   6.663  67.927  1.00  0.00    -0.305 C  
BRANCH  10  12
HETATM   12  N   UNL     1      -8.381   5.833  67.185  1.00  0.00    -0.105 NA 
HETATM   13  H   UNL     1      -7.425   5.961  67.517  1.00  0.00     0.000 HD 
BRANCH  12  14
HETATM   14  C   UNL     1      -9.000   4.655  67.808  1.00  0.00    -0.113 C  
BRANCH  14  15
HETATM   15  C   UNL     1      -8.058   3.898  68.780  1.00  0.00    -0.070 C  
HETATM   16  H   UNL     1      -6.307   4.221  69.610  1.00  0.00     0.000 HD 
HETATM   17  O   UNL     1      -6.884   4.685  69.015  1.00  0.00    -0.048 OA 
BRANCH  15  18
HETATM   18  C   UNL     1      -8.761   3.607  70.101  1.00  0.00    -0.122 A  
HETATM   19  C   UNL     1      -8.949   4.619  71.066  1.00  0.00    -0.166 A  
HETATM   20  C   UNL     1      -9.620   4.367  72.268  1.00  0.00    -0.147 A  
HETATM   21  H   UNL     1     -11.080   1.866  73.818  1.00  0.00     0.000 HD 
HETATM   22  C   UNL     1     -10.116   3.079  72.496  1.00  0.00    -0.162 A  
HETATM   23  C   UNL     1      -9.267   2.328  70.364  1.00  0.00    -0.189 A  
HETATM   24  C   UNL     1      -9.949   2.069  71.553  1.00  0.00    -0.159 A  
HETATM   25  O   UNL     1     -10.743   2.741  73.663  1.00  0.00    -0.149 OA 
BRANCH  20  26
HETATM   26  N   UNL     1      -9.840   5.370  73.231  1.00  0.00    -0.160 N  
HETATM   27  H   UNL     1      -9.669   5.112  74.202  1.00  0.00     0.000 HD 
HETATM   28  O   UNL     1     -10.452   7.443  73.921  1.00  0.00    -0.314 OA 
HETATM   29  C   UNL     1     -10.256   6.649  73.008  1.00  0.00    -0.205 C  
ENDBRANCH  20  26
ENDBRANCH  15  18
ENDBRANCH  14  15
ENDBRANCH  12  14
ENDBRANCH  10  12
ENDBRANCH   9  10
ENDBRANCH   6   9
ENDBRANCH   2   3
TORSDOF 8
ENDMDL
MODEL      391
REMARK 921   NORMALIZED FREE ENERGY PREDICTED BY IDOCK:   -2.67 KCAL/MOL
REMARK 922        TOTAL FREE ENERGY PREDICTED BY IDOCK:   -5.42 KCAL/MOL
REMARK 923 INTER-LIGAND FREE ENERGY PREDICTED BY IDOCK:   -4.25 KCAL/MOL
REMARK 924 INTRA-LIGAND FREE ENERGY PREDICTED BY IDOCK:   -1.17 KCAL/MOL
REMARK 927      BINDING AFFINITY PREDICTED BY RF-SCORE:    0.00 PKD
ROOT
HETATM    1  C   UNL     1      -6.265   8.198  62.514  1.00  0.00    -0.086 C  
HETATM    2  O   UNL     1      -6.052   9.326  63.358  1.00  0.00    -0.088 OA 
ENDROOT
BRANCH   2   3
HETATM    3  C   UNL     1      -6.396   9.135  64.667  1.00  0.00    -0.071 A  
HETATM    4  C   UNL     1      -5.782   9.983  65.587  1.00  0.00    -0.067 A  
HETATM    5  C   UNL     1      -6.031   9.841  66.955  1.00  0.00    -0.055 A  
HETATM    6  C   UNL     1      -6.925   8.865  67.413  1.00  0.00    -0.075 A  
HETATM    7  C   UNL     1      -7.313   8.186  65.114  1.00  0.00    -0.078 A  
HETATM    8  C   UNL     1      -7.574   8.050  66.478  1.00  0.00    -0.092 A  
BRANCH   6   9
HETATM    9  C   UNL     1      -7.108   8.594  68.887  1.00  0.00    -0.066 C  
BRANCH   9  10
HETATM   10  C   UNL     1      -7.502   9.808  69.764  1.00  0.00    -0.127 C  
HETATM   11  C   UNL     1      -9.026   9.959  69.822  1.00  0.00    -0.242 C  
BRANCH  10  12
HETATM   12  N   UNL     1      -7.003   9.707  71.152  1.00  0.00    -0.326 NA 
HETATM   13  H   UNL     1      -7.670  10.112  71.809  1.00  0.00     0.000 HD 
BRANCH  12  14
HETATM   14  C   UNL     1      -6.658   8.332  71.537  1.00  0.00    -0.058 C  
BRANCH  14  15
HETATM   15  C   UNL     1      -7.323   7.868  72.858  1.00  0.00    -0.106 C  
HETATM   16  H   UNL     1      -7.744   8.673  74.601  1.00  0.00     0.000 HD 
HETATM   17  O   UNL     1      -7.337   8.957  73.791  1.00  0.00    -0.391 OA 
BRANCH  15  18
HETATM   18  C   UNL     1      -8.745   7.380  72.609  1.00  0.00    -0.155 A  
HETATM   19  C   UNL     1      -9.127   6.851  71.358  1.00  0.00    -0.148 A  
HETATM   20  C   UNL     1     -10.422   6.373  71.130  1.00  0.00    -0.221 A  
HETATM   21  H   UNL     1     -13.264   6.045  72.743  1.00  0.00     0.000 HD 
HETATM   22  C   UNL     1     -11.343   6.420  72.183  1.00  0.00    -0.290 A  
HETATM   23  C   UNL     1      -9.694   7.415  73.639  1.00  0.00    -0.349 A  
HETATM   24  C   UNL     1     -10.984   6.929  73.428  1.00  0.00    -0.221 A  
HETATM   25  O   UNL     1     -12.639   6.013  72.029  1.00  0.00    -0.100 OA 
BRANCH  20  26
HETATM   26  N   UNL     1     -10.813   5.817  69.898  1.00  0.00    -0.347 N  
HETATM   27  H   UNL     1     -11.270   4.907  69.935  1.00  0.00     0.000 HD 
HETATM   28  O   UNL     1     -10.995   5.782  67.636  1.00  0.00    -0.240 OA 
HETATM   29  C   UNL     1     -10.648   6.362  68.659  1.00  0.00    -0.253 C  
ENDBRANCH  20  26
ENDBRANCH  15  18
ENDBRANCH  14  15
ENDBRANCH  12  14
ENDBRANCH  10  12
ENDBRANCH   9  10
ENDBRANCH   6   9
ENDBRANCH   2   3
TORSDOF 8
ENDMDL
MODEL      392
REMARK 921   NORMALIZED FREE ENERGY PREDICTED BY IDOCK:   -2.66 KCAL/MOL
REMARK 922        TOTAL FREE ENERGY PREDICTED BY IDOCK:   -5.40 KCAL/MOL
REMARK 923 INTER-LIGAND FREE ENERGY PREDICTED BY IDOCK:   -5.21 KCAL/MOL
REMARK 924 INTRA-LIGAND FREE ENERGY PREDICTED BY IDOCK:   -0.19 KCAL/MOL
REMARK 927      BINDING AFFINITY PREDICTED BY RF-SCORE:    0.00 PKD
ROOT
HETATM    1  C   UNL     1      -6.147   6.858  66.330  1.00  0.00    -0.034 C  
HETATM    2  O   UNL     1      -5.923   6.211  67.580  1.00  0.00    -0.016 OA 
ENDROOT
BRANCH   2   3
HETATM    3  C   UNL     1      -7.006   6.187  68.413  1.00  0.00    -0.080 A  
HETATM    4  C   UNL     1      -6.827   5.521  69.625  1.00  0.00    -0.060 A  
HETATM    5  C   UNL     1      -7.886   5.401  70.529  1.00  0.00    -0.093 A  
HETATM    6  C   UNL     1      -9.130   5.977  70.241  1.00  0.00    -0.159 A  
HETATM    7  C   UNL     1      -8.230   6.793  68.138  1.00  0.00    -0.114 A  
HETATM    8  C   UNL     1      -9.286   6.686  69.045  1.00  0.00    -0.133 A  
BRANCH   6   9
HETATM    9  C   UNL     1     -10.330   5.746  71.129  1.00  0.00    -0.286 C  
BRANCH   9  10
HETATM   10  C   UNL     1     -11.683   6.288  70.606  1.00  0.00    -0.215 C  
HETATM   11  C   UNL     1     -12.743   6.244  71.712  1.00  0.00     0.103 C  
BRANCH  10  12
HETATM   12  N   UNL     1     -11.599   7.681  70.116  1.00  0.00    -0.483 NA 
HETATM   13  H   UNL     1     -11.919   7.746  69.149  1.00  0.00     0.000 HD 
BRANCH  12  14
HETATM   14  C   UNL     1     -12.317   8.633  70.972  1.00  0.00    -0.143 C  
BRANCH  14  15
HETATM   15  C   UNL     1     -11.474   9.874  71.367  1.00  0.00    -0.321 C  
HETATM   16  H   UNL     1      -9.584  10.250  71.750  1.00  0.00     0.000 HD 
HETATM   17  O   UNL     1     -10.100   9.490  71.508  1.00  0.00    -0.219 OA 
BRANCH  15  18
HETATM   18  C   UNL     1     -11.601  10.974  70.320  1.00  0.00    -0.414 A  
HETATM   19  C   UNL     1     -11.157  10.776  68.996  1.00  0.00    -0.308 A  
HETATM   20  C   UNL     1     -11.298  11.769  68.021  1.00  0.00    -0.288 A  
HETATM   21  H   UNL     1     -12.452  14.833  67.750  1.00  0.00     0.000 HD 
HETATM   22  C   UNL     1     -11.905  12.977  68.385  1.00  0.00    -0.334 A  
HETATM   23  C   UNL     1     -12.201  12.196  70.651  1.00  0.00    -0.392 A  
HETATM   24  C   UNL     1     -12.359  13.189  69.683  1.00  0.00    -0.129 A  
HETATM   25  O   UNL     1     -12.040  14.013  67.503  1.00  0.00    -0.391 OA 
BRANCH  20  26
HETATM   26  N   UNL     1     -10.885  11.580  66.689  1.00  0.00    -0.276 N  
HETATM   27  H   UNL     1     -11.611  11.323  66.021  1.00  0.00     0.000 HD 
HETATM   28  O   UNL     1      -9.355  11.485  65.016  1.00  0.00    -0.191 OA 
HETATM   29  C   UNL     1      -9.622  11.703  66.193  1.00  0.00    -0.232 C  
ENDBRANCH  20  26
ENDBRANCH  15  18
ENDBRANCH  14  15
ENDBRANCH  12  14
ENDBRANCH  10  12
ENDBRANCH   9  10
ENDBRANCH   6   9
ENDBRANCH   2   3
TORSDOF 8
ENDMDL
MODEL      393
REMARK 921   NORMALIZED FREE ENERGY PREDICTED BY IDOCK:   -2.62 KCAL/MOL
REMARK 922        TOTAL FREE ENERGY PREDICTED BY IDOCK:   -5.34 KCAL/MOL
REMARK 923 INTER-LIGAND FREE ENERGY PREDICTED BY IDOCK:   -5.72 KCAL/MOL
REMARK 924 INTRA-LIGAND FREE ENERGY PREDICTED BY IDOCK:    0.38 KCAL/MOL
REMARK 927      BINDING AFFINITY PREDICTED BY RF-SCORE:    0.00 PKD
ROOT
HETATM    1  C   UNL     1     -11.986  15.865  64.386  1.00  0.00    -0.018 C  
HETATM    2  O   UNL     1     -12.711  14.720  63.947  1.00  0.00    -0.794 OA 
ENDROOT
BRANCH   2   3
HETATM    3  C   UNL     1     -11.980  13.565  63.898  1.00  0.00    -0.440 A  
HETATM    4  C   UNL     1     -10.664  13.658  64.351  1.00  0.00    -0.369 A  
HETATM    5  C   UNL     1      -9.820  12.546  64.301  1.00  0.00    -0.114 A  
HETATM    6  C   UNL     1     -10.296  11.317  63.826  1.00  0.00    -0.453 A  
HETATM    7  C   UNL     1     -12.469  12.337  63.459  1.00  0.00    -0.642 A  
HETATM    8  C   UNL     1     -11.632  11.221  63.420  1.00  0.00     0.153 A  
BRANCH   6   9
HETATM    9  C   UNL     1      -9.374  10.138  63.629  1.00  0.00    -0.336 C  
BRANCH   9  10
HETATM   10  C   UNL     1      -8.855   9.452  64.916  1.00  0.00    -0.202 C  
HETATM   11  C   UNL     1      -7.691  10.247  65.518  1.00  0.00    -0.149 C  
BRANCH  10  12
HETATM   12  N   UNL     1      -9.895   9.312  65.959  1.00  0.00    -0.294 NA 
HETATM   13  H   UNL     1     -10.062   8.330  66.176  1.00  0.00     0.000 HD 
BRANCH  12  14
HETATM   14  C   UNL     1      -9.591  10.075  67.176  1.00  0.00    -0.165 C  
BRANCH  14  15
HETATM   15  C   UNL     1      -8.496   9.426  68.062  1.00  0.00    -0.120 C  
HETATM   16  H   UNL     1      -7.406   9.965  69.605  1.00  0.00     0.000 HD 
HETATM   17  O   UNL     1      -8.077  10.363  69.063  1.00  0.00    -0.118 OA 
BRANCH  15  18
HETATM   18  C   UNL     1      -9.015   8.155  68.724  1.00  0.00    -0.144 A  
HETATM   19  C   UNL     1      -9.247   8.100  70.115  1.00  0.00    -0.155 A  
HETATM   20  C   UNL     1      -9.753   6.947  70.726  1.00  0.00    -0.171 A  
HETATM   21  H   UNL     1     -10.684   3.907  69.902  1.00  0.00     0.000 HD 
HETATM   22  C   UNL     1     -10.036   5.837  69.922  1.00  0.00    -0.209 A  
HETATM   23  C   UNL     1      -9.307   7.025  67.950  1.00  0.00    -0.123 A  
HETATM   24  C   UNL     1      -9.824   5.875  68.547  1.00  0.00    -0.166 A  
HETATM   25  O   UNL     1     -10.491   4.660  70.448  1.00  0.00    -0.136 OA 
BRANCH  20  26
HETATM   26  N   UNL     1     -10.016   6.882  72.108  1.00  0.00    -0.163 N  
HETATM   27  H   UNL     1     -10.912   6.480  72.380  1.00  0.00     0.000 HD 
HETATM   28  O   UNL     1      -9.539   7.228  74.299  1.00  0.00    -0.232 OA 
HETATM   29  C   UNL     1      -9.205   7.297  73.121  1.00  0.00    -0.159 C  
ENDBRANCH  20  26
ENDBRANCH  15  18
ENDBRANCH  14  15
ENDBRANCH  12  14
ENDBRANCH  10  12
ENDBRANCH   9  10
ENDBRANCH   6   9
ENDBRANCH   2   3
TORSDOF 8
ENDMDL
MODEL      394
REMARK 921   NORMALIZED FREE ENERGY PREDICTED BY IDOCK:   -2.60 KCAL/MOL
REMARK 922        TOTAL FREE ENERGY PREDICTED BY IDOCK:   -5.31 KCAL/MOL
REMARK 923 INTER-LIGAND FREE ENERGY PREDICTED BY IDOCK:   -5.31 KCAL/MOL
REMARK 924 INTRA-LIGAND FREE ENERGY PREDICTED BY IDOCK:    0.00 KCAL/MOL
REMARK 927      BINDING AFFINITY PREDICTED BY RF-SCORE:    0.00 PKD
ROOT
HETATM    1  C   UNL     1     -11.346   2.460  73.600  1.00  0.00    -0.209 C  
HETATM    2  O   UNL     1     -10.615   3.683  73.606  1.00  0.00    -0.159 OA 
ENDROOT
BRANCH   2   3
HETATM    3  C   UNL     1     -10.170   4.089  72.378  1.00  0.00    -0.162 A  
HETATM    4  C   UNL     1     -10.624   5.336  71.949  1.00  0.00    -0.274 A  
HETATM    5  C   UNL     1     -10.263   5.824  70.690  1.00  0.00    -0.280 A  
HETATM    6  C   UNL     1      -9.417   5.080  69.859  1.00  0.00    -0.225 A  
HETATM    7  C   UNL     1      -9.299   3.361  71.571  1.00  0.00    -0.210 A  
HETATM    8  C   UNL     1      -8.927   3.852  70.318  1.00  0.00    -0.163 A  
BRANCH   6   9
HETATM    9  C   UNL     1      -9.122   5.513  68.443  1.00  0.00    -0.117 C  
BRANCH   9  10
HETATM   10  C   UNL     1      -8.654   6.977  68.257  1.00  0.00    -0.129 C  
HETATM   11  C   UNL     1      -7.132   7.038  68.086  1.00  0.00    -0.085 C  
BRANCH  10  12
HETATM   12  N   UNL     1      -9.268   7.638  67.085  1.00  0.00    -0.128 NA 
HETATM   13  H   UNL     1     -10.027   7.073  66.704  1.00  0.00     0.000 HD 
BRANCH  12  14
HETATM   14  C   UNL     1      -9.724   9.004  67.373  1.00  0.00    -0.168 C  
BRANCH  14  15
HETATM   15  C   UNL     1      -8.807  10.105  66.778  1.00  0.00    -0.132 C  
HETATM   16  H   UNL     1      -7.688  10.315  65.177  1.00  0.00     0.000 HD 
HETATM   17  O   UNL     1      -8.249   9.641  65.541  1.00  0.00    -0.119 OA 
BRANCH  15  18
HETATM   18  C   UNL     1      -9.585  11.394  66.546  1.00  0.00    -0.220 A  
HETATM   19  C   UNL     1      -9.943  12.235  67.622  1.00  0.00    -0.199 A  
HETATM   20  C   UNL     1     -10.630  13.435  67.414  1.00  0.00    -0.251 A  
HETATM   21  H   UNL     1     -11.883  15.179  64.928  1.00  0.00     0.000 HD 
HETATM   22  C   UNL     1     -10.955  13.798  66.102  1.00  0.00    -0.292 A  
HETATM   23  C   UNL     1      -9.929  11.787  65.246  1.00  0.00    -0.284 A  
HETATM   24  C   UNL     1     -10.603  12.989  65.026  1.00  0.00    -0.336 A  
HETATM   25  O   UNL     1     -11.663  14.933  65.819  1.00  0.00    -0.296 OA 
BRANCH  20  26
HETATM   26  N   UNL     1     -10.972  14.299  68.472  1.00  0.00    -0.243 N  
HETATM   27  H   UNL     1     -11.122  13.865  69.382  1.00  0.00     0.000 HD 
HETATM   28  O   UNL     1     -11.457  16.317  69.389  1.00  0.00    -0.308 OA 
HETATM   29  C   UNL     1     -11.124  15.652  68.414  1.00  0.00    -0.326 C  
ENDBRANCH  20  26
ENDBRANCH  15  18
ENDBRANCH  14  15
ENDBRANCH  12  14
ENDBRANCH  10  12
ENDBRANCH   9  10
ENDBRANCH   6   9
ENDBRANCH   2   3
TORSDOF 8
ENDMDL
MODEL      395
REMARK 921   NORMALIZED FREE ENERGY PREDICTED BY IDOCK:   -2.51 KCAL/MOL
REMARK 922        TOTAL FREE ENERGY PREDICTED BY IDOCK:   -5.18 KCAL/MOL
REMARK 923 INTER-LIGAND FREE ENERGY PREDICTED BY IDOCK:   -5.34 KCAL/MOL
REMARK 924 INTRA-LIGAND FREE ENERGY PREDICTED BY IDOCK:    0.16 KCAL/MOL
REMARK 927      BINDING AFFINITY PREDICTED BY RF-SCORE:    0.00 PKD
ROOT
HETATM    1  C   UNL     1     -12.267  14.075  64.889  1.00  0.00    -0.437 C  
HETATM    2  O   UNL     1     -11.707  13.337  63.807  1.00  0.00    -0.430 OA 
ENDROOT
BRANCH   2   3
HETATM    3  C   UNL     1     -10.932  12.273  64.179  1.00  0.00    -0.363 A  
HETATM    4  C   UNL     1     -10.007  11.834  63.234  1.00  0.00    -0.435 A  
HETATM    5  C   UNL     1      -9.198  10.726  63.499  1.00  0.00    -0.275 A  
HETATM    6  C   UNL     1      -9.285  10.065  64.731  1.00  0.00    -0.301 A  
HETATM    7  C   UNL     1     -10.998  11.642  65.419  1.00  0.00    -0.328 A  
HETATM    8  C   UNL     1     -10.182  10.543  65.693  1.00  0.00    -0.315 A  
BRANCH   6   9
HETATM    9  C   UNL     1      -8.528   8.785  64.994  1.00  0.00    -0.193 C  
BRANCH   9  10
HETATM   10  C   UNL     1      -7.347   8.881  65.991  1.00  0.00    -0.090 C  
HETATM   11  C   UNL     1      -6.934  10.342  66.197  1.00  0.00    -0.126 C  
BRANCH  10  12
HETATM   12  N   UNL     1      -7.661   8.308  67.318  1.00  0.00    -0.100 NA 
HETATM   13  H   UNL     1      -7.203   7.406  67.443  1.00  0.00     0.000 HD 
BRANCH  12  14
HETATM   14  C   UNL     1      -7.339   9.219  68.424  1.00  0.00    -0.077 C  
BRANCH  14  15
HETATM   15  C   UNL     1      -8.308   9.101  69.630  1.00  0.00    -0.130 C  
HETATM   16  H   UNL     1     -10.075   9.811  70.114  1.00  0.00     0.000 HD 
HETATM   17  O   UNL     1      -9.482   9.883  69.375  1.00  0.00    -0.187 OA 
BRANCH  15  18
HETATM   18  C   UNL     1      -8.695   7.648  69.877  1.00  0.00    -0.139 A  
HETATM   19  C   UNL     1      -9.137   6.821  68.822  1.00  0.00    -0.132 A  
HETATM   20  C   UNL     1      -9.465   5.478  69.035  1.00  0.00    -0.129 A  
HETATM   21  H   UNL     1      -9.590   3.315  71.505  1.00  0.00     0.000 HD 
HETATM   22  C   UNL     1      -9.336   4.958  70.328  1.00  0.00    -0.154 A  
HETATM   23  C   UNL     1      -8.580   7.096  71.159  1.00  0.00    -0.129 A  
HETATM   24  C   UNL     1      -8.892   5.753  71.380  1.00  0.00    -0.143 A  
HETATM   25  O   UNL     1      -9.678   3.668  70.627  1.00  0.00    -0.180 OA 
BRANCH  20  26
HETATM   26  N   UNL     1      -9.883   4.631  67.991  1.00  0.00    -0.141 N  
HETATM   27  H   UNL     1     -10.125   3.675  68.252  1.00  0.00     0.000 HD 
HETATM   28  O   UNL     1     -10.343   4.126  65.828  1.00  0.00    -0.183 OA 
HETATM   29  C   UNL     1     -10.000   4.947  66.671  1.00  0.00    -0.229 C  
ENDBRANCH  20  26
ENDBRANCH  15  18
ENDBRANCH  14  15
ENDBRANCH  12  14
ENDBRANCH  10  12
ENDBRANCH   9  10
ENDBRANCH   6   9
ENDBRANCH   2   3
TORSDOF 8
ENDMDL
MODEL      396
REMARK 921   NORMALIZED FREE ENERGY PREDICTED BY IDOCK:   -2.50 KCAL/MOL
REMARK 922        TOTAL FREE ENERGY PREDICTED BY IDOCK:   -5.16 KCAL/MOL
REMARK 923 INTER-LIGAND FREE ENERGY PREDICTED BY IDOCK:   -4.67 KCAL/MOL
REMARK 924 INTRA-LIGAND FREE ENERGY PREDICTED BY IDOCK:   -0.48 KCAL/MOL
REMARK 927      BINDING AFFINITY PREDICTED BY RF-SCORE:    0.00 PKD
ROOT
HETATM    1  C   UNL     1     -11.193  14.588  68.375  1.00  0.00    -0.271 C  
HETATM    2  O   UNL     1     -12.102  13.748  67.670  1.00  0.00    -0.363 OA 
ENDROOT
BRANCH   2   3
HETATM    3  C   UNL     1     -11.511  12.807  66.874  1.00  0.00    -0.340 A  
HETATM    4  C   UNL     1     -11.279  11.567  67.467  1.00  0.00    -0.360 A  
HETATM    5  C   UNL     1     -10.640  10.550  66.753  1.00  0.00    -0.284 A  
HETATM    6  C   UNL     1     -10.254  10.755  65.423  1.00  0.00    -0.341 A  
HETATM    7  C   UNL     1     -11.162  13.004  65.540  1.00  0.00    -0.315 A  
HETATM    8  C   UNL     1     -10.535  11.986  64.819  1.00  0.00    -0.335 A  
BRANCH   6   9
HETATM    9  C   UNL     1      -9.439   9.730  64.671  1.00  0.00    -0.295 C  
BRANCH   9  10
HETATM   10  C   UNL     1      -7.957  10.091  64.409  1.00  0.00    -0.152 C  
HETATM   11  C   UNL     1      -7.131   9.938  65.691  1.00  0.00    -0.112 C  
BRANCH  10  12
HETATM   12  N   UNL     1      -7.331   9.250  63.365  1.00  0.00    -0.095 NA 
HETATM   13  H   UNL     1      -6.396   8.956  63.646  1.00  0.00     0.000 HD 
BRANCH  12  14
HETATM   14  C   UNL     1      -8.156   8.094  62.991  1.00  0.00    -0.135 C  
BRANCH  14  15
HETATM   15  C   UNL     1      -7.365   6.762  62.919  1.00  0.00    -0.073 C  
HETATM   16  H   UNL     1      -5.480   6.216  63.017  1.00  0.00     0.000 HD 
HETATM   17  O   UNL     1      -5.964   7.032  63.061  1.00  0.00    -0.039 OA 
BRANCH  15  18
HETATM   18  C   UNL     1      -7.822   5.799  64.009  1.00  0.00    -0.118 A  
HETATM   19  C   UNL     1      -8.671   6.227  65.052  1.00  0.00     0.090 A  
HETATM   20  C   UNL     1      -9.119   5.342  66.039  1.00  0.00    -0.152 A  
HETATM   21  H   UNL     1      -8.795   2.180  66.868  1.00  0.00     0.000 HD 
HETATM   22  C   UNL     1      -8.713   4.004  65.968  1.00  0.00    -0.116 A  
HETATM   23  C   UNL     1      -7.432   4.455  63.970  1.00  0.00    -0.063 A  
HETATM   24  C   UNL     1      -7.884   3.560  64.941  1.00  0.00    -0.085 A  
HETATM   25  O   UNL     1      -9.071   3.088  66.916  1.00  0.00    -0.152 OA 
BRANCH  20  26
HETATM   26  N   UNL     1      -9.987   5.743  67.071  1.00  0.00    -0.149 N  
HETATM   27  H   UNL     1     -10.576   6.554  66.879  1.00  0.00     0.000 HD 
HETATM   28  O   UNL     1     -10.892   5.615  69.148  1.00  0.00    -0.284 OA 
HETATM   29  C   UNL     1     -10.127   5.170  68.299  1.00  0.00    -0.134 C  
ENDBRANCH  20  26
ENDBRANCH  15  18
ENDBRANCH  14  15
ENDBRANCH  12  14
ENDBRANCH  10  12
ENDBRANCH   9  10
ENDBRANCH   6   9
ENDBRANCH   2   3
TORSDOF 8
ENDMDL
MODEL      397
REMARK 921   NORMALIZED FREE ENERGY PREDICTED BY IDOCK:   -2.49 KCAL/MOL
REMARK 922        TOTAL FREE ENERGY PREDICTED BY IDOCK:   -5.15 KCAL/MOL
REMARK 923 INTER-LIGAND FREE ENERGY PREDICTED BY IDOCK:   -4.42 KCAL/MOL
REMARK 924 INTRA-LIGAND FREE ENERGY PREDICTED BY IDOCK:   -0.73 KCAL/MOL
REMARK 927      BINDING AFFINITY PREDICTED BY RF-SCORE:    0.00 PKD
ROOT
HETATM    1  C   UNL     1     -11.648   2.337  73.666  1.00  0.00    -0.146 C  
HETATM    2  O   UNL     1     -10.477   3.114  73.905  1.00  0.00    -0.139 OA 
ENDROOT
BRANCH   2   3
HETATM    3  C   UNL     1     -10.267   4.122  73.007  1.00  0.00    -0.161 A  
HETATM    4  C   UNL     1     -11.284   5.070  72.906  1.00  0.00    -0.344 A  
HETATM    5  C   UNL     1     -11.187   6.117  71.986  1.00  0.00    -0.335 A  
HETATM    6  C   UNL     1     -10.050   6.244  71.177  1.00  0.00    -0.218 A  
HETATM    7  C   UNL     1      -9.119   4.264  72.231  1.00  0.00    -0.146 A  
HETATM    8  C   UNL     1      -9.012   5.316  71.319  1.00  0.00    -0.158 A  
BRANCH   6   9
HETATM    9  C   UNL     1      -9.976   7.277  70.079  1.00  0.00    -0.184 C  
BRANCH   9  10
HETATM   10  C   UNL     1      -9.745   8.740  70.530  1.00  0.00    -0.190 C  
HETATM   11  C   UNL     1      -8.270   8.970  70.877  1.00  0.00    -0.222 C  
BRANCH  10  12
HETATM   12  N   UNL     1     -10.127   9.732  69.501  1.00  0.00    -0.202 NA 
HETATM   13  H   UNL     1     -10.896  10.317  69.827  1.00  0.00     0.000 HD 
BRANCH  12  14
HETATM   14  C   UNL     1      -8.997  10.553  69.050  1.00  0.00    -0.176 C  
BRANCH  14  15
HETATM   15  C   UNL     1      -9.118  11.026  67.578  1.00  0.00    -0.137 C  
HETATM   16  H   UNL     1      -8.323  12.435  66.463  1.00  0.00     0.000 HD 
HETATM   17  O   UNL     1      -8.248  12.145  67.365  1.00  0.00    -0.157 OA 
BRANCH  15  18
HETATM   18  C   UNL     1      -8.762   9.900  66.614  1.00  0.00    -0.138 A  
HETATM   19  C   UNL     1      -9.447   8.667  66.646  1.00  0.00    -0.267 A  
HETATM   20  C   UNL     1      -9.147   7.640  65.744  1.00  0.00     0.009 A  
HETATM   21  H   UNL     1      -7.085   7.047  63.257  1.00  0.00     0.000 HD 
HETATM   22  C   UNL     1      -8.147   7.863  64.791  1.00  0.00    -0.141 A  
HETATM   23  C   UNL     1      -7.764  10.088  65.649  1.00  0.00    -0.136 A  
HETATM   24  C   UNL     1      -7.465   9.075  64.736  1.00  0.00    -0.102 A  
HETATM   25  O   UNL     1      -7.764   6.896  63.904  1.00  0.00    -0.106 OA 
BRANCH  20  26
HETATM   26  N   UNL     1      -9.838   6.414  65.744  1.00  0.00    -0.245 N  
HETATM   27  H   UNL     1     -10.731   6.397  65.253  1.00  0.00     0.000 HD 
HETATM   28  O   UNL     1     -10.136   4.234  66.299  1.00  0.00    -0.227 OA 
HETATM   29  C   UNL     1      -9.445   5.247  66.326  1.00  0.00    -0.156 C  
ENDBRANCH  20  26
ENDBRANCH  15  18
ENDBRANCH  14  15
ENDBRANCH  12  14
ENDBRANCH  10  12
ENDBRANCH   9  10
ENDBRANCH   6   9
ENDBRANCH   2   3
TORSDOF 8
ENDMDL
MODEL      398
REMARK 921   NORMALIZED FREE ENERGY PREDICTED BY IDOCK:   -2.49 KCAL/MOL
REMARK 922        TOTAL FREE ENERGY PREDICTED BY IDOCK:   -5.14 KCAL/MOL
REMARK 923 INTER-LIGAND FREE ENERGY PREDICTED BY IDOCK:   -4.48 KCAL/MOL
REMARK 924 INTRA-LIGAND FREE ENERGY PREDICTED BY IDOCK:   -0.66 KCAL/MOL
REMARK 927      BINDING AFFINITY PREDICTED BY RF-SCORE:    0.00 PKD
ROOT
HETATM    1  C   UNL     1     -10.734   1.967  63.884  1.00  0.00     0.118 C  
HETATM    2  O   UNL     1      -9.378   1.991  63.447  1.00  0.00    -0.092 OA 
ENDROOT
BRANCH   2   3
HETATM    3  C   UNL     1      -8.781   3.220  63.503  1.00  0.00    -0.089 A  
HETATM    4  C   UNL     1      -8.009   3.470  64.637  1.00  0.00    -0.086 A  
HETATM    5  C   UNL     1      -7.392   4.711  64.812  1.00  0.00    -0.071 A  
HETATM    6  C   UNL     1      -7.517   5.707  63.834  1.00  0.00    -0.067 A  
HETATM    7  C   UNL     1      -8.879   4.193  62.511  1.00  0.00    -0.103 A  
HETATM    8  C   UNL     1      -8.253   5.430  62.677  1.00  0.00    -0.109 A  
BRANCH   6   9
HETATM    9  C   UNL     1      -6.981   7.101  64.057  1.00  0.00    -0.057 C  
BRANCH   9  10
HETATM   10  C   UNL     1      -7.081   7.651  65.501  1.00  0.00    -0.063 C  
HETATM   11  C   UNL     1      -6.546   9.086  65.568  1.00  0.00    -0.068 C  
BRANCH  10  12
HETATM   12  N   UNL     1      -8.464   7.659  66.024  1.00  0.00    -0.137 NA 
HETATM   13  H   UNL     1      -8.480   7.425  67.017  1.00  0.00     0.000 HD 
BRANCH  12  14
HETATM   14  C   UNL     1      -9.164   8.925  65.772  1.00  0.00    -0.221 C  
BRANCH  14  15
HETATM   15  C   UNL     1     -10.162   9.319  66.892  1.00  0.00    -0.256 C  
HETATM   16  H   UNL     1     -10.209   9.233  68.854  1.00  0.00     0.000 HD 
HETATM   17  O   UNL     1      -9.598   8.992  68.168  1.00  0.00    -0.145 OA 
BRANCH  15  18
HETATM   18  C   UNL     1     -10.486  10.807  66.833  1.00  0.00    -0.304 A  
HETATM   19  C   UNL     1     -11.319  11.412  67.799  1.00  0.00    -0.354 A  
HETATM   20  C   UNL     1     -11.596  12.783  67.770  1.00  0.00    -0.353 A  
HETATM   21  H   UNL     1     -10.885  15.420  65.945  1.00  0.00     0.000 HD 
HETATM   22  C   UNL     1     -11.019  13.557  66.756  1.00  0.00    -0.292 A  
HETATM   23  C   UNL     1      -9.929  11.611  65.831  1.00  0.00    -0.264 A  
HETATM   24  C   UNL     1     -10.188  12.982  65.800  1.00  0.00    -0.297 A  
HETATM   25  O   UNL     1     -11.276  14.894  66.633  1.00  0.00    -0.341 OA 
BRANCH  20  26
HETATM   26  N   UNL     1     -12.402  13.408  68.740  1.00  0.00    -0.150 N  
HETATM   27  H   UNL     1     -13.367  13.600  68.472  1.00  0.00     0.000 HD 
HETATM   28  O   UNL     1     -12.805  14.356  70.761  1.00  0.00    -0.341 OA 
HETATM   29  C   UNL     1     -12.035  13.785  69.997  1.00  0.00    -0.338 C  
ENDBRANCH  20  26
ENDBRANCH  15  18
ENDBRANCH  14  15
ENDBRANCH  12  14
ENDBRANCH  10  12
ENDBRANCH   9  10
ENDBRANCH   6   9
ENDBRANCH   2   3
TORSDOF 8
ENDMDL
MODEL      399
REMARK 921   NORMALIZED FREE ENERGY PREDICTED BY IDOCK:   -2.46 KCAL/MOL
REMARK 922        TOTAL FREE ENERGY PREDICTED BY IDOCK:   -5.10 KCAL/MOL
REMARK 923 INTER-LIGAND FREE ENERGY PREDICTED BY IDOCK:   -3.74 KCAL/MOL
REMARK 924 INTRA-LIGAND FREE ENERGY PREDICTED BY IDOCK:   -1.36 KCAL/MOL
REMARK 927      BINDING AFFINITY PREDICTED BY RF-SCORE:    0.00 PKD
ROOT
HETATM    1  C   UNL     1      -6.631   8.631  63.233  1.00  0.00    -0.089 C  
HETATM    2  O   UNL     1      -6.286   9.662  64.154  1.00  0.00    -0.092 OA 
ENDROOT
BRANCH   2   3
HETATM    3  C   UNL     1      -6.262   9.274  65.465  1.00  0.00    -0.064 A  
HETATM    4  C   UNL     1      -5.342   9.933  66.278  1.00  0.00    -0.044 A  
HETATM    5  C   UNL     1      -5.207   9.580  67.623  1.00  0.00    -0.037 A  
HETATM    6  C   UNL     1      -6.018   8.582  68.177  1.00  0.00    -0.046 A  
HETATM    7  C   UNL     1      -7.096   8.305  66.019  1.00  0.00    -0.069 A  
HETATM    8  C   UNL     1      -6.973   7.959  67.365  1.00  0.00    -0.075 A  
BRANCH   6   9
HETATM    9  C   UNL     1      -5.802   8.081  69.585  1.00  0.00    -0.026 C  
BRANCH   9  10
HETATM   10  C   UNL     1      -5.887   9.142  70.710  1.00  0.00    -0.042 C  
HETATM   11  C   UNL     1      -6.300  10.502  70.136  1.00  0.00    -0.132 C  
BRANCH  10  12
HETATM   12  N   UNL     1      -6.854   8.786  71.771  1.00  0.00    -0.154 NA 
HETATM   13  H   UNL     1      -7.445   9.583  72.008  1.00  0.00     0.000 HD 
BRANCH  12  14
HETATM   14  C   UNL     1      -7.667   7.611  71.433  1.00  0.00    -0.081 C  
BRANCH  14  15
HETATM   15  C   UNL     1      -9.188   7.904  71.365  1.00  0.00    -0.136 C  
HETATM   16  H   UNL     1     -10.445   9.125  72.253  1.00  0.00     0.000 HD 
HETATM   17  O   UNL     1      -9.513   8.946  72.294  1.00  0.00    -0.327 OA 
BRANCH  15  18
HETATM   18  C   UNL     1      -9.601   8.316  69.957  1.00  0.00    -0.168 A  
HETATM   19  C   UNL     1      -9.947   7.352  68.986  1.00  0.00    -0.176 A  
HETATM   20  C   UNL     1     -10.356   7.724  67.701  1.00  0.00    -0.239 A  
HETATM   21  H   UNL     1     -10.822  10.456  65.938  1.00  0.00     0.000 HD 
HETATM   22  C   UNL     1     -10.426   9.087  67.393  1.00  0.00    -0.269 A  
HETATM   23  C   UNL     1      -9.679   9.671  69.614  1.00  0.00    -0.230 A  
HETATM   24  C   UNL     1     -10.099  10.054  68.339  1.00  0.00    -0.186 A  
HETATM   25  O   UNL     1     -10.774   9.531  66.147  1.00  0.00     0.024 OA 
BRANCH  20  26
HETATM   26  N   UNL     1     -10.730   6.778  66.728  1.00  0.00    -0.513 N  
HETATM   27  H   UNL     1     -11.388   7.095  66.016  1.00  0.00     0.000 HD 
HETATM   28  O   UNL     1     -10.721   4.725  65.761  1.00  0.00    -0.305 OA 
HETATM   29  C   UNL     1     -10.311   5.485  66.631  1.00  0.00    -0.269 C  
ENDBRANCH  20  26
ENDBRANCH  15  18
ENDBRANCH  14  15
ENDBRANCH  12  14
ENDBRANCH  10  12
ENDBRANCH   9  10
ENDBRANCH   6   9
ENDBRANCH   2   3
TORSDOF 8
ENDMDL
MODEL      400
REMARK 921   NORMALIZED FREE ENERGY PREDICTED BY IDOCK:   -2.41 KCAL/MOL
REMARK 922        TOTAL FREE ENERGY PREDICTED BY IDOCK:   -5.03 KCAL/MOL
REMARK 923 INTER-LIGAND FREE ENERGY PREDICTED BY IDOCK:   -4.16 KCAL/MOL
REMARK 924 INTRA-LIGAND FREE ENERGY PREDICTED BY IDOCK:   -0.87 KCAL/MOL
REMARK 927      BINDING AFFINITY PREDICTED BY RF-SCORE:    0.00 PKD
ROOT
HETATM    1  C   UNL     1      -7.438   4.435  64.697  1.00  0.00    -0.072 C  
HETATM    2  O   UNL     1      -6.736   4.553  65.931  1.00  0.00    -0.050 OA 
ENDROOT
BRANCH   2   3
HETATM    3  C   UNL     1      -7.443   4.154  67.031  1.00  0.00    -0.077 A  
HETATM    4  C   UNL     1      -6.683   3.758  68.131  1.00  0.00    -0.046 A  
HETATM    5  C   UNL     1      -7.308   3.290  69.290  1.00  0.00    -0.048 A  
HETATM    6  C   UNL     1      -8.706   3.244  69.371  1.00  0.00    -0.132 A  
HETATM    7  C   UNL     1      -8.833   4.145  67.119  1.00  0.00    -0.124 A  
HETATM    8  C   UNL     1      -9.461   3.690  68.280  1.00  0.00    -0.214 A  
BRANCH   6   9
HETATM    9  C   UNL     1      -9.407   2.615  70.550  1.00  0.00    -0.213 C  
BRANCH   9  10
HETATM   10  C   UNL     1      -9.728   3.556  71.738  1.00  0.00    -0.164 C  
HETATM   11  C   UNL     1      -8.596   3.523  72.771  1.00  0.00    -0.089 C  
BRANCH  10  12
HETATM   12  N   UNL     1      -9.924   4.963  71.326  1.00  0.00    -0.192 NA 
HETATM   13  H   UNL     1     -10.840   5.092  70.895  1.00  0.00     0.000 HD 
BRANCH  12  14
HETATM   14  C   UNL     1      -9.723   5.914  72.427  1.00  0.00    -0.159 C  
BRANCH  14  15
HETATM   15  C   UNL     1     -10.803   7.025  72.496  1.00  0.00    -0.252 C  
HETATM   16  H   UNL     1     -11.531   8.221  73.874  1.00  0.00     0.000 HD 
HETATM   17  O   UNL     1     -10.869   7.541  73.832  1.00  0.00    -0.244 OA 
BRANCH  15  18
HETATM   18  C   UNL     1     -10.488   8.151  71.519  1.00  0.00    -0.276 A  
HETATM   19  C   UNL     1      -9.160   8.433  71.133  1.00  0.00    -0.217 A  
HETATM   20  C   UNL     1      -8.865   9.445  70.213  1.00  0.00    -0.236 A  
HETATM   21  H   UNL     1     -10.438  11.710  68.428  1.00  0.00     0.000 HD 
HETATM   22  C   UNL     1      -9.926  10.179  69.668  1.00  0.00    -0.232 A  
HETATM   23  C   UNL     1     -11.524   8.907  70.957  1.00  0.00    -0.351 A  
HETATM   24  C   UNL     1     -11.243   9.911  70.028  1.00  0.00    -0.327 A  
HETATM   25  O   UNL     1      -9.718  11.212  68.798  1.00  0.00    -0.197 OA 
BRANCH  20  26
HETATM   26  N   UNL     1      -7.550   9.722  69.796  1.00  0.00    -0.119 N  
HETATM   27  H   UNL     1      -7.305   9.436  68.848  1.00  0.00     0.000 HD 
HETATM   28  O   UNL     1      -5.437  10.500  70.075  1.00  0.00    -0.042 OA 
HETATM   29  C   UNL     1      -6.568  10.331  70.518  1.00  0.00    -0.091 C  
ENDBRANCH  20  26
ENDBRANCH  15  18
ENDBRANCH  14  15
ENDBRANCH  12  14
ENDBRANCH  10  12
ENDBRANCH   9  10
ENDBRANCH   6   9
ENDBRANCH   2   3
TORSDOF 8
ENDMDL
MODEL      401
REMARK 921   NORMALIZED FREE ENERGY PREDICTED BY IDOCK:   -2.40 KCAL/MOL
REMARK 922        TOTAL FREE ENERGY PREDICTED BY IDOCK:   -5.02 KCAL/MOL
REMARK 923 INTER-LIGAND FREE ENERGY PREDICTED BY IDOCK:   -4.31 KCAL/MOL
REMARK 924 INTRA-LIGAND FREE ENERGY PREDICTED BY IDOCK:   -0.70 KCAL/MOL
REMARK 927      BINDING AFFINITY PREDICTED BY RF-SCORE:    0.00 PKD
ROOT
HETATM    1  C   UNL     1      -5.693  17.998  66.997  1.00  0.00    -0.136 C  
HETATM    2  O   UNL     1      -5.970  17.489  68.298  1.00  0.00    -0.157 OA 
ENDROOT
BRANCH   2   3
HETATM    3  C   UNL     1      -6.432  16.202  68.323  1.00  0.00    -0.128 A  
HETATM    4  C   UNL     1      -7.184  15.804  67.219  1.00  0.00    -0.254 A  
HETATM    5  C   UNL     1      -7.739  14.523  67.167  1.00  0.00    -0.093 A  
HETATM    6  C   UNL     1      -7.518  13.613  68.209  1.00  0.00    -0.124 A  
HETATM    7  C   UNL     1      -6.178  15.291  69.345  1.00  0.00    -0.122 A  
HETATM    8  C   UNL     1      -6.720  14.005  69.290  1.00  0.00    -0.120 A  
BRANCH   6   9
HETATM    9  C   UNL     1      -8.216  12.275  68.249  1.00  0.00    -0.167 C  
BRANCH   9  10
HETATM   10  C   UNL     1      -7.704  11.205  67.253  1.00  0.00    -0.130 C  
HETATM   11  C   UNL     1      -6.172  11.150  67.264  1.00  0.00    -0.073 C  
BRANCH  10  12
HETATM   12  N   UNL     1      -8.208   9.847  67.551  1.00  0.00    -0.114 NA 
HETATM   13  H   UNL     1      -7.440   9.212  67.766  1.00  0.00     0.000 HD 
BRANCH  12  14
HETATM   14  C   UNL     1      -9.216   9.833  68.619  1.00  0.00    -0.137 C  
BRANCH  14  15
HETATM   15  C   UNL     1     -10.523   9.094  68.233  1.00  0.00    -0.208 C  
HETATM   16  H   UNL     1     -11.808   9.154  66.747  1.00  0.00     0.000 HD 
HETATM   17  O   UNL     1     -11.007   9.606  66.984  1.00  0.00    -0.148 OA 
BRANCH  15  18
HETATM   18  C   UNL     1     -10.288   7.593  68.123  1.00  0.00    -0.250 A  
HETATM   19  C   UNL     1     -10.242   6.951  66.866  1.00  0.00    -0.310 A  
HETATM   20  C   UNL     1      -9.995   5.579  66.755  1.00  0.00    -0.183 A  
HETATM   21  H   UNL     1      -9.436   2.993  68.703  1.00  0.00     0.000 HD 
HETATM   22  C   UNL     1      -9.783   4.843  67.928  1.00  0.00    -0.155 A  
HETATM   23  C   UNL     1     -10.075   6.826  69.275  1.00  0.00    -0.179 A  
HETATM   24  C   UNL     1      -9.815   5.459  69.176  1.00  0.00    -0.242 A  
HETATM   25  O   UNL     1      -9.580   3.492  67.907  1.00  0.00    -0.190 OA 
BRANCH  20  26
HETATM   26  N   UNL     1      -9.919   4.926  65.511  1.00  0.00    -0.352 N  
HETATM   27  H   UNL     1      -9.023   4.976  65.026  1.00  0.00     0.000 HD 
HETATM   28  O   UNL     1     -10.755   3.726  63.776  1.00  0.00    -0.266 OA 
HETATM   29  C   UNL     1     -10.910   4.235  64.881  1.00  0.00    -0.076 C  
ENDBRANCH  20  26
ENDBRANCH  15  18
ENDBRANCH  14  15
ENDBRANCH  12  14
ENDBRANCH  10  12
ENDBRANCH   9  10
ENDBRANCH   6   9
ENDBRANCH   2   3
TORSDOF 8
ENDMDL
MODEL      402
REMARK 921   NORMALIZED FREE ENERGY PREDICTED BY IDOCK:   -2.37 KCAL/MOL
REMARK 922        TOTAL FREE ENERGY PREDICTED BY IDOCK:   -4.98 KCAL/MOL
REMARK 923 INTER-LIGAND FREE ENERGY PREDICTED BY IDOCK:   -3.91 KCAL/MOL
REMARK 924 INTRA-LIGAND FREE ENERGY PREDICTED BY IDOCK:   -1.06 KCAL/MOL
REMARK 927      BINDING AFFINITY PREDICTED BY RF-SCORE:    0.00 PKD
ROOT
HETATM    1  C   UNL     1      -8.082   3.274  64.484  1.00  0.00    -0.086 C  
HETATM    2  O   UNL     1      -7.308   3.792  65.562  1.00  0.00    -0.070 OA 
ENDROOT
BRANCH   2   3
HETATM    3  C   UNL     1      -7.989   3.931  66.740  1.00  0.00    -0.096 A  
HETATM    4  C   UNL     1      -7.222   4.289  67.847  1.00  0.00    -0.064 A  
HETATM    5  C   UNL     1      -7.814   4.414  69.106  1.00  0.00    -0.061 A  
HETATM    6  C   UNL     1      -9.192   4.212  69.264  1.00  0.00    -0.213 A  
HETATM    7  C   UNL     1      -9.364   3.765  66.883  1.00  0.00    -0.214 A  
HETATM    8  C   UNL     1      -9.962   3.901  68.137  1.00  0.00     0.093 A  
BRANCH   6   9
HETATM    9  C   UNL     1      -9.836   4.201  70.629  1.00  0.00    -0.249 C  
BRANCH   9  10
HETATM   10  C   UNL     1     -10.426   5.547  71.118  1.00  0.00    -0.236 C  
HETATM   11  C   UNL     1      -9.325   6.431  71.714  1.00  0.00    -0.152 C  
BRANCH  10  12
HETATM   12  N   UNL     1     -11.090   6.315  70.043  1.00  0.00    -0.355 NA 
HETATM   13  H   UNL     1     -12.065   6.499  70.276  1.00  0.00     0.000 HD 
BRANCH  12  14
HETATM   14  C   UNL     1     -10.385   7.559  69.710  1.00  0.00    -0.221 C  
BRANCH  14  15
HETATM   15  C   UNL     1     -11.015   8.334  68.523  1.00  0.00     0.217 C  
HETATM   16  H   UNL     1     -11.739  10.136  68.222  1.00  0.00     0.000 HD 
HETATM   17  O   UNL     1     -11.352   9.661  68.948  1.00  0.00    -0.044 OA 
BRANCH  15  18
HETATM   18  C   UNL     1     -10.055   8.395  67.341  1.00  0.00    -0.301 A  
HETATM   19  C   UNL     1     -10.099   9.463  66.420  1.00  0.00    -0.332 A  
HETATM   20  C   UNL     1      -9.201   9.542  65.350  1.00  0.00    -0.247 A  
HETATM   21  H   UNL     1      -6.703   7.832  64.076  1.00  0.00     0.000 HD 
HETATM   22  C   UNL     1      -8.239   8.535  65.212  1.00  0.00    -0.149 A  
HETATM   23  C   UNL     1      -9.082   7.402  67.171  1.00  0.00    -0.146 A  
HETATM   24  C   UNL     1      -8.173   7.478  66.115  1.00  0.00    -0.125 A  
HETATM   25  O   UNL     1      -7.355   8.516  64.169  1.00  0.00    -0.095 OA 
BRANCH  20  26
HETATM   26  N   UNL     1      -9.212  10.613  64.437  1.00  0.00    -0.219 N  
HETATM   27  H   UNL     1      -9.330  11.546  64.832  1.00  0.00     0.000 HD 
HETATM   28  O   UNL     1      -9.137  11.535  62.364  1.00  0.00    -0.289 OA 
HETATM   29  C   UNL     1      -9.081  10.542  63.082  1.00  0.00    -0.257 C  
ENDBRANCH  20  26
ENDBRANCH  15  18
ENDBRANCH  14  15
ENDBRANCH  12  14
ENDBRANCH  10  12
ENDBRANCH   9  10
ENDBRANCH   6   9
ENDBRANCH   2   3
TORSDOF 8
ENDMDL
MODEL      403
REMARK 921   NORMALIZED FREE ENERGY PREDICTED BY IDOCK:   -2.36 KCAL/MOL
REMARK 922        TOTAL FREE ENERGY PREDICTED BY IDOCK:   -4.95 KCAL/MOL
REMARK 923 INTER-LIGAND FREE ENERGY PREDICTED BY IDOCK:   -5.42 KCAL/MOL
REMARK 924 INTRA-LIGAND FREE ENERGY PREDICTED BY IDOCK:    0.46 KCAL/MOL
REMARK 927      BINDING AFFINITY PREDICTED BY RF-SCORE:    0.00 PKD
ROOT
HETATM    1  C   UNL     1     -10.285   4.440  73.545  1.00  0.00    -0.164 C  
HETATM    2  O   UNL     1     -10.885   5.728  73.647  1.00  0.00    -0.270 OA 
ENDROOT
BRANCH   2   3
HETATM    3  C   UNL     1     -10.533   6.603  72.658  1.00  0.00    -0.212 A  
HETATM    4  C   UNL     1      -9.963   7.803  73.082  1.00  0.00    -0.374 A  
HETATM    5  C   UNL     1      -9.608   8.784  72.153  1.00  0.00    -0.325 A  
HETATM    6  C   UNL     1      -9.791   8.560  70.782  1.00  0.00    -0.220 A  
HETATM    7  C   UNL     1     -10.684   6.360  71.295  1.00  0.00    -0.288 A  
HETATM    8  C   UNL     1     -10.318   7.333  70.363  1.00  0.00    -0.217 A  
BRANCH   6   9
HETATM    9  C   UNL     1      -9.549   9.649  69.766  1.00  0.00    -0.242 C  
BRANCH   9  10
HETATM   10  C   UNL     1      -8.127  10.262  69.743  1.00  0.00    -0.110 C  
HETATM   11  C   UNL     1      -7.065   9.159  69.811  1.00  0.00    -0.061 C  
BRANCH  10  12
HETATM   12  N   UNL     1      -7.863  11.070  68.533  1.00  0.00    -0.121 NA 
HETATM   13  H   UNL     1      -8.707  11.553  68.226  1.00  0.00     0.000 HD 
BRANCH  12  14
HETATM   14  C   UNL     1      -6.752  12.014  68.707  1.00  0.00    -0.087 C  
BRANCH  14  15
HETATM   15  C   UNL     1      -7.200  13.497  68.778  1.00  0.00    -0.096 C  
HETATM   16  H   UNL     1      -6.325  15.255  68.709  1.00  0.00     0.000 HD 
HETATM   17  O   UNL     1      -6.050  14.347  68.665  1.00  0.00    -0.078 OA 
BRANCH  15  18
HETATM   18  C   UNL     1      -8.194  13.819  67.669  1.00  0.00    -0.180 A  
HETATM   19  C   UNL     1      -8.420  15.149  67.255  1.00  0.00    -0.220 A  
HETATM   20  C   UNL     1      -9.308  15.450  66.216  1.00  0.00    -0.316 A  
HETATM   21  H   UNL     1     -11.339  13.891  64.158  1.00  0.00     0.000 HD 
HETATM   22  C   UNL     1      -9.972  14.394  65.581  1.00  0.00    -0.337 A  
HETATM   23  C   UNL     1      -8.878  12.787  67.014  1.00  0.00    -0.213 A  
HETATM   24  C   UNL     1      -9.757  13.075  65.968  1.00  0.00    -0.223 A  
HETATM   25  O   UNL     1     -10.888  14.608  64.589  1.00  0.00    -0.385 OA 
BRANCH  20  26
HETATM   26  N   UNL     1      -9.526  16.768  65.771  1.00  0.00    -0.128 N  
HETATM   27  H   UNL     1     -10.168  16.881  64.987  1.00  0.00     0.000 HD 
HETATM   28  O   UNL     1      -9.203  19.013  65.792  1.00  0.00    -0.385 OA 
HETATM   29  C   UNL     1      -8.975  17.908  66.272  1.00  0.00    -0.168 C  
ENDBRANCH  20  26
ENDBRANCH  15  18
ENDBRANCH  14  15
ENDBRANCH  12  14
ENDBRANCH  10  12
ENDBRANCH   9  10
ENDBRANCH   6   9
ENDBRANCH   2   3
TORSDOF 8
ENDMDL
MODEL      404
REMARK 921   NORMALIZED FREE ENERGY PREDICTED BY IDOCK:   -2.33 KCAL/MOL
REMARK 922        TOTAL FREE ENERGY PREDICTED BY IDOCK:   -4.91 KCAL/MOL
REMARK 923 INTER-LIGAND FREE ENERGY PREDICTED BY IDOCK:   -3.94 KCAL/MOL
REMARK 924 INTRA-LIGAND FREE ENERGY PREDICTED BY IDOCK:   -0.96 KCAL/MOL
REMARK 927      BINDING AFFINITY PREDICTED BY RF-SCORE:    0.00 PKD
ROOT
HETATM    1  C   UNL     1     -11.127  11.674  63.309  1.00  0.00    -0.246 C  
HETATM    2  O   UNL     1     -10.491  10.415  63.506  1.00  0.00     0.079 OA 
ENDROOT
BRANCH   2   3
HETATM    3  C   UNL     1      -9.440  10.436  64.380  1.00  0.00    -0.287 A  
HETATM    4  C   UNL     1      -9.721  10.918  65.658  1.00  0.00    -0.279 A  
HETATM    5  C   UNL     1      -8.707  11.021  66.613  1.00  0.00    -0.160 A  
HETATM    6  C   UNL     1      -7.402  10.612  66.307  1.00  0.00    -0.137 A  
HETATM    7  C   UNL     1      -8.153   9.993  64.082  1.00  0.00    -0.153 A  
HETATM    8  C   UNL     1      -7.140  10.084  65.038  1.00  0.00    -0.136 A  
BRANCH   6   9
HETATM    9  C   UNL     1      -6.259  10.841  67.266  1.00  0.00    -0.061 C  
BRANCH   9  10
HETATM   10  C   UNL     1      -6.646  11.144  68.734  1.00  0.00    -0.059 C  
HETATM   11  C   UNL     1      -5.925  10.186  69.689  1.00  0.00    -0.044 C  
BRANCH  10  12
HETATM   12  N   UNL     1      -6.318  12.526  69.146  1.00  0.00    -0.089 NA 
HETATM   13  H   UNL     1      -5.586  12.531  69.857  1.00  0.00     0.000 HD 
BRANCH  12  14
HETATM   14  C   UNL     1      -5.957  13.390  68.015  1.00  0.00    -0.129 C  
BRANCH  14  15
HETATM   15  C   UNL     1      -6.051  14.905  68.333  1.00  0.00    -0.103 C  
HETATM   16  H   UNL     1      -5.187  16.551  67.697  1.00  0.00     0.000 HD 
HETATM   17  O   UNL     1      -5.129  15.623  67.502  1.00  0.00    -0.265 OA 
BRANCH  15  18
HETATM   18  C   UNL     1      -7.467  15.422  68.106  1.00  0.00    -0.120 A  
HETATM   19  C   UNL     1      -8.581  14.774  68.680  1.00  0.00    -0.169 A  
HETATM   20  C   UNL     1      -9.881  15.260  68.501  1.00  0.00    -0.210 A  
HETATM   21  H   UNL     1     -11.420  17.723  66.965  1.00  0.00     0.000 HD 
HETATM   22  C   UNL     1     -10.059  16.421  67.740  1.00  0.00    -0.262 A  
HETATM   23  C   UNL     1      -7.681  16.579  67.347  1.00  0.00    -0.174 A  
HETATM   24  C   UNL     1      -8.972  17.081  67.173  1.00  0.00    -0.234 A  
HETATM   25  O   UNL     1     -11.299  16.935  67.482  1.00  0.00     0.007 OA 
BRANCH  20  26
HETATM   26  N   UNL     1     -11.002  14.643  69.088  1.00  0.00    -0.254 N  
HETATM   27  H   UNL     1     -11.652  15.257  69.579  1.00  0.00     0.000 HD 
HETATM   28  O   UNL     1     -12.304  12.870  69.643  1.00  0.00    -0.173 OA 
HETATM   29  C   UNL     1     -11.316  13.317  69.071  1.00  0.00    -0.285 C  
ENDBRANCH  20  26
ENDBRANCH  15  18
ENDBRANCH  14  15
ENDBRANCH  12  14
ENDBRANCH  10  12
ENDBRANCH   9  10
ENDBRANCH   6   9
ENDBRANCH   2   3
TORSDOF 8
ENDMDL
MODEL      405
REMARK 921   NORMALIZED FREE ENERGY PREDICTED BY IDOCK:   -2.32 KCAL/MOL
REMARK 922        TOTAL FREE ENERGY PREDICTED BY IDOCK:   -4.90 KCAL/MOL
REMARK 923 INTER-LIGAND FREE ENERGY PREDICTED BY IDOCK:   -4.17 KCAL/MOL
REMARK 924 INTRA-LIGAND FREE ENERGY PREDICTED BY IDOCK:   -0.72 KCAL/MOL
REMARK 927      BINDING AFFINITY PREDICTED BY RF-SCORE:    0.00 PKD
ROOT
HETATM    1  C   UNL     1      -6.359  13.259  67.595  1.00  0.00    -0.156 C  
HETATM    2  O   UNL     1      -5.573  12.316  66.872  1.00  0.00    -0.303 OA 
ENDROOT
BRANCH   2   3
HETATM    3  C   UNL     1      -6.247  11.195  66.473  1.00  0.00    -0.139 A  
HETATM    4  C   UNL     1      -5.461  10.159  65.971  1.00  0.00    -0.059 A  
HETATM    5  C   UNL     1      -6.056   8.987  65.496  1.00  0.00    -0.055 A  
HETATM    6  C   UNL     1      -7.447   8.828  65.549  1.00  0.00    -0.086 A  
HETATM    7  C   UNL     1      -7.627  11.028  66.562  1.00  0.00    -0.146 A  
HETATM    8  C   UNL     1      -8.224   9.854  66.100  1.00  0.00    -0.118 A  
BRANCH   6   9
HETATM    9  C   UNL     1      -8.129   7.638  64.917  1.00  0.00    -0.128 C  
BRANCH   9  10
HETATM   10  C   UNL     1      -8.337   6.405  65.830  1.00  0.00    -0.146 C  
HETATM   11  C   UNL     1      -7.356   5.288  65.457  1.00  0.00    -0.069 C  
BRANCH  10  12
HETATM   12  N   UNL     1      -8.154   6.708  67.266  1.00  0.00    -0.119 NA 
HETATM   13  H   UNL     1      -8.226   7.710  67.438  1.00  0.00     0.000 HD 
BRANCH  12  14
HETATM   14  C   UNL     1      -9.073   5.958  68.131  1.00  0.00    -0.117 C  
BRANCH  14  15
HETATM   15  C   UNL     1     -10.192   6.831  68.756  1.00  0.00    -0.175 C  
HETATM   16  H   UNL     1     -12.145   6.977  68.594  1.00  0.00     0.000 HD 
HETATM   17  O   UNL     1     -11.460   6.442  68.211  1.00  0.00    -0.186 OA 
BRANCH  15  18
HETATM   18  C   UNL     1     -10.212   6.684  70.273  1.00  0.00    -0.215 A  
HETATM   19  C   UNL     1      -9.274   7.359  71.084  1.00  0.00    -0.155 A  
HETATM   20  C   UNL     1      -9.305   7.254  72.479  1.00  0.00    -0.143 A  
HETATM   21  H   UNL     1     -11.049   5.740  74.815  1.00  0.00     0.000 HD 
HETATM   22  C   UNL     1     -10.302   6.464  73.065  1.00  0.00    -0.214 A  
HETATM   23  C   UNL     1     -11.193   5.900  70.893  1.00  0.00    -0.278 A  
HETATM   24  C   UNL     1     -11.242   5.799  72.284  1.00  0.00    -0.333 A  
HETATM   25  O   UNL     1     -10.373   6.276  74.417  1.00  0.00    -0.323 OA 
BRANCH  20  26
HETATM   26  N   UNL     1      -8.396   7.940  73.305  1.00  0.00    -0.173 N  
HETATM   27  H   UNL     1      -8.647   8.017  74.291  1.00  0.00     0.000 HD 
HETATM   28  O   UNL     1      -6.504   9.120  73.727  1.00  0.00    -0.332 OA 
HETATM   29  C   UNL     1      -7.216   8.513  72.935  1.00  0.00    -0.005 C  
ENDBRANCH  20  26
ENDBRANCH  15  18
ENDBRANCH  14  15
ENDBRANCH  12  14
ENDBRANCH  10  12
ENDBRANCH   9  10
ENDBRANCH   6   9
ENDBRANCH   2   3
TORSDOF 8
ENDMDL
MODEL      406
REMARK 921   NORMALIZED FREE ENERGY PREDICTED BY IDOCK:   -2.27 KCAL/MOL
REMARK 922        TOTAL FREE ENERGY PREDICTED BY IDOCK:   -4.83 KCAL/MOL
REMARK 923 INTER-LIGAND FREE ENERGY PREDICTED BY IDOCK:   -4.53 KCAL/MOL
REMARK 924 INTRA-LIGAND FREE ENERGY PREDICTED BY IDOCK:   -0.30 KCAL/MOL
REMARK 927      BINDING AFFINITY PREDICTED BY RF-SCORE:    0.00 PKD
ROOT
HETATM    1  C   UNL     1     -11.805  14.995  69.021  1.00  0.00    -0.300 C  
HETATM    2  O   UNL     1     -12.589  13.896  69.478  1.00  0.00    -0.210 OA 
ENDROOT
BRANCH   2   3
HETATM    3  C   UNL     1     -11.933  12.697  69.500  1.00  0.00    -0.270 A  
HETATM    4  C   UNL     1     -11.031  12.476  68.460  1.00  0.00    -0.280 A  
HETATM    5  C   UNL     1     -10.342  11.265  68.367  1.00  0.00    -0.207 A  
HETATM    6  C   UNL     1     -10.526  10.270  69.336  1.00  0.00    -0.259 A  
HETATM    7  C   UNL     1     -12.092  11.726  70.486  1.00  0.00    -0.439 A  
HETATM    8  C   UNL     1     -11.396  10.519  70.404  1.00  0.00    -0.411 A  
BRANCH   6   9
HETATM    9  C   UNL     1      -9.905   8.901  69.188  1.00  0.00    -0.180 C  
BRANCH   9  10
HETATM   10  C   UNL     1     -10.854   7.764  68.736  1.00  0.00     0.030 C  
HETATM   11  C   UNL     1     -10.805   7.596  67.214  1.00  0.00    -0.263 C  
BRANCH  10  12
HETATM   12  N   UNL     1     -10.525   6.458  69.346  1.00  0.00    -0.207 NA 
HETATM   13  H   UNL     1     -10.902   5.691  68.790  1.00  0.00     0.000 HD 
BRANCH  12  14
HETATM   14  C   UNL     1      -9.086   6.281  69.579  1.00  0.00    -0.137 C  
BRANCH  14  15
HETATM   15  C   UNL     1      -8.614   4.807  69.477  1.00  0.00    -0.085 C  
HETATM   16  H   UNL     1      -9.365   3.039  69.891  1.00  0.00     0.000 HD 
HETATM   17  O   UNL     1      -9.654   3.942  69.953  1.00  0.00    -0.188 OA 
BRANCH  15  18
HETATM   18  C   UNL     1      -8.256   4.448  68.041  1.00  0.00    -0.094 A  
HETATM   19  C   UNL     1      -8.627   5.283  66.965  1.00  0.00    -0.105 A  
HETATM   20  C   UNL     1      -8.276   4.976  65.646  1.00  0.00    -0.117 A  
HETATM   21  H   UNL     1      -6.681   2.634  63.985  1.00  0.00     0.000 HD 
HETATM   22  C   UNL     1      -7.531   3.815  65.409  1.00  0.00    -0.077 A  
HETATM   23  C   UNL     1      -7.515   3.292  67.766  1.00  0.00    -0.058 A  
HETATM   24  C   UNL     1      -7.147   2.983  66.456  1.00  0.00    -0.054 A  
HETATM   25  O   UNL     1      -7.186   3.422  64.146  1.00  0.00    -0.055 OA 
BRANCH  20  26
HETATM   26  N   UNL     1      -8.614   5.810  64.564  1.00  0.00    -0.327 N  
HETATM   27  H   UNL     1      -9.609   5.952  64.394  1.00  0.00     0.000 HD 
HETATM   28  O   UNL     1      -8.152   7.132  62.778  1.00  0.00    -0.128 OA 
HETATM   29  C   UNL     1      -7.758   6.449  63.718  1.00  0.00    -0.111 C  
ENDBRANCH  20  26
ENDBRANCH  15  18
ENDBRANCH  14  15
ENDBRANCH  12  14
ENDBRANCH  10  12
ENDBRANCH   9  10
ENDBRANCH   6   9
ENDBRANCH   2   3
TORSDOF 8
ENDMDL
MODEL      407
REMARK 921   NORMALIZED FREE ENERGY PREDICTED BY IDOCK:   -2.27 KCAL/MOL
REMARK 922        TOTAL FREE ENERGY PREDICTED BY IDOCK:   -4.82 KCAL/MOL
REMARK 923 INTER-LIGAND FREE ENERGY PREDICTED BY IDOCK:   -4.48 KCAL/MOL
REMARK 924 INTRA-LIGAND FREE ENERGY PREDICTED BY IDOCK:   -0.34 KCAL/MOL
REMARK 927      BINDING AFFINITY PREDICTED BY RF-SCORE:    0.00 PKD
ROOT
HETATM    1  C   UNL     1     -10.402  19.933  68.364  1.00  0.00    -0.378 C  
HETATM    2  O   UNL     1      -9.763  19.586  67.139  1.00  0.00    -0.314 OA 
ENDROOT
BRANCH   2   3
HETATM    3  C   UNL     1      -8.871  18.554  67.233  1.00  0.00    -0.270 A  
HETATM    4  C   UNL     1      -8.185  18.450  68.442  1.00  0.00    -0.331 A  
HETATM    5  C   UNL     1      -7.219  17.457  68.624  1.00  0.00    -0.237 A  
HETATM    6  C   UNL     1      -6.952  16.535  67.604  1.00  0.00    -0.158 A  
HETATM    7  C   UNL     1      -8.636  17.618  66.229  1.00  0.00    -0.224 A  
HETATM    8  C   UNL     1      -7.681  16.616  66.412  1.00  0.00    -0.328 A  
BRANCH   6   9
HETATM    9  C   UNL     1      -5.821  15.541  67.716  1.00  0.00    -0.157 C  
BRANCH   9  10
HETATM   10  C   UNL     1      -6.210  14.106  68.150  1.00  0.00    -0.133 C  
HETATM   11  C   UNL     1      -7.101  14.145  69.397  1.00  0.00    -0.049 C  
BRANCH  10  12
HETATM   12  N   UNL     1      -6.934  13.359  67.100  1.00  0.00    -0.412 NA 
HETATM   13  H   UNL     1      -6.322  13.156  66.309  1.00  0.00     0.000 HD 
BRANCH  12  14
HETATM   14  C   UNL     1      -7.567  12.133  67.603  1.00  0.00    -0.140 C  
BRANCH  14  15
HETATM   15  C   UNL     1      -6.592  10.932  67.720  1.00  0.00    -0.064 C  
HETATM   16  H   UNL     1      -5.229  10.322  68.997  1.00  0.00     0.000 HD 
HETATM   17  O   UNL     1      -5.826  11.058  68.925  1.00  0.00    -0.040 OA 
BRANCH  15  18
HETATM   18  C   UNL     1      -7.353   9.612  67.724  1.00  0.00    -0.086 A  
HETATM   19  C   UNL     1      -7.902   9.089  68.915  1.00  0.00    -0.095 A  
HETATM   20  C   UNL     1      -8.629   7.894  68.921  1.00  0.00    -0.132 A  
HETATM   21  H   UNL     1      -9.596   5.566  66.814  1.00  0.00     0.000 HD 
HETATM   22  C   UNL     1      -8.812   7.219  67.708  1.00  0.00    -0.124 A  
HETATM   23  C   UNL     1      -7.553   8.909  66.529  1.00  0.00    -0.092 A  
HETATM   24  C   UNL     1      -8.287   7.722  66.522  1.00  0.00    -0.128 A  
HETATM   25  O   UNL     1      -9.471   6.024  67.637  1.00  0.00    -0.113 OA 
BRANCH  20  26
HETATM   26  N   UNL     1      -9.207   7.371  70.093  1.00  0.00    -0.152 N  
HETATM   27  H   UNL     1      -9.465   6.385  70.071  1.00  0.00     0.000 HD 
HETATM   28  O   UNL     1      -9.999   7.499  72.216  1.00  0.00    -0.170 OA 
HETATM   29  C   UNL     1      -9.459   8.037  71.255  1.00  0.00    -0.157 C  
ENDBRANCH  20  26
ENDBRANCH  15  18
ENDBRANCH  14  15
ENDBRANCH  12  14
ENDBRANCH  10  12
ENDBRANCH   9  10
ENDBRANCH   6   9
ENDBRANCH   2   3
TORSDOF 8
ENDMDL
MODEL      408
REMARK 921   NORMALIZED FREE ENERGY PREDICTED BY IDOCK:   -2.25 KCAL/MOL
REMARK 922        TOTAL FREE ENERGY PREDICTED BY IDOCK:   -4.79 KCAL/MOL
REMARK 923 INTER-LIGAND FREE ENERGY PREDICTED BY IDOCK:   -4.02 KCAL/MOL
REMARK 924 INTRA-LIGAND FREE ENERGY PREDICTED BY IDOCK:   -0.77 KCAL/MOL
REMARK 927      BINDING AFFINITY PREDICTED BY RF-SCORE:    0.00 PKD
ROOT
HETATM    1  C   UNL     1     -10.296  14.610  68.380  1.00  0.00    -0.237 C  
HETATM    2  O   UNL     1     -11.344  13.743  67.955  1.00  0.00    -0.260 OA 
ENDROOT
BRANCH   2   3
HETATM    3  C   UNL     1     -10.939  12.693  67.180  1.00  0.00    -0.261 A  
HETATM    4  C   UNL     1     -10.814  11.467  67.833  1.00  0.00    -0.257 A  
HETATM    5  C   UNL     1     -10.364  10.341  67.141  1.00  0.00    -0.292 A  
HETATM    6  C   UNL     1     -10.064  10.422  65.775  1.00  0.00    -0.329 A  
HETATM    7  C   UNL     1     -10.677  12.772  65.815  1.00  0.00    -0.296 A  
HETATM    8  C   UNL     1     -10.239  11.645  65.117  1.00  0.00    -0.319 A  
BRANCH   6   9
HETATM    9  C   UNL     1      -9.444   9.262  65.033  1.00  0.00    -0.119 C  
BRANCH   9  10
HETATM   10  C   UNL     1      -8.109   9.551  64.304  1.00  0.00    -0.142 C  
HETATM   11  C   UNL     1      -7.088  10.160  65.271  1.00  0.00    -0.137 C  
BRANCH  10  12
HETATM   12  N   UNL     1      -7.501   8.341  63.708  1.00  0.00    -0.114 NA 
HETATM   13  H   UNL     1      -6.483   8.390  63.742  1.00  0.00     0.000 HD 
BRANCH  12  14
HETATM   14  C   UNL     1      -7.988   7.097  64.317  1.00  0.00    -0.088 C  
BRANCH  14  15
HETATM   15  C   UNL     1      -6.943   6.396  65.223  1.00  0.00    -0.056 C  
HETATM   16  H   UNL     1      -4.986   6.221  65.269  1.00  0.00     0.000 HD 
HETATM   17  O   UNL     1      -5.626   6.651  64.715  1.00  0.00    -0.029 OA 
BRANCH  15  18
HETATM   18  C   UNL     1      -7.049   6.890  66.660  1.00  0.00    -0.071 A  
HETATM   19  C   UNL     1      -8.280   6.868  67.351  1.00  0.00    -0.119 A  
HETATM   20  C   UNL     1      -8.380   7.292  68.680  1.00  0.00    -0.125 A  
HETATM   21  H   UNL     1      -6.456   8.509  71.048  1.00  0.00     0.000 HD 
HETATM   22  C   UNL     1      -7.221   7.736  69.326  1.00  0.00    -0.081 A  
HETATM   23  C   UNL     1      -5.910   7.345  67.336  1.00  0.00    -0.034 A  
HETATM   24  C   UNL     1      -5.995   7.757  68.667  1.00  0.00    -0.035 A  
HETATM   25  O   UNL     1      -7.243   8.207  70.609  1.00  0.00    -0.050 OA 
BRANCH  20  26
HETATM   26  N   UNL     1      -9.593   7.251  69.393  1.00  0.00    -0.154 N  
HETATM   27  H   UNL     1     -10.406   6.904  68.885  1.00  0.00     0.000 HD 
HETATM   28  O   UNL     1     -10.908   7.584  71.212  1.00  0.00    -0.232 OA 
HETATM   29  C   UNL     1      -9.801   7.625  70.687  1.00  0.00    -0.182 C  
ENDBRANCH  20  26
ENDBRANCH  15  18
ENDBRANCH  14  15
ENDBRANCH  12  14
ENDBRANCH  10  12
ENDBRANCH   9  10
ENDBRANCH   6   9
ENDBRANCH   2   3
TORSDOF 8
ENDMDL
MODEL      409
REMARK 921   NORMALIZED FREE ENERGY PREDICTED BY IDOCK:   -2.23 KCAL/MOL
REMARK 922        TOTAL FREE ENERGY PREDICTED BY IDOCK:   -4.77 KCAL/MOL
REMARK 923 INTER-LIGAND FREE ENERGY PREDICTED BY IDOCK:   -4.05 KCAL/MOL
REMARK 924 INTRA-LIGAND FREE ENERGY PREDICTED BY IDOCK:   -0.72 KCAL/MOL
REMARK 927      BINDING AFFINITY PREDICTED BY RF-SCORE:    0.00 PKD
ROOT
HETATM    1  C   UNL     1      -9.709   3.142  71.438  1.00  0.00    -0.149 C  
HETATM    2  O   UNL     1      -9.754   4.287  72.285  1.00  0.00    -0.139 OA 
ENDROOT
BRANCH   2   3
HETATM    3  C   UNL     1      -9.422   5.464  71.674  1.00  0.00    -0.148 A  
HETATM    4  C   UNL     1      -8.593   5.357  70.558  1.00  0.00    -0.125 A  
HETATM    5  C   UNL     1      -8.159   6.503  69.887  1.00  0.00    -0.121 A  
HETATM    6  C   UNL     1      -8.579   7.771  70.310  1.00  0.00    -0.138 A  
HETATM    7  C   UNL     1      -9.872   6.719  72.076  1.00  0.00    -0.166 A  
HETATM    8  C   UNL     1      -9.451   7.866  71.400  1.00  0.00    -0.182 A  
BRANCH   6   9
HETATM    9  C   UNL     1      -8.019   9.032  69.696  1.00  0.00    -0.093 C  
BRANCH   9  10
HETATM   10  C   UNL     1      -7.143   9.913  70.620  1.00  0.00    -0.043 C  
HETATM   11  C   UNL     1      -5.672   9.494  70.526  1.00  0.00    -0.048 C  
BRANCH  10  12
HETATM   12  N   UNL     1      -7.225  11.354  70.296  1.00  0.00    -0.151 NA 
HETATM   13  H   UNL     1      -6.329  11.814  70.453  1.00  0.00     0.000 HD 
BRANCH  12  14
HETATM   14  C   UNL     1      -7.714  11.606  68.934  1.00  0.00    -0.065 C  
BRANCH  14  15
HETATM   15  C   UNL     1      -6.701  12.366  68.039  1.00  0.00    -0.081 C  
HETATM   16  H   UNL     1      -5.682  11.988  66.403  1.00  0.00     0.000 HD 
HETATM   17  O   UNL     1      -6.302  11.522  66.951  1.00  0.00    -0.123 OA 
BRANCH  15  18
HETATM   18  C   UNL     1      -7.311  13.655  67.501  1.00  0.00    -0.178 A  
HETATM   19  C   UNL     1      -6.629  14.886  67.611  1.00  0.00    -0.189 A  
HETATM   20  C   UNL     1      -7.168  16.069  67.091  1.00  0.00    -0.222 A  
HETATM   21  H   UNL     1      -9.863  17.082  65.510  1.00  0.00     0.000 HD 
HETATM   22  C   UNL     1      -8.408  16.007  66.444  1.00  0.00    -0.309 A  
HETATM   23  C   UNL     1      -8.551  13.631  66.850  1.00  0.00    -0.121 A  
HETATM   24  C   UNL     1      -9.092  14.802  66.317  1.00  0.00    -0.231 A  
HETATM   25  O   UNL     1      -9.022  17.124  65.949  1.00  0.00    -0.519 OA 
BRANCH  20  26
HETATM   26  N   UNL     1      -6.492  17.301  67.168  1.00  0.00    -0.153 N  
HETATM   27  H   UNL     1      -6.423  17.834  66.302  1.00  0.00     0.000 HD 
HETATM   28  O   UNL     1      -5.321  18.928  68.230  1.00  0.00    -0.181 OA 
HETATM   29  C   UNL     1      -5.919  17.859  68.271  1.00  0.00    -0.172 C  
ENDBRANCH  20  26
ENDBRANCH  15  18
ENDBRANCH  14  15
ENDBRANCH  12  14
ENDBRANCH  10  12
ENDBRANCH   9  10
ENDBRANCH   6   9
ENDBRANCH   2   3
TORSDOF 8
ENDMDL
MODEL      410
REMARK 921   NORMALIZED FREE ENERGY PREDICTED BY IDOCK:   -2.22 KCAL/MOL
REMARK 922        TOTAL FREE ENERGY PREDICTED BY IDOCK:   -4.76 KCAL/MOL
REMARK 923 INTER-LIGAND FREE ENERGY PREDICTED BY IDOCK:   -3.82 KCAL/MOL
REMARK 924 INTRA-LIGAND FREE ENERGY PREDICTED BY IDOCK:   -0.94 KCAL/MOL
REMARK 927      BINDING AFFINITY PREDICTED BY RF-SCORE:    0.00 PKD
ROOT
HETATM    1  C   UNL     1      -7.176   5.540  73.043  1.00  0.00    -0.091 C  
HETATM    2  O   UNL     1      -6.626   6.853  72.980  1.00  0.00    -0.062 OA 
ENDROOT
BRANCH   2   3
HETATM    3  C   UNL     1      -6.347   7.295  71.717  1.00  0.00    -0.040 A  
HETATM    4  C   UNL     1      -7.152   8.330  71.242  1.00  0.00    -0.063 A  
HETATM    5  C   UNL     1      -6.977   8.824  69.947  1.00  0.00    -0.046 A  
HETATM    6  C   UNL     1      -5.970   8.307  69.123  1.00  0.00    -0.038 A  
HETATM    7  C   UNL     1      -5.320   6.802  70.915  1.00  0.00    -0.023 A  
HETATM    8  C   UNL     1      -5.134   7.303  69.625  1.00  0.00    -0.015 A  
BRANCH   6   9
HETATM    9  C   UNL     1      -5.846   8.720  67.675  1.00  0.00    -0.040 C  
BRANCH   9  10
HETATM   10  C   UNL     1      -6.656   7.886  66.653  1.00  0.00    -0.058 C  
HETATM   11  C   UNL     1      -6.067   6.478  66.521  1.00  0.00    -0.033 C  
BRANCH  10  12
HETATM   12  N   UNL     1      -8.083   7.749  67.018  1.00  0.00    -0.115 NA 
HETATM   13  H   UNL     1      -8.184   7.288  67.922  1.00  0.00     0.000 HD 
BRANCH  12  14
HETATM   14  C   UNL     1      -8.804   9.027  66.997  1.00  0.00    -0.119 C  
BRANCH  14  15
HETATM   15  C   UNL     1     -10.347   8.871  66.966  1.00  0.00    -0.269 C  
HETATM   16  H   UNL     1     -11.627   7.396  66.753  1.00  0.00     0.000 HD 
HETATM   17  O   UNL     1     -10.682   7.491  66.772  1.00  0.00    -0.319 OA 
BRANCH  15  18
HETATM   18  C   UNL     1     -10.971   9.379  68.261  1.00  0.00    -0.085 A  
HETATM   19  C   UNL     1     -10.750   8.716  69.487  1.00  0.00    -0.189 A  
HETATM   20  C   UNL     1     -11.293   9.193  70.685  1.00  0.00    -0.273 A  
HETATM   21  H   UNL     1     -13.188  11.660  71.740  1.00  0.00     0.000 HD 
HETATM   22  C   UNL     1     -12.064  10.361  70.647  1.00  0.00    -0.348 A  
HETATM   23  C   UNL     1     -11.749  10.543  68.259  1.00  0.00    -0.051 A  
HETATM   24  C   UNL     1     -12.286  11.036  69.450  1.00  0.00    -0.329 A  
HETATM   25  O   UNL     1     -12.665  10.868  71.765  1.00  0.00    -0.398 OA 
BRANCH  20  26
HETATM   26  N   UNL     1     -11.062   8.561  71.920  1.00  0.00    -0.301 N  
HETATM   27  H   UNL     1     -10.904   9.173  72.721  1.00  0.00     0.000 HD 
HETATM   28  O   UNL     1     -10.782   6.764  73.278  1.00  0.00    -0.273 OA 
HETATM   29  C   UNL     1     -11.025   7.221  72.166  1.00  0.00    -0.239 C  
ENDBRANCH  20  26
ENDBRANCH  15  18
ENDBRANCH  14  15
ENDBRANCH  12  14
ENDBRANCH  10  12
ENDBRANCH   9  10
ENDBRANCH   6   9
ENDBRANCH   2   3
TORSDOF 8
ENDMDL
MODEL      411
REMARK 921   NORMALIZED FREE ENERGY PREDICTED BY IDOCK:   -2.21 KCAL/MOL
REMARK 922        TOTAL FREE ENERGY PREDICTED BY IDOCK:   -4.74 KCAL/MOL
REMARK 923 INTER-LIGAND FREE ENERGY PREDICTED BY IDOCK:   -4.00 KCAL/MOL
REMARK 924 INTRA-LIGAND FREE ENERGY PREDICTED BY IDOCK:   -0.74 KCAL/MOL
REMARK 927      BINDING AFFINITY PREDICTED BY RF-SCORE:    0.00 PKD
ROOT
HETATM    1  C   UNL     1     -14.403   8.170  71.430  1.00  0.00    -0.365 C  
HETATM    2  O   UNL     1     -13.171   8.871  71.289  1.00  0.00    -0.287 OA 
ENDROOT
BRANCH   2   3
HETATM    3  C   UNL     1     -12.072   8.191  71.736  1.00  0.00    -0.315 A  
HETATM    4  C   UNL     1     -12.165   6.800  71.712  1.00  0.00    -0.402 A  
HETATM    5  C   UNL     1     -11.114   6.014  72.189  1.00  0.00    -0.328 A  
HETATM    6  C   UNL     1      -9.941   6.613  72.667  1.00  0.00    -0.185 A  
HETATM    7  C   UNL     1     -10.895   8.792  72.176  1.00  0.00    -0.400 A  
HETATM    8  C   UNL     1      -9.837   8.009  72.642  1.00  0.00    -0.347 A  
BRANCH   6   9
HETATM    9  C   UNL     1      -8.848   5.800  73.317  1.00  0.00    -0.124 C  
BRANCH   9  10
HETATM   10  C   UNL     1      -7.851   5.103  72.358  1.00  0.00    -0.101 C  
HETATM   11  C   UNL     1      -7.886   3.584  72.557  1.00  0.00    -0.068 C  
BRANCH  10  12
HETATM   12  N   UNL     1      -8.128   5.380  70.932  1.00  0.00    -0.110 NA 
HETATM   13  H   UNL     1      -8.028   6.374  70.728  1.00  0.00     0.000 HD 
BRANCH  12  14
HETATM   14  C   UNL     1      -7.307   4.571  70.023  1.00  0.00    -0.053 C  
BRANCH  14  15
HETATM   15  C   UNL     1      -7.947   4.360  68.626  1.00  0.00    -0.077 C  
HETATM   16  H   UNL     1      -9.730   4.572  67.829  1.00  0.00     0.000 HD 
HETATM   17  O   UNL     1      -9.338   4.702  68.684  1.00  0.00    -0.121 OA 
BRANCH  15  18
HETATM   18  C   UNL     1      -7.247   5.210  67.572  1.00  0.00    -0.071 A  
HETATM   19  C   UNL     1      -7.782   6.449  67.160  1.00  0.00    -0.100 A  
HETATM   20  C   UNL     1      -7.130   7.249  66.216  1.00  0.00    -0.077 A  
HETATM   21  H   UNL     1      -4.414   7.193  64.369  1.00  0.00     0.000 HD 
HETATM   22  C   UNL     1      -5.915   6.798  65.686  1.00  0.00    -0.035 A  
HETATM   23  C   UNL     1      -6.031   4.787  67.020  1.00  0.00    -0.027 A  
HETATM   24  C   UNL     1      -5.365   5.584  66.087  1.00  0.00    -0.012 A  
HETATM   25  O   UNL     1      -5.238   7.500  64.728  1.00  0.00    -0.028 OA 
BRANCH  20  26
HETATM   26  N   UNL     1      -7.635   8.499  65.812  1.00  0.00    -0.084 N  
HETATM   27  H   UNL     1      -7.305   8.853  64.914  1.00  0.00     0.000 HD 
HETATM   28  O   UNL     1      -8.872  10.384  66.066  1.00  0.00    -0.151 OA 
HETATM   29  C   UNL     1      -8.515   9.289  66.488  1.00  0.00    -0.126 C  
ENDBRANCH  20  26
ENDBRANCH  15  18
ENDBRANCH  14  15
ENDBRANCH  12  14
ENDBRANCH  10  12
ENDBRANCH   9  10
ENDBRANCH   6   9
ENDBRANCH   2   3
TORSDOF 8
ENDMDL
MODEL      412
REMARK 921   NORMALIZED FREE ENERGY PREDICTED BY IDOCK:   -2.09 KCAL/MOL
REMARK 922        TOTAL FREE ENERGY PREDICTED BY IDOCK:   -4.56 KCAL/MOL
REMARK 923 INTER-LIGAND FREE ENERGY PREDICTED BY IDOCK:   -4.70 KCAL/MOL
REMARK 924 INTRA-LIGAND FREE ENERGY PREDICTED BY IDOCK:    0.14 KCAL/MOL
REMARK 927      BINDING AFFINITY PREDICTED BY RF-SCORE:    0.00 PKD
ROOT
HETATM    1  C   UNL     1     -12.075   6.485  71.798  1.00  0.00    -0.342 C  
HETATM    2  O   UNL     1     -10.714   6.811  71.532  1.00  0.00    -0.222 OA 
ENDROOT
BRANCH   2   3
HETATM    3  C   UNL     1     -10.520   8.040  70.965  1.00  0.00    -0.203 A  
HETATM    4  C   UNL     1      -9.569   8.097  69.947  1.00  0.00    -0.175 A  
HETATM    5  C   UNL     1      -9.264   9.314  69.333  1.00  0.00    -0.159 A  
HETATM    6  C   UNL     1      -9.935  10.484  69.709  1.00  0.00    -0.090 A  
HETATM    7  C   UNL     1     -11.216   9.193  71.318  1.00  0.00    -0.407 A  
HETATM    8  C   UNL     1     -10.924  10.409  70.697  1.00  0.00    -0.191 A  
BRANCH   6   9
HETATM    9  C   UNL     1      -9.533  11.834  69.165  1.00  0.00     0.314 C  
BRANCH   9  10
HETATM   10  C   UNL     1      -9.939  12.132  67.701  1.00  0.00    -0.197 C  
HETATM   11  C   UNL     1     -11.171  11.310  67.308  1.00  0.00    -0.364 C  
BRANCH  10  12
HETATM   12  N   UNL     1     -10.252  13.558  67.465  1.00  0.00    -0.232 NA 
HETATM   13  H   UNL     1     -10.024  13.827  66.508  1.00  0.00     0.000 HD 
BRANCH  12  14
HETATM   14  C   UNL     1     -11.643  13.899  67.790  1.00  0.00    -0.347 C  
BRANCH  14  15
HETATM   15  C   UNL     1     -11.878  15.417  68.003  1.00  0.00    -0.110 C  
HETATM   16  H   UNL     1     -12.749  16.549  69.354  1.00  0.00     0.000 HD 
HETATM   17  O   UNL     1     -12.604  15.619  69.223  1.00  0.00    -0.040 OA 
BRANCH  15  18
HETATM   18  C   UNL     1     -10.555  16.171  68.056  1.00  0.00    -0.304 A  
HETATM   19  C   UNL     1      -9.540  15.801  68.965  1.00  0.00    -0.243 A  
HETATM   20  C   UNL     1      -8.311  16.468  68.998  1.00  0.00    -0.202 A  
HETATM   21  H   UNL     1      -6.798  18.960  67.483  1.00  0.00     0.000 HD 
HETATM   22  C   UNL     1      -8.098  17.518  68.097  1.00  0.00    -0.249 A  
HETATM   23  C   UNL     1     -10.309  17.228  67.171  1.00  0.00    -0.321 A  
HETATM   24  C   UNL     1      -9.082  17.892  67.186  1.00  0.00    -0.251 A  
HETATM   25  O   UNL     1      -6.942  18.247  68.095  1.00  0.00    -0.216 OA 
BRANCH  20  26
HETATM   26  N   UNL     1      -7.277  16.097  69.878  1.00  0.00     0.110 N  
HETATM   27  H   UNL     1      -7.505  16.098  70.872  1.00  0.00     0.000 HD 
HETATM   28  O   UNL     1      -5.162  15.459  70.396  1.00  0.00    -0.122 OA 
HETATM   29  C   UNL     1      -6.005  15.736  69.550  1.00  0.00    -0.141 C  
ENDBRANCH  20  26
ENDBRANCH  15  18
ENDBRANCH  14  15
ENDBRANCH  12  14
ENDBRANCH  10  12
ENDBRANCH   9  10
ENDBRANCH   6   9
ENDBRANCH   2   3
TORSDOF 8
ENDMDL
MODEL      413
REMARK 921   NORMALIZED FREE ENERGY PREDICTED BY IDOCK:   -2.02 KCAL/MOL
REMARK 922        TOTAL FREE ENERGY PREDICTED BY IDOCK:   -4.45 KCAL/MOL
REMARK 923 INTER-LIGAND FREE ENERGY PREDICTED BY IDOCK:   -4.49 KCAL/MOL
REMARK 924 INTRA-LIGAND FREE ENERGY PREDICTED BY IDOCK:    0.04 KCAL/MOL
REMARK 927      BINDING AFFINITY PREDICTED BY RF-SCORE:    0.00 PKD
ROOT
HETATM    1  C   UNL     1     -10.280   4.444  73.547  1.00  0.00    -0.164 C  
HETATM    2  O   UNL     1     -10.837   5.746  73.704  1.00  0.00    -0.270 OA 
ENDROOT
BRANCH   2   3
HETATM    3  C   UNL     1     -10.416   6.662  72.780  1.00  0.00    -0.217 A  
HETATM    4  C   UNL     1      -9.807   7.807  73.293  1.00  0.00    -0.362 A  
HETATM    5  C   UNL     1      -9.382   8.825  72.435  1.00  0.00    -0.159 A  
HETATM    6  C   UNL     1      -9.533   8.692  71.049  1.00  0.00    -0.261 A  
HETATM    7  C   UNL     1     -10.536   6.508  71.401  1.00  0.00    -0.246 A  
HETATM    8  C   UNL     1     -10.100   7.518  70.541  1.00  0.00    -0.188 A  
BRANCH   6   9
HETATM    9  C   UNL     1      -9.212   9.829  70.108  1.00  0.00    -0.253 C  
BRANCH   9  10
HETATM   10  C   UNL     1      -7.764  10.373  70.159  1.00  0.00     0.151 C  
HETATM   11  C   UNL     1      -6.755   9.219  70.156  1.00  0.00    -0.059 C  
BRANCH  10  12
HETATM   12  N   UNL     1      -7.438  11.262  69.023  1.00  0.00    -0.168 NA 
HETATM   13  H   UNL     1      -8.250  11.815  68.749  1.00  0.00     0.000 HD 
BRANCH  12  14
HETATM   14  C   UNL     1      -6.279  12.124  69.286  1.00  0.00    -0.097 C  
BRANCH  14  15
HETATM   15  C   UNL     1      -6.646  13.617  69.491  1.00  0.00    -0.069 C  
HETATM   16  H   UNL     1      -5.676  15.322  69.592  1.00  0.00     0.000 HD 
HETATM   17  O   UNL     1      -5.451  14.408  69.466  1.00  0.00    -0.090 OA 
BRANCH  15  18
HETATM   18  C   UNL     1      -7.607  14.094  68.409  1.00  0.00    -0.130 A  
HETATM   19  C   UNL     1      -8.782  13.372  68.106  1.00  0.00    -0.179 A  
HETATM   20  C   UNL     1      -9.685  13.819  67.136  1.00  0.00    -0.244 A  
HETATM   21  H   UNL     1     -10.023  16.311  65.022  1.00  0.00     0.000 HD 
HETATM   22  C   UNL     1      -9.404  15.017  66.467  1.00  0.00    -0.281 A  
HETATM   23  C   UNL     1      -7.356  15.286  67.718  1.00  0.00    -0.181 A  
HETATM   24  C   UNL     1      -8.257  15.749  66.757  1.00  0.00    -0.302 A  
HETATM   25  O   UNL     1     -10.213  15.499  65.476  1.00  0.00    -0.339 OA 
BRANCH  20  26
HETATM   26  N   UNL     1     -10.874  13.127  66.839  1.00  0.00    -0.263 N  
HETATM   27  H   UNL     1     -11.483  13.552  66.140  1.00  0.00     0.000 HD 
HETATM   28  O   UNL     1     -12.375  11.443  67.080  1.00  0.00     0.207 OA 
HETATM   29  C   UNL     1     -11.302  11.953  67.382  1.00  0.00    -0.324 C  
ENDBRANCH  20  26
ENDBRANCH  15  18
ENDBRANCH  14  15
ENDBRANCH  12  14
ENDBRANCH  10  12
ENDBRANCH   9  10
ENDBRANCH   6   9
ENDBRANCH   2   3
TORSDOF 8
ENDMDL
MODEL      414
REMARK 921   NORMALIZED FREE ENERGY PREDICTED BY IDOCK:   -2.00 KCAL/MOL
REMARK 922        TOTAL FREE ENERGY PREDICTED BY IDOCK:   -4.43 KCAL/MOL
REMARK 923 INTER-LIGAND FREE ENERGY PREDICTED BY IDOCK:   -3.79 KCAL/MOL
REMARK 924 INTRA-LIGAND FREE ENERGY PREDICTED BY IDOCK:   -0.64 KCAL/MOL
REMARK 927      BINDING AFFINITY PREDICTED BY RF-SCORE:    0.00 PKD
ROOT
HETATM    1  C   UNL     1     -10.739   1.960  63.851  1.00  0.00     0.129 C  
HETATM    2  O   UNL     1      -9.391   2.044  63.397  1.00  0.00    -0.092 OA 
ENDROOT
BRANCH   2   3
HETATM    3  C   UNL     1      -8.847   3.298  63.448  1.00  0.00    -0.092 A  
HETATM    4  C   UNL     1      -8.062   3.575  64.566  1.00  0.00    -0.086 A  
HETATM    5  C   UNL     1      -7.496   4.841  64.736  1.00  0.00    -0.072 A  
HETATM    6  C   UNL     1      -7.686   5.836  63.769  1.00  0.00    -0.097 A  
HETATM    7  C   UNL     1      -9.009   4.271  62.466  1.00  0.00    -0.113 A  
HETATM    8  C   UNL     1      -8.435   5.534  62.626  1.00  0.00    -0.075 A  
BRANCH   6   9
HETATM    9  C   UNL     1      -7.208   7.251  63.989  1.00  0.00    -0.077 C  
BRANCH   9  10
HETATM   10  C   UNL     1      -7.232   7.763  65.450  1.00  0.00    -0.068 C  
HETATM   11  C   UNL     1      -6.762   9.220  65.518  1.00  0.00    -0.073 C  
BRANCH  10  12
HETATM   12  N   UNL     1      -8.574   7.692  66.067  1.00  0.00    -0.146 NA 
HETATM   13  H   UNL     1      -8.533   7.237  66.979  1.00  0.00     0.000 HD 
BRANCH  12  14
HETATM   14  C   UNL     1      -9.230   9.003  66.163  1.00  0.00    -0.216 C  
BRANCH  14  15
HETATM   15  C   UNL     1     -10.114   9.166  67.427  1.00  0.00    -0.230 C  
HETATM   16  H   UNL     1     -10.027   8.609  69.309  1.00  0.00     0.000 HD 
HETATM   17  O   UNL     1      -9.485   8.509  68.535  1.00  0.00    -0.142 OA 
BRANCH  15  18
HETATM   18  C   UNL     1     -10.332  10.639  67.751  1.00  0.00    -0.239 A  
HETATM   19  C   UNL     1      -9.243  11.496  68.018  1.00  0.00    -0.175 A  
HETATM   20  C   UNL     1      -9.432  12.856  68.287  1.00  0.00    -0.206 A  
HETATM   21  H   UNL     1     -11.897  15.010  68.567  1.00  0.00     0.000 HD 
HETATM   22  C   UNL     1     -10.738  13.361  68.278  1.00  0.00    -0.258 A  
HETATM   23  C   UNL     1     -11.625  11.177  67.754  1.00  0.00    -0.303 A  
HETATM   24  C   UNL     1     -11.825  12.535  68.007  1.00  0.00    -0.382 A  
HETATM   25  O   UNL     1     -11.011  14.668  68.573  1.00  0.00    -0.237 OA 
BRANCH  20  26
HETATM   26  N   UNL     1      -8.357  13.732  68.528  1.00  0.00    -0.232 N  
HETATM   27  H   UNL     1      -8.173  13.965  69.504  1.00  0.00     0.000 HD 
HETATM   28  O   UNL     1      -6.642  15.084  67.912  1.00  0.00    -0.128 OA 
HETATM   29  C   UNL     1      -7.536  14.303  67.603  1.00  0.00    -0.179 C  
ENDBRANCH  20  26
ENDBRANCH  15  18
ENDBRANCH  14  15
ENDBRANCH  12  14
ENDBRANCH  10  12
ENDBRANCH   9  10
ENDBRANCH   6   9
ENDBRANCH   2   3
TORSDOF 8
ENDMDL
MODEL      415
REMARK 921   NORMALIZED FREE ENERGY PREDICTED BY IDOCK:   -1.95 KCAL/MOL
REMARK 922        TOTAL FREE ENERGY PREDICTED BY IDOCK:   -4.35 KCAL/MOL
REMARK 923 INTER-LIGAND FREE ENERGY PREDICTED BY IDOCK:   -3.88 KCAL/MOL
REMARK 924 INTRA-LIGAND FREE ENERGY PREDICTED BY IDOCK:   -0.47 KCAL/MOL
REMARK 927      BINDING AFFINITY PREDICTED BY RF-SCORE:    0.00 PKD
ROOT
HETATM    1  C   UNL     1      -9.404   2.347  65.225  1.00  0.00    -0.046 C  
HETATM    2  O   UNL     1      -8.294   2.699  66.045  1.00  0.00    -0.085 OA 
ENDROOT
BRANCH   2   3
HETATM    3  C   UNL     1      -8.446   3.863  66.745  1.00  0.00    -0.105 A  
HETATM    4  C   UNL     1      -8.458   5.033  65.986  1.00  0.00    -0.116 A  
HETATM    5  C   UNL     1      -8.565   6.279  66.608  1.00  0.00    -0.119 A  
HETATM    6  C   UNL     1      -8.693   6.365  68.001  1.00  0.00    -0.115 A  
HETATM    7  C   UNL     1      -8.610   3.941  68.126  1.00  0.00    -0.113 A  
HETATM    8  C   UNL     1      -8.730   5.184  68.751  1.00  0.00    -0.092 A  
BRANCH   6   9
HETATM    9  C   UNL     1      -8.669   7.696  68.714  1.00  0.00    -0.128 C  
BRANCH   9  10
HETATM   10  C   UNL     1      -7.315   8.446  68.719  1.00  0.00    -0.087 C  
HETATM   11  C   UNL     1      -6.161   7.475  68.445  1.00  0.00    -0.036 C  
BRANCH  10  12
HETATM   12  N   UNL     1      -7.246   9.526  67.712  1.00  0.00    -0.082 NA 
HETATM   13  H   UNL     1      -7.984   9.422  67.015  1.00  0.00     0.000 HD 
BRANCH  12  14
HETATM   14  C   UNL     1      -7.274  10.868  68.309  1.00  0.00    -0.084 C  
BRANCH  14  15
HETATM   15  C   UNL     1      -7.540  12.001  67.284  1.00  0.00    -0.157 C  
HETATM   16  H   UNL     1      -7.979  12.119  65.372  1.00  0.00     0.000 HD 
HETATM   17  O   UNL     1      -7.816  11.425  66.000  1.00  0.00    -0.032 OA 
BRANCH  15  18
HETATM   18  C   UNL     1      -8.711  12.870  67.726  1.00  0.00    -0.188 A  
HETATM   19  C   UNL     1      -9.810  12.317  68.417  1.00  0.00    -0.199 A  
HETATM   20  C   UNL     1     -10.875  13.113  68.854  1.00  0.00    -0.204 A  
HETATM   21  H   UNL     1     -11.813  16.260  68.776  1.00  0.00     0.000 HD 
HETATM   22  C   UNL     1     -10.827  14.488  68.597  1.00  0.00    -0.251 A  
HETATM   23  C   UNL     1      -8.697  14.249  67.483  1.00  0.00    -0.204 A  
HETATM   24  C   UNL     1      -9.747  15.055  67.925  1.00  0.00    -0.212 A  
HETATM   25  O   UNL     1     -11.846  15.327  68.951  1.00  0.00    -0.338 OA 
BRANCH  20  26
HETATM   26  N   UNL     1     -11.967  12.584  69.567  1.00  0.00    -0.293 N  
HETATM   27  H   UNL     1     -12.725  13.232  69.782  1.00  0.00     0.000 HD 
HETATM   28  O   UNL     1     -13.101  10.945  70.651  1.00  0.00    -0.246 OA 
HETATM   29  C   UNL     1     -12.123  11.303  70.004  1.00  0.00    -0.348 C  
ENDBRANCH  20  26
ENDBRANCH  15  18
ENDBRANCH  14  15
ENDBRANCH  12  14
ENDBRANCH  10  12
ENDBRANCH   9  10
ENDBRANCH   6   9
ENDBRANCH   2   3
TORSDOF 8
ENDMDL
MODEL      416
REMARK 921   NORMALIZED FREE ENERGY PREDICTED BY IDOCK:   -1.85 KCAL/MOL
REMARK 922        TOTAL FREE ENERGY PREDICTED BY IDOCK:   -4.21 KCAL/MOL
REMARK 923 INTER-LIGAND FREE ENERGY PREDICTED BY IDOCK:   -3.54 KCAL/MOL
REMARK 924 INTRA-LIGAND FREE ENERGY PREDICTED BY IDOCK:   -0.66 KCAL/MOL
REMARK 927      BINDING AFFINITY PREDICTED BY RF-SCORE:    0.00 PKD
ROOT
HETATM    1  C   UNL     1      -6.902  14.233  69.352  1.00  0.00    -0.122 C  
HETATM    2  O   UNL     1      -5.949  13.626  68.485  1.00  0.00    -0.080 OA 
ENDROOT
BRANCH   2   3
HETATM    3  C   UNL     1      -6.443  12.612  67.712  1.00  0.00    -0.128 A  
HETATM    4  C   UNL     1      -5.517  11.964  66.895  1.00  0.00    -0.096 A  
HETATM    5  C   UNL     1      -5.928  10.943  66.034  1.00  0.00    -0.133 A  
HETATM    6  C   UNL     1      -7.269  10.538  66.005  1.00  0.00    -0.137 A  
HETATM    7  C   UNL     1      -7.770  12.190  67.714  1.00  0.00    -0.139 A  
HETATM    8  C   UNL     1      -8.181  11.161  66.864  1.00  0.00    -0.149 A  
BRANCH   6   9
HETATM    9  C   UNL     1      -7.769   9.539  64.990  1.00  0.00    -0.114 C  
BRANCH   9  10
HETATM   10  C   UNL     1      -7.498   8.047  65.306  1.00  0.00    -0.080 C  
HETATM   11  C   UNL     1      -6.264   7.552  64.545  1.00  0.00    -0.041 C  
BRANCH  10  12
HETATM   12  N   UNL     1      -7.275   7.791  66.746  1.00  0.00    -0.086 NA 
HETATM   13  H   UNL     1      -7.848   8.411  67.319  1.00  0.00     0.000 HD 
BRANCH  12  14
HETATM   14  C   UNL     1      -7.489   6.386  67.116  1.00  0.00    -0.084 C  
BRANCH  14  15
HETATM   15  C   UNL     1      -8.978   6.026  67.361  1.00  0.00    -0.108 C  
HETATM   16  H   UNL     1     -10.378   5.028  66.409  1.00  0.00     0.000 HD 
HETATM   17  O   UNL     1      -9.466   5.249  66.259  1.00  0.00    -0.145 OA 
BRANCH  15  18
HETATM   18  C   UNL     1      -9.143   5.247  68.660  1.00  0.00    -0.129 A  
HETATM   19  C   UNL     1      -9.171   5.906  69.908  1.00  0.00    -0.163 A  
HETATM   20  C   UNL     1      -9.353   5.201  71.103  1.00  0.00    -0.148 A  
HETATM   21  H   UNL     1      -9.767   2.105  72.118  1.00  0.00     0.000 HD 
HETATM   22  C   UNL     1      -9.517   3.813  71.038  1.00  0.00    -0.169 A  
HETATM   23  C   UNL     1      -9.307   3.856  68.633  1.00  0.00    -0.227 A  
HETATM   24  C   UNL     1      -9.502   3.145  69.817  1.00  0.00    -0.198 A  
HETATM   25  O   UNL     1      -9.656   3.047  72.162  1.00  0.00    -0.119 OA 
BRANCH  20  26
HETATM   26  N   UNL     1      -9.410   5.844  72.354  1.00  0.00    -0.144 N  
HETATM   27  H   UNL     1      -8.532   5.920  72.865  1.00  0.00     0.000 HD 
HETATM   28  O   UNL     1     -10.465   6.888  74.070  1.00  0.00    -0.374 OA 
HETATM   29  C   UNL     1     -10.511   6.375  72.957  1.00  0.00    -0.230 C  
ENDBRANCH  20  26
ENDBRANCH  15  18
ENDBRANCH  14  15
ENDBRANCH  12  14
ENDBRANCH  10  12
ENDBRANCH   9  10
ENDBRANCH   6   9
ENDBRANCH   2   3
TORSDOF 8
ENDMDL
MODEL      417
REMARK 921   NORMALIZED FREE ENERGY PREDICTED BY IDOCK:   -1.80 KCAL/MOL
REMARK 922        TOTAL FREE ENERGY PREDICTED BY IDOCK:   -4.14 KCAL/MOL
REMARK 923 INTER-LIGAND FREE ENERGY PREDICTED BY IDOCK:   -3.51 KCAL/MOL
REMARK 924 INTRA-LIGAND FREE ENERGY PREDICTED BY IDOCK:   -0.63 KCAL/MOL
REMARK 927      BINDING AFFINITY PREDICTED BY RF-SCORE:    0.00 PKD
ROOT
HETATM    1  C   UNL     1      -9.885  12.048  65.614  1.00  0.00    -0.243 C  
HETATM    2  O   UNL     1      -8.555  12.076  66.124  1.00  0.00    -0.052 OA 
ENDROOT
BRANCH   2   3
HETATM    3  C   UNL     1      -7.963  10.850  66.245  1.00  0.00    -0.161 A  
HETATM    4  C   UNL     1      -8.805   9.750  66.093  1.00  0.00    -0.162 A  
HETATM    5  C   UNL     1      -8.307   8.453  66.242  1.00  0.00    -0.123 A  
HETATM    6  C   UNL     1      -6.949   8.243  66.514  1.00  0.00    -0.068 A  
HETATM    7  C   UNL     1      -6.605  10.647  66.479  1.00  0.00    -0.108 A  
HETATM    8  C   UNL     1      -6.101   9.352  66.616  1.00  0.00    -0.064 A  
BRANCH   6   9
HETATM    9  C   UNL     1      -6.409   6.866  66.818  1.00  0.00    -0.045 C  
BRANCH   9  10
HETATM   10  C   UNL     1      -7.447   5.718  66.865  1.00  0.00    -0.084 C  
HETATM   11  C   UNL     1      -6.987   4.542  65.997  1.00  0.00    -0.066 C  
BRANCH  10  12
HETATM   12  N   UNL     1      -7.685   5.207  68.232  1.00  0.00    -0.083 NA 
HETATM   13  H   UNL     1      -7.975   5.959  68.857  1.00  0.00     0.000 HD 
BRANCH  12  14
HETATM   14  C   UNL     1      -8.643   4.095  68.268  1.00  0.00    -0.095 C  
BRANCH  14  15
HETATM   15  C   UNL     1      -9.669   4.194  69.426  1.00  0.00    -0.163 C  
HETATM   16  H   UNL     1      -9.845   3.461  71.241  1.00  0.00     0.000 HD 
HETATM   17  O   UNL     1      -9.216   3.400  70.532  1.00  0.00    -0.112 OA 
BRANCH  15  18
HETATM   18  C   UNL     1      -9.855   5.641  69.867  1.00  0.00    -0.250 A  
HETATM   19  C   UNL     1      -8.870   6.302  70.633  1.00  0.00    -0.144 A  
HETATM   20  C   UNL     1      -9.019   7.640  71.015  1.00  0.00    -0.146 A  
HETATM   21  H   UNL     1     -11.195  10.081  70.709  1.00  0.00     0.000 HD 
HETATM   22  C   UNL     1     -10.172   8.323  70.613  1.00  0.00    -0.193 A  
HETATM   23  C   UNL     1     -10.998   6.354  69.485  1.00  0.00    -0.421 A  
HETATM   24  C   UNL     1     -11.150   7.692  69.849  1.00  0.00    -0.160 A  
HETATM   25  O   UNL     1     -10.413   9.617  70.982  1.00  0.00    -0.304 OA 
BRANCH  20  26
HETATM   26  N   UNL     1      -8.037   8.324  71.756  1.00  0.00    -0.130 N  
HETATM   27  H   UNL     1      -8.267   9.274  72.046  1.00  0.00     0.000 HD 
HETATM   28  O   UNL     1      -6.008   8.545  72.747  1.00  0.00    -0.067 OA 
HETATM   29  C   UNL     1      -6.811   7.858  72.127  1.00  0.00    -0.065 C  
ENDBRANCH  20  26
ENDBRANCH  15  18
ENDBRANCH  14  15
ENDBRANCH  12  14
ENDBRANCH  10  12
ENDBRANCH   9  10
ENDBRANCH   6   9
ENDBRANCH   2   3
TORSDOF 8
ENDMDL
MODEL      418
REMARK 921   NORMALIZED FREE ENERGY PREDICTED BY IDOCK:   -1.57 KCAL/MOL
REMARK 922        TOTAL FREE ENERGY PREDICTED BY IDOCK:   -3.80 KCAL/MOL
REMARK 923 INTER-LIGAND FREE ENERGY PREDICTED BY IDOCK:   -2.78 KCAL/MOL
REMARK 924 INTRA-LIGAND FREE ENERGY PREDICTED BY IDOCK:   -1.02 KCAL/MOL
REMARK 927      BINDING AFFINITY PREDICTED BY RF-SCORE:    0.00 PKD
ROOT
HETATM    1  C   UNL     1     -10.654  19.870  70.620  1.00  0.00     2.029 C  
HETATM    2  O   UNL     1     -10.947  20.234  69.274  1.00  0.00     0.560 OA 
ENDROOT
BRANCH   2   3
HETATM    3  C   UNL     1     -10.119  19.679  68.339  1.00  0.00    -0.449 A  
HETATM    4  C   UNL     1      -8.857  19.299  68.792  1.00  0.00    -0.387 A  
HETATM    5  C   UNL     1      -7.920  18.762  67.905  1.00  0.00    -0.282 A  
HETATM    6  C   UNL     1      -8.250  18.569  66.558  1.00  0.00    -0.299 A  
HETATM    7  C   UNL     1     -10.466  19.455  67.008  1.00  0.00    -0.571 A  
HETATM    8  C   UNL     1      -9.537  18.907  66.122  1.00  0.00    -0.266 A  
BRANCH   6   9
HETATM    9  C   UNL     1      -7.219  18.123  65.549  1.00  0.00     0.035 C  
BRANCH   9  10
HETATM   10  C   UNL     1      -6.263  16.992  66.001  1.00  0.00     0.379 C  
HETATM   11  C   UNL     1      -5.263  17.516  67.037  1.00  0.00    -0.166 C  
BRANCH  10  12
HETATM   12  N   UNL     1      -6.970  15.838  66.596  1.00  0.00    -0.193 NA 
HETATM   13  H   UNL     1      -6.936  15.030  65.976  1.00  0.00     0.000 HD 
BRANCH  12  14
HETATM   14  C   UNL     1      -6.476  15.494  67.936  1.00  0.00    -0.154 C  
BRANCH  14  15
HETATM   15  C   UNL     1      -7.537  14.807  68.834  1.00  0.00    -0.144 C  
HETATM   16  H   UNL     1      -8.364  15.153  70.582  1.00  0.00     0.000 HD 
HETATM   17  O   UNL     1      -7.715  15.574  70.032  1.00  0.00    -0.032 OA 
BRANCH  15  18
HETATM   18  C   UNL     1      -8.866  14.673  68.101  1.00  0.00    -0.173 A  
HETATM   19  C   UNL     1      -9.134  13.563  67.271  1.00  0.00    -0.225 A  
HETATM   20  C   UNL     1     -10.363  13.417  66.619  1.00  0.00    -0.269 A  
HETATM   21  H   UNL     1     -13.213  15.022  66.310  1.00  0.00     0.000 HD 
HETATM   22  C   UNL     1     -11.340  14.401  66.813  1.00  0.00    -0.352 A  
HETATM   23  C   UNL     1      -9.866  15.639  68.270  1.00  0.00    -0.209 A  
HETATM   24  C   UNL     1     -11.100  15.498  67.635  1.00  0.00    -0.311 A  
HETATM   25  O   UNL     1     -12.550  14.355  66.178  1.00  0.00    -0.375 OA 
BRANCH  20  26
HETATM   26  N   UNL     1     -10.658  12.305  65.809  1.00  0.00    -0.247 N  
HETATM   27  H   UNL     1     -11.082  11.504  66.275  1.00  0.00     0.000 HD 
HETATM   28  O   UNL     1     -10.701  11.152  63.855  1.00  0.00    -0.376 OA 
HETATM   29  C   UNL     1     -10.439  12.180  64.469  1.00  0.00    -0.303 C  
ENDBRANCH  20  26
ENDBRANCH  15  18
ENDBRANCH  14  15
ENDBRANCH  12  14
ENDBRANCH  10  12
ENDBRANCH   9  10
ENDBRANCH   6   9
ENDBRANCH   2   3
TORSDOF 8
ENDMDL
MODEL      419
REMARK 921   NORMALIZED FREE ENERGY PREDICTED BY IDOCK:   -1.51 KCAL/MOL
REMARK 922        TOTAL FREE ENERGY PREDICTED BY IDOCK:   -3.72 KCAL/MOL
REMARK 923 INTER-LIGAND FREE ENERGY PREDICTED BY IDOCK:   -3.17 KCAL/MOL
REMARK 924 INTRA-LIGAND FREE ENERGY PREDICTED BY IDOCK:   -0.55 KCAL/MOL
REMARK 927      BINDING AFFINITY PREDICTED BY RF-SCORE:    0.00 PKD
ROOT
HETATM    1  C   UNL     1     -10.991   2.117  64.426  1.00  0.00     0.953 C  
HETATM    2  O   UNL     1      -9.871   2.007  63.552  1.00  0.00    -0.111 OA 
ENDROOT
BRANCH   2   3
HETATM    3  C   UNL     1      -9.201   3.178  63.331  1.00  0.00    -0.095 A  
HETATM    4  C   UNL     1      -7.961   3.297  63.957  1.00  0.00    -0.082 A  
HETATM    5  C   UNL     1      -7.216   4.471  63.831  1.00  0.00    -0.050 A  
HETATM    6  C   UNL     1      -7.692   5.531  63.048  1.00  0.00    -0.078 A  
HETATM    7  C   UNL     1      -9.663   4.213  62.522  1.00  0.00    -0.139 A  
HETATM    8  C   UNL     1      -8.915   5.383  62.383  1.00  0.00     0.041 A  
BRANCH   6   9
HETATM    9  C   UNL     1      -6.980   6.862  63.004  1.00  0.00    -0.053 C  
BRANCH   9  10
HETATM   10  C   UNL     1      -6.412   7.379  64.349  1.00  0.00    -0.040 C  
HETATM   11  C   UNL     1      -5.542   8.620  64.123  1.00  0.00    -0.064 C  
BRANCH  10  12
HETATM   12  N   UNL     1      -7.466   7.736  65.324  1.00  0.00    -0.078 NA 
HETATM   13  H   UNL     1      -7.059   8.132  66.171  1.00  0.00     0.000 HD 
BRANCH  12  14
HETATM   14  C   UNL     1      -8.484   8.633  64.761  1.00  0.00    -0.149 C  
BRANCH  14  15
HETATM   15  C   UNL     1      -9.261   9.442  65.832  1.00  0.00    -0.213 C  
HETATM   16  H   UNL     1     -10.810  10.651  65.858  1.00  0.00     0.000 HD 
HETATM   17  O   UNL     1     -10.334  10.155  65.203  1.00  0.00    -0.257 OA 
BRANCH  15  18
HETATM   18  C   UNL     1      -9.813   8.523  66.915  1.00  0.00    -0.310 A  
HETATM   19  C   UNL     1      -9.916   8.954  68.255  1.00  0.00    -0.201 A  
HETATM   20  C   UNL     1     -10.450   8.128  69.250  1.00  0.00    -0.214 A  
HETATM   21  H   UNL     1     -11.689   5.101  69.559  1.00  0.00     0.000 HD 
HETATM   22  C   UNL     1     -10.894   6.851  68.887  1.00  0.00    -0.207 A  
HETATM   23  C   UNL     1     -10.264   7.239  66.588  1.00  0.00    -0.232 A  
HETATM   24  C   UNL     1     -10.810   6.410  67.569  1.00  0.00    -0.438 A  
HETATM   25  O   UNL     1     -11.387   5.968  69.806  1.00  0.00    -0.409 OA 
BRANCH  20  26
HETATM   26  N   UNL     1     -10.585   8.549  70.586  1.00  0.00    -0.204 N  
HETATM   27  H   UNL     1      -9.723   8.634  71.124  1.00  0.00     0.000 HD 
HETATM   28  O   UNL     1     -11.759   9.185  72.421  1.00  0.00    -0.229 OA 
HETATM   29  C   UNL     1     -11.741   8.856  71.240  1.00  0.00    -0.306 C  
ENDBRANCH  20  26
ENDBRANCH  15  18
ENDBRANCH  14  15
ENDBRANCH  12  14
ENDBRANCH  10  12
ENDBRANCH   9  10
ENDBRANCH   6   9
ENDBRANCH   2   3
TORSDOF 8
ENDMDL
MODEL      420
REMARK 921   NORMALIZED FREE ENERGY PREDICTED BY IDOCK:   -1.49 KCAL/MOL
REMARK 922        TOTAL FREE ENERGY PREDICTED BY IDOCK:   -3.68 KCAL/MOL
REMARK 923 INTER-LIGAND FREE ENERGY PREDICTED BY IDOCK:   -4.24 KCAL/MOL
REMARK 924 INTRA-LIGAND FREE ENERGY PREDICTED BY IDOCK:    0.56 KCAL/MOL
REMARK 927      BINDING AFFINITY PREDICTED BY RF-SCORE:    0.00 PKD
ROOT
HETATM    1  C   UNL     1     -12.018  12.511  63.240  1.00  0.00    -0.426 C  
HETATM    2  O   UNL     1     -10.766  11.929  62.888  1.00  0.00    -0.178 OA 
ENDROOT
BRANCH   2   3
HETATM    3  C   UNL     1     -10.045  11.443  63.943  1.00  0.00    -0.345 A  
HETATM    4  C   UNL     1     -10.062  10.059  64.106  1.00  0.00     0.254 A  
HETATM    5  C   UNL     1      -9.393   9.464  65.178  1.00  0.00    -0.288 A  
HETATM    6  C   UNL     1      -8.671  10.251  66.085  1.00  0.00    -0.163 A  
HETATM    7  C   UNL     1      -9.298  12.227  64.820  1.00  0.00     0.338 A  
HETATM    8  C   UNL     1      -8.618  11.635  65.886  1.00  0.00     0.065 A  
BRANCH   6   9
HETATM    9  C   UNL     1      -8.056   9.657  67.329  1.00  0.00    -0.110 C  
BRANCH   9  10
HETATM   10  C   UNL     1      -7.974  10.587  68.564  1.00  0.00    -0.118 C  
HETATM   11  C   UNL     1      -6.982  11.728  68.313  1.00  0.00    -0.075 C  
BRANCH  10  12
HETATM   12  N   UNL     1      -9.276  11.190  68.923  1.00  0.00    -0.336 NA 
HETATM   13  H   UNL     1      -9.457  12.025  68.366  1.00  0.00     0.000 HD 
BRANCH  12  14
HETATM   14  C   UNL     1     -10.392  10.241  68.825  1.00  0.00    -0.195 C  
BRANCH  14  15
HETATM   15  C   UNL     1     -11.660  10.837  68.161  1.00  0.00    -0.197 C  
HETATM   16  H   UNL     1     -13.603  10.707  68.426  1.00  0.00     0.000 HD 
HETATM   17  O   UNL     1     -12.826  10.342  68.833  1.00  0.00     0.670 OA 
BRANCH  15  18
HETATM   18  C   UNL     1     -11.638  12.360  68.213  1.00  0.00    -0.384 A  
HETATM   19  C   UNL     1     -11.494  13.046  69.438  1.00  0.00    -0.323 A  
HETATM   20  C   UNL     1     -11.442  14.443  69.492  1.00  0.00    -0.288 A  
HETATM   21  H   UNL     1     -11.583  17.011  67.449  1.00  0.00     0.000 HD 
HETATM   22  C   UNL     1     -11.526  15.159  68.292  1.00  0.00    -0.336 A  
HETATM   23  C   UNL     1     -11.722  13.107  67.032  1.00  0.00    -0.431 A  
HETATM   24  C   UNL     1     -11.658  14.501  67.072  1.00  0.00    -0.402 A  
HETATM   25  O   UNL     1     -11.526  16.525  68.263  1.00  0.00    -0.283 OA 
BRANCH  20  26
HETATM   26  N   UNL     1     -11.272  15.143  70.701  1.00  0.00    -0.376 N  
HETATM   27  H   UNL     1     -10.719  14.679  71.420  1.00  0.00     0.000 HD 
HETATM   28  O   UNL     1     -11.591  16.889  72.115  1.00  0.00    -0.194 OA 
HETATM   29  C   UNL     1     -11.767  16.374  71.016  1.00  0.00    -0.122 C  
ENDBRANCH  20  26
ENDBRANCH  15  18
ENDBRANCH  14  15
ENDBRANCH  12  14
ENDBRANCH  10  12
ENDBRANCH   9  10
ENDBRANCH   6   9
ENDBRANCH   2   3
TORSDOF 8
ENDMDL
MODEL      421
REMARK 921   NORMALIZED FREE ENERGY PREDICTED BY IDOCK:   -0.67 KCAL/MOL
REMARK 922        TOTAL FREE ENERGY PREDICTED BY IDOCK:   -2.47 KCAL/MOL
REMARK 923 INTER-LIGAND FREE ENERGY PREDICTED BY IDOCK:   -1.94 KCAL/MOL
REMARK 924 INTRA-LIGAND FREE ENERGY PREDICTED BY IDOCK:   -0.53 KCAL/MOL
REMARK 927      BINDING AFFINITY PREDICTED BY RF-SCORE:    0.00 PKD
ROOT
HETATM    1  C   UNL     1     -10.264  12.929  67.436  1.00  0.00    -0.230 C  
HETATM    2  O   UNL     1      -9.788  11.831  68.209  1.00  0.00    -0.187 OA 
ENDROOT
BRANCH   2   3
HETATM    3  C   UNL     1      -9.843  10.620  67.578  1.00  0.00    -0.168 A  
HETATM    4  C   UNL     1     -11.069   9.958  67.638  1.00  0.00    -0.170 A  
HETATM    5  C   UNL     1     -11.218   8.694  67.062  1.00  0.00     0.918 A  
HETATM    6  C   UNL     1     -10.146   8.092  66.390  1.00  0.00    -0.174 A  
HETATM    7  C   UNL     1      -8.785  10.042  66.880  1.00  0.00    -0.135 A  
HETATM    8  C   UNL     1      -8.934   8.785  66.292  1.00  0.00    -0.211 A  
BRANCH   6   9
HETATM    9  C   UNL     1     -10.232   6.673  65.881  1.00  0.00     0.722 C  
BRANCH   9  10
HETATM   10  C   UNL     1      -9.033   5.752  66.214  1.00  0.00    -0.146 C  
HETATM   11  C   UNL     1      -8.133   5.576  64.986  1.00  0.00    -0.119 C  
BRANCH  10  12
HETATM   12  N   UNL     1      -8.196   6.267  67.319  1.00  0.00    -0.109 NA 
HETATM   13  H   UNL     1      -8.760   6.787  67.991  1.00  0.00     0.000 HD 
BRANCH  12  14
HETATM   14  C   UNL     1      -7.421   5.213  67.988  1.00  0.00    -0.076 C  
BRANCH  14  15
HETATM   15  C   UNL     1      -7.101   5.523  69.473  1.00  0.00    -0.064 C  
HETATM   16  H   UNL     1      -5.520   6.063  70.508  1.00  0.00     0.000 HD 
HETATM   17  O   UNL     1      -5.716   5.874  69.598  1.00  0.00    -0.014 OA 
BRANCH  15  18
HETATM   18  C   UNL     1      -7.973   6.660  69.992  1.00  0.00    -0.116 A  
HETATM   19  C   UNL     1      -7.606   8.009  69.798  1.00  0.00    -0.092 A  
HETATM   20  C   UNL     1      -8.416   9.059  70.244  1.00  0.00    -0.168 A  
HETATM   21  H   UNL     1     -11.260   9.497  71.829  1.00  0.00     0.000 HD 
HETATM   22  C   UNL     1      -9.619   8.744  70.888  1.00  0.00    -0.221 A  
HETATM   23  C   UNL     1      -9.181   6.382  70.643  1.00  0.00    -0.162 A  
HETATM   24  C   UNL     1     -10.004   7.421  71.081  1.00  0.00    -0.188 A  
HETATM   25  O   UNL     1     -10.444   9.710  71.391  1.00  0.00    -0.272 OA 
BRANCH  20  26
HETATM   26  N   UNL     1      -8.080  10.409  70.035  1.00  0.00    -0.338 N  
HETATM   27  H   UNL     1      -8.858  11.062  69.948  1.00  0.00     0.000 HD 
HETATM   28  O   UNL     1      -6.638  12.133  69.722  1.00  0.00    -0.091 OA 
HETATM   29  C   UNL     1      -6.829  10.942  69.938  1.00  0.00    -0.125 C  
ENDBRANCH  20  26
ENDBRANCH  15  18
ENDBRANCH  14  15
ENDBRANCH  12  14
ENDBRANCH  10  12
ENDBRANCH   9  10
ENDBRANCH   6   9
ENDBRANCH   2   3
TORSDOF 8
ENDMDL
MODEL      422
REMARK 921   NORMALIZED FREE ENERGY PREDICTED BY IDOCK:    0.04 KCAL/MOL
REMARK 922        TOTAL FREE ENERGY PREDICTED BY IDOCK:   -1.43 KCAL/MOL
REMARK 923 INTER-LIGAND FREE ENERGY PREDICTED BY IDOCK:   -1.06 KCAL/MOL
REMARK 924 INTRA-LIGAND FREE ENERGY PREDICTED BY IDOCK:   -0.37 KCAL/MOL
REMARK 927      BINDING AFFINITY PREDICTED BY RF-SCORE:    0.00 PKD
ROOT
HETATM    1  C   UNL     1     -14.235  14.029  72.032  1.00  0.00    -0.495 C  
HETATM    2  O   UNL     1     -13.755  13.696  70.732  1.00  0.00     0.176 OA 
ENDROOT
BRANCH   2   3
HETATM    3  C   UNL     1     -13.009  12.552  70.675  1.00  0.00     0.208 A  
HETATM    4  C   UNL     1     -13.703  11.361  70.880  1.00  0.00     1.369 A  
HETATM    5  C   UNL     1     -13.026  10.139  70.885  1.00  0.00    -0.432 A  
HETATM    6  C   UNL     1     -11.645  10.095  70.652  1.00  0.00    -0.429 A  
HETATM    7  C   UNL     1     -11.643  12.511  70.406  1.00  0.00     0.080 A  
HETATM    8  C   UNL     1     -10.964  11.291  70.398  1.00  0.00     0.478 A  
BRANCH   6   9
HETATM    9  C   UNL     1     -10.863   8.811  70.789  1.00  0.00    -0.282 C  
BRANCH   9  10
HETATM   10  C   UNL     1     -10.611   8.019  69.482  1.00  0.00    -0.214 C  
HETATM   11  C   UNL     1     -10.446   8.976  68.297  1.00  0.00    -0.247 C  
BRANCH  10  12
HETATM   12  N   UNL     1      -9.405   7.165  69.545  1.00  0.00    -0.149 NA 
HETATM   13  H   UNL     1      -9.498   6.359  68.927  1.00  0.00     0.000 HD 
BRANCH  12  14
HETATM   14  C   UNL     1      -8.167   7.902  69.266  1.00  0.00    -0.128 C  
BRANCH  14  15
HETATM   15  C   UNL     1      -7.108   7.073  68.493  1.00  0.00    -0.089 C  
HETATM   16  H   UNL     1      -6.496   5.206  68.476  1.00  0.00     0.000 HD 
HETATM   17  O   UNL     1      -7.145   5.714  68.949  1.00  0.00    -0.065 OA 
BRANCH  15  18
HETATM   18  C   UNL     1      -7.366   7.124  66.992  1.00  0.00    -0.089 A  
HETATM   19  C   UNL     1      -7.075   6.020  66.163  1.00  0.00    -0.067 A  
HETATM   20  C   UNL     1      -7.337   6.048  64.789  1.00  0.00    -0.074 A  
HETATM   21  H   UNL     1      -8.543   8.112  62.535  1.00  0.00     0.000 HD 
HETATM   22  C   UNL     1      -7.909   7.204  64.244  1.00  0.00    -0.111 A  
HETATM   23  C   UNL     1      -7.935   8.266  66.413  1.00  0.00    -0.096 A  
HETATM   24  C   UNL     1      -8.213   8.300  65.046  1.00  0.00    -0.160 A  
HETATM   25  O   UNL     1      -8.155   7.327  62.905  1.00  0.00    -0.127 OA 
BRANCH  20  26
HETATM   26  N   UNL     1      -7.079   4.947  63.951  1.00  0.00    -0.048 N  
HETATM   27  H   UNL     1      -7.277   5.076  62.959  1.00  0.00     0.000 HD 
HETATM   28  O   UNL     1      -6.432   2.817  63.514  1.00  0.00    -0.024 OA 
HETATM   29  C   UNL     1      -6.593   3.728  64.318  1.00  0.00    -0.042 C  
ENDBRANCH  20  26
ENDBRANCH  15  18
ENDBRANCH  14  15
ENDBRANCH  12  14
ENDBRANCH  10  12
ENDBRANCH   9  10
ENDBRANCH   6   9
ENDBRANCH   2   3
TORSDOF 8
ENDMDL
MODEL      423
REMARK 921   NORMALIZED FREE ENERGY PREDICTED BY IDOCK:    1.57 KCAL/MOL
REMARK 922        TOTAL FREE ENERGY PREDICTED BY IDOCK:    0.81 KCAL/MOL
REMARK 923 INTER-LIGAND FREE ENERGY PREDICTED BY IDOCK:    1.49 KCAL/MOL
REMARK 924 INTRA-LIGAND FREE ENERGY PREDICTED BY IDOCK:   -0.68 KCAL/MOL
REMARK 927      BINDING AFFINITY PREDICTED BY RF-SCORE:    0.00 PKD
ROOT
HETATM    1  C   UNL     1     -11.170   8.977  71.299  1.00  0.00    -0.315 C  
HETATM    2  O   UNL     1     -10.073   9.139  70.405  1.00  0.00    -0.189 OA 
ENDROOT
BRANCH   2   3
HETATM    3  C   UNL     1     -10.073  10.315  69.707  1.00  0.00    -0.203 A  
HETATM    4  C   UNL     1      -8.942  10.561  68.930  1.00  0.00    -0.175 A  
HETATM    5  C   UNL     1      -8.824  11.754  68.213  1.00  0.00    -0.172 A  
HETATM    6  C   UNL     1      -9.854  12.702  68.242  1.00  0.00    -0.227 A  
HETATM    7  C   UNL     1     -11.116  11.237  69.712  1.00  0.00    -0.238 A  
HETATM    8  C   UNL     1     -11.007  12.425  68.986  1.00  0.00    -0.247 A  
BRANCH   6   9
HETATM    9  C   UNL     1      -9.698  14.057  67.594  1.00  0.00    -0.228 C  
BRANCH   9  10
HETATM   10  C   UNL     1     -10.139  14.164  66.114  1.00  0.00    -0.313 C  
HETATM   11  C   UNL     1     -11.659  14.005  65.993  1.00  0.00    -0.362 C  
BRANCH  10  12
HETATM   12  N   UNL     1      -9.768  15.452  65.490  1.00  0.00    -0.318 NA 
HETATM   13  H   UNL     1      -9.694  15.358  64.477  1.00  0.00     0.000 HD 
BRANCH  12  14
HETATM   14  C   UNL     1     -10.680  16.546  65.850  1.00  0.00    -0.190 C  
BRANCH  14  15
HETATM   15  C   UNL     1     -10.249  17.927  65.290  1.00  0.00     0.666 C  
HETATM   16  H   UNL     1     -11.146  19.490  64.508  1.00  0.00     0.000 HD 
HETATM   17  O   UNL     1     -11.410  18.644  64.851  1.00  0.00    -0.012 OA 
BRANCH  15  18
HETATM   18  C   UNL     1      -9.508  18.735  66.348  1.00  0.00    -0.336 A  
HETATM   19  C   UNL     1      -9.838  18.624  67.716  1.00  0.00    -0.357 A  
HETATM   20  C   UNL     1      -9.141  19.340  68.696  1.00  0.00    -0.380 A  
HETATM   21  H   UNL     1      -6.679  21.503  68.909  1.00  0.00     0.000 HD 
HETATM   22  C   UNL     1      -8.091  20.173  68.293  1.00  0.00    -0.077 A  
HETATM   23  C   UNL     1      -8.454  19.580  65.979  1.00  0.00    -0.247 A  
HETATM   24  C   UNL     1      -7.744  20.289  66.950  1.00  0.00    -0.353 A  
HETATM   25  O   UNL     1      -7.391  20.938  69.183  1.00  0.00     0.717 OA 
BRANCH  20  26
HETATM   26  N   UNL     1      -9.438  19.222  70.067  1.00  0.00     0.608 N  
HETATM   27  H   UNL     1      -8.755  19.613  70.714  1.00  0.00     0.000 HD 
HETATM   28  O   UNL     1     -10.692  18.559  71.838  1.00  0.00     2.098 OA 
HETATM   29  C   UNL     1     -10.539  18.643  70.625  1.00  0.00     2.335 C  
ENDBRANCH  20  26
ENDBRANCH  15  18
ENDBRANCH  14  15
ENDBRANCH  12  14
ENDBRANCH  10  12
ENDBRANCH   9  10
ENDBRANCH   6   9
ENDBRANCH   2   3
TORSDOF 8
ENDMDL
MODEL      424
REMARK 921   NORMALIZED FREE ENERGY PREDICTED BY IDOCK:    2.73 KCAL/MOL
REMARK 922        TOTAL FREE ENERGY PREDICTED BY IDOCK:    2.52 KCAL/MOL
REMARK 923 INTER-LIGAND FREE ENERGY PREDICTED BY IDOCK:   -1.31 KCAL/MOL
REMARK 924 INTRA-LIGAND FREE ENERGY PREDICTED BY IDOCK:    3.83 KCAL/MOL
REMARK 927      BINDING AFFINITY PREDICTED BY RF-SCORE:    0.00 PKD
ROOT
HETATM    1  C   UNL     1     -12.012   6.838  66.694  1.00  0.00     3.083 C  
HETATM    2  O   UNL     1     -10.918   5.927  66.761  1.00  0.00    -0.299 OA 
ENDROOT
BRANCH   2   3
HETATM    3  C   UNL     1     -10.526   5.597  68.029  1.00  0.00    -0.200 A  
HETATM    4  C   UNL     1      -9.448   4.718  68.122  1.00  0.00    -0.186 A  
HETATM    5  C   UNL     1      -8.997   4.283  69.371  1.00  0.00    -0.155 A  
HETATM    6  C   UNL     1      -9.602   4.752  70.544  1.00  0.00    -0.258 A  
HETATM    7  C   UNL     1     -11.108   6.095  69.192  1.00  0.00    -0.448 A  
HETATM    8  C   UNL     1     -10.651   5.672  70.442  1.00  0.00    -0.364 A  
BRANCH   6   9
HETATM    9  C   UNL     1      -9.232   4.196  71.899  1.00  0.00    -0.176 C  
BRANCH   9  10
HETATM   10  C   UNL     1     -10.123   4.635  73.086  1.00  0.00    -0.158 C  
HETATM   11  C   UNL     1     -11.508   3.986  72.988  1.00  0.00    -0.020 C  
BRANCH  10  12
HETATM   12  N   UNL     1      -9.550   4.282  74.403  1.00  0.00    -0.109 NA 
HETATM   13  H   UNL     1      -9.773   3.319  74.651  1.00  0.00     0.000 HD 
BRANCH  12  14
HETATM   14  C   UNL     1      -8.103   4.522  74.479  1.00  0.00    -0.091 C  
BRANCH  14  15
HETATM   15  C   UNL     1      -7.723   6.025  74.546  1.00  0.00    -0.096 C  
HETATM   16  H   UNL     1      -6.074   7.085  74.419  1.00  0.00     0.000 HD 
HETATM   17  O   UNL     1      -6.306   6.165  74.377  1.00  0.00    -0.068 OA 
BRANCH  15  18
HETATM   18  C   UNL     1      -8.455   6.819  73.471  1.00  0.00    -0.136 A  
HETATM   19  C   UNL     1      -7.804   7.209  72.281  1.00  0.00    -0.092 A  
HETATM   20  C   UNL     1      -8.478   7.912  71.276  1.00  0.00    -0.117 A  
HETATM   21  H   UNL     1     -11.464   9.148  70.688  1.00  0.00     0.000 HD 
HETATM   22  C   UNL     1      -9.830   8.219  71.470  1.00  0.00    -0.189 A  
HETATM   23  C   UNL     1      -9.807   7.146  73.634  1.00  0.00    -0.342 A  
HETATM   24  C   UNL     1     -10.493   7.835  72.632  1.00  0.00    -0.363 A  
HETATM   25  O   UNL     1     -10.546   8.940  70.557  1.00  0.00    -0.201 OA 
BRANCH  20  26
HETATM   26  N   UNL     1      -7.853   8.286  70.072  1.00  0.00    -0.101 N  
HETATM   27  H   UNL     1      -7.090   8.959  70.147  1.00  0.00     0.000 HD 
HETATM   28  O   UNL     1      -7.571   8.262  67.821  1.00  0.00    -0.098 OA 
HETATM   29  C   UNL     1      -8.155   7.850  68.817  1.00  0.00    -0.126 C  
ENDBRANCH  20  26
ENDBRANCH  15  18
ENDBRANCH  14  15
ENDBRANCH  12  14
ENDBRANCH  10  12
ENDBRANCH   9  10
ENDBRANCH   6   9
ENDBRANCH   2   3
TORSDOF 8
ENDMDL
MODEL      425
REMARK 921   NORMALIZED FREE ENERGY PREDICTED BY IDOCK:    3.45 KCAL/MOL
REMARK 922        TOTAL FREE ENERGY PREDICTED BY IDOCK:    3.57 KCAL/MOL
REMARK 923 INTER-LIGAND FREE ENERGY PREDICTED BY IDOCK:   -0.77 KCAL/MOL
REMARK 924 INTRA-LIGAND FREE ENERGY PREDICTED BY IDOCK:    4.33 KCAL/MOL
REMARK 927      BINDING AFFINITY PREDICTED BY RF-SCORE:    0.00 PKD
ROOT
HETATM    1  C   UNL     1      -7.519   5.710  72.975  1.00  0.00    -0.092 C  
HETATM    2  O   UNL     1      -7.573   7.118  72.764  1.00  0.00    -0.083 OA 
ENDROOT
BRANCH   2   3
HETATM    3  C   UNL     1      -7.313   7.514  71.481  1.00  0.00    -0.075 A  
HETATM    4  C   UNL     1      -8.288   7.196  70.537  1.00  0.00    -0.131 A  
HETATM    5  C   UNL     1      -8.099   7.517  69.190  1.00  0.00    -0.123 A  
HETATM    6  C   UNL     1      -6.942   8.191  68.779  1.00  0.00    -0.067 A  
HETATM    7  C   UNL     1      -6.178   8.216  71.084  1.00  0.00    -0.034 A  
HETATM    8  C   UNL     1      -5.991   8.550  69.742  1.00  0.00    -0.028 A  
BRANCH   6   9
HETATM    9  C   UNL     1      -6.644   8.428  67.318  1.00  0.00    -0.059 C  
BRANCH   9  10
HETATM   10  C   UNL     1      -6.572   7.168  66.421  1.00  0.00    -0.052 C  
HETATM   11  C   UNL     1      -5.138   6.629  66.365  1.00  0.00    -0.017 C  
BRANCH  10  12
HETATM   12  N   UNL     1      -7.449   6.072  66.889  1.00  0.00    -0.083 NA 
HETATM   13  H   UNL     1      -6.964   5.479  67.562  1.00  0.00     0.000 HD 
BRANCH  12  14
HETATM   14  C   UNL     1      -8.723   6.554  67.437  1.00  0.00    -0.117 C  
BRANCH  14  15
HETATM   15  C   UNL     1      -9.774   5.434  67.649  1.00  0.00    -0.134 C  
HETATM   16  H   UNL     1      -9.745   3.495  67.969  1.00  0.00     0.000 HD 
HETATM   17  O   UNL     1      -9.101   4.182  67.839  1.00  0.00    -0.118 OA 
BRANCH  15  18
HETATM   18  C   UNL     1     -10.657   5.737  68.854  1.00  0.00    -0.337 A  
HETATM   19  C   UNL     1     -10.451   5.090  70.091  1.00  0.00    -0.235 A  
HETATM   20  C   UNL     1     -11.237   5.385  71.210  1.00  0.00     0.123 A  
HETATM   21  H   UNL     1     -13.760   7.324  72.028  1.00  0.00     0.000 HD 
HETATM   22  C   UNL     1     -12.240   6.353  71.082  1.00  0.00    -0.066 A  
HETATM   23  C   UNL     1     -11.671   6.698  68.761  1.00  0.00     0.380 A  
HETATM   24  C   UNL     1     -12.453   7.010  69.874  1.00  0.00     0.693 A  
HETATM   25  O   UNL     1     -13.079   6.667  72.115  1.00  0.00    -0.169 OA 
BRANCH  20  26
HETATM   26  N   UNL     1     -11.030   4.770  72.459  1.00  0.00    -0.147 N  
HETATM   27  H   UNL     1     -10.460   5.286  73.129  1.00  0.00     0.000 HD 
HETATM   28  O   UNL     1     -11.242   3.094  73.974  1.00  0.00    -0.147 OA 
HETATM   29  C   UNL     1     -11.506   3.562  72.872  1.00  0.00     0.350 C  
ENDBRANCH  20  26
ENDBRANCH  15  18
ENDBRANCH  14  15
ENDBRANCH  12  14
ENDBRANCH  10  12
ENDBRANCH   9  10
ENDBRANCH   6   9
ENDBRANCH   2   3
TORSDOF 8
ENDMDL
MODEL      426
REMARK 921   NORMALIZED FREE ENERGY PREDICTED BY IDOCK:    5.81 KCAL/MOL
REMARK 922        TOTAL FREE ENERGY PREDICTED BY IDOCK:    7.04 KCAL/MOL
REMARK 923 INTER-LIGAND FREE ENERGY PREDICTED BY IDOCK:    2.33 KCAL/MOL
REMARK 924 INTRA-LIGAND FREE ENERGY PREDICTED BY IDOCK:    4.70 KCAL/MOL
REMARK 927      BINDING AFFINITY PREDICTED BY RF-SCORE:    0.00 PKD
ROOT
HETATM    1  C   UNL     1     -10.988  10.347  65.336  1.00  0.00     0.483 C  
HETATM    2  O   UNL     1     -10.012  11.083  66.067  1.00  0.00    -0.220 OA 
ENDROOT
BRANCH   2   3
HETATM    3  C   UNL     1     -10.503  11.779  67.137  1.00  0.00    -0.220 A  
HETATM    4  C   UNL     1     -11.227  11.033  68.067  1.00  0.00    -0.372 A  
HETATM    5  C   UNL     1     -11.809  11.657  69.173  1.00  0.00    -0.390 A  
HETATM    6  C   UNL     1     -11.644  13.033  69.377  1.00  0.00    -0.360 A  
HETATM    7  C   UNL     1     -10.306  13.140  67.354  1.00  0.00    -0.239 A  
HETATM    8  C   UNL     1     -10.875  13.765  68.465  1.00  0.00    -0.280 A  
BRANCH   6   9
HETATM    9  C   UNL     1     -12.374  13.759  70.482  1.00  0.00    -0.429 C  
BRANCH   9  10
HETATM   10  C   UNL     1     -11.802  15.140  70.889  1.00  0.00    -0.325 C  
HETATM   11  C   UNL     1     -10.893  15.005  72.115  1.00  0.00     0.702 C  
BRANCH  10  12
HETATM   12  N   UNL     1     -11.018  15.782  69.812  1.00  0.00    -0.286 NA 
HETATM   13  H   UNL     1     -11.631  16.246  69.142  1.00  0.00     0.000 HD 
BRANCH  12  14
HETATM   14  C   UNL     1      -9.999  16.709  70.322  1.00  0.00     0.946 C  
BRANCH  14  15
HETATM   15  C   UNL     1      -9.242  17.477  69.207  1.00  0.00     0.187 C  
HETATM   16  H   UNL     1      -7.366  17.842  68.750  1.00  0.00     0.000 HD 
HETATM   17  O   UNL     1      -7.830  17.371  69.432  1.00  0.00     0.010 OA 
BRANCH  15  18
HETATM   18  C   UNL     1      -9.592  16.924  67.831  1.00  0.00    -0.244 A  
HETATM   19  C   UNL     1     -10.849  16.332  67.581  1.00  0.00    -0.293 A  
HETATM   20  C   UNL     1     -11.189  15.850  66.312  1.00  0.00     0.096 A  
HETATM   21  H   UNL     1      -9.857  15.575  63.322  1.00  0.00     0.000 HD 
HETATM   22  C   UNL     1     -10.253  15.975  65.279  1.00  0.00    -0.211 A  
HETATM   23  C   UNL     1      -8.679  17.030  66.775  1.00  0.00    -0.272 A  
HETATM   24  C   UNL     1      -9.013  16.565  65.503  1.00  0.00     0.541 A  
HETATM   25  O   UNL     1     -10.492  15.490  64.023  1.00  0.00     0.576 OA 
BRANCH  20  26
HETATM   26  N   UNL     1     -12.447  15.280  66.037  1.00  0.00     0.566 N  
HETATM   27  H   UNL     1     -13.075  15.161  66.831  1.00  0.00     0.000 HD 
HETATM   28  O   UNL     1     -14.021  14.352  64.692  1.00  0.00     1.808 OA 
HETATM   29  C   UNL     1     -12.917  14.869  64.826  1.00  0.00     0.559 C  
ENDBRANCH  20  26
ENDBRANCH  15  18
ENDBRANCH  14  15
ENDBRANCH  12  14
ENDBRANCH  10  12
ENDBRANCH   9  10
ENDBRANCH   6   9
ENDBRANCH   2   3
TORSDOF 8
ENDMDL
MODEL      427
REMARK 921   NORMALIZED FREE ENERGY PREDICTED BY IDOCK:    6.70 KCAL/MOL
REMARK 922        TOTAL FREE ENERGY PREDICTED BY IDOCK:    8.34 KCAL/MOL
REMARK 923 INTER-LIGAND FREE ENERGY PREDICTED BY IDOCK:    7.00 KCAL/MOL
REMARK 924 INTRA-LIGAND FREE ENERGY PREDICTED BY IDOCK:    1.34 KCAL/MOL
REMARK 927      BINDING AFFINITY PREDICTED BY RF-SCORE:    0.00 PKD
ROOT
HETATM    1  C   UNL     1     -12.474  11.831  64.347  1.00  0.00     0.040 C  
HETATM    2  O   UNL     1     -11.485  10.881  63.960  1.00  0.00     0.281 OA 
ENDROOT
BRANCH   2   3
HETATM    3  C   UNL     1     -10.557  10.598  64.923  1.00  0.00    -0.122 A  
HETATM    4  C   UNL     1     -10.273   9.247  65.115  1.00  0.00     0.907 A  
HETATM    5  C   UNL     1      -9.371   8.848  66.105  1.00  0.00    -0.301 A  
HETATM    6  C   UNL     1      -8.718   9.804  66.894  1.00  0.00    -0.143 A  
HETATM    7  C   UNL     1      -9.884  11.555  65.679  1.00  0.00    -0.269 A  
HETATM    8  C   UNL     1      -8.972  11.160  66.661  1.00  0.00    -0.175 A  
BRANCH   6   9
HETATM    9  C   UNL     1      -7.848   9.403  68.061  1.00  0.00    -0.091 C  
BRANCH   9  10
HETATM   10  C   UNL     1      -7.764  10.412  69.232  1.00  0.00    -0.140 C  
HETATM   11  C   UNL     1      -7.935  11.846  68.719  1.00  0.00    -0.040 C  
BRANCH  10  12
HETATM   12  N   UNL     1      -8.788  10.179  70.273  1.00  0.00    -0.302 NA 
HETATM   13  H   UNL     1      -9.410  10.982  70.359  1.00  0.00     0.000 HD 
BRANCH  12  14
HETATM   14  C   UNL     1      -9.552   8.943  70.057  1.00  0.00    -0.178 C  
BRANCH  14  15
HETATM   15  C   UNL     1     -10.848   9.149  69.229  1.00  0.00    -0.132 C  
HETATM   16  H   UNL     1     -12.535   8.178  68.959  1.00  0.00     0.000 HD 
HETATM   17  O   UNL     1     -11.741   8.053  69.466  1.00  0.00     0.446 OA 
BRANCH  15  18
HETATM   18  C   UNL     1     -11.527  10.462  69.599  1.00  0.00    -0.326 A  
HETATM   19  C   UNL     1     -11.898  11.395  68.607  1.00  0.00    -0.377 A  
HETATM   20  C   UNL     1     -12.550  12.589  68.935  1.00  0.00     0.810 A  
HETATM   21  H   UNL     1     -13.628  14.176  71.602  1.00  0.00     0.000 HD 
HETATM   22  C   UNL     1     -12.838  12.842  70.282  1.00  0.00     0.278 A  
HETATM   23  C   UNL     1     -11.828  10.749  70.936  1.00  0.00    -0.400 A  
HETATM   24  C   UNL     1     -12.489  11.930  71.274  1.00  0.00    -0.319 A  
HETATM   25  O   UNL     1     -13.432  14.004  70.689  1.00  0.00    -0.082 OA 
BRANCH  20  26
HETATM   26  N   UNL     1     -12.952  13.520  67.959  1.00  0.00     0.976 N  
HETATM   27  H   UNL     1     -13.155  13.145  67.032  1.00  0.00     0.000 HD 
HETATM   28  O   UNL     1     -13.426  15.601  67.189  1.00  0.00     4.032 OA 
HETATM   29  C   UNL     1     -13.101  14.865  68.115  1.00  0.00     2.626 C  
ENDBRANCH  20  26
ENDBRANCH  15  18
ENDBRANCH  14  15
ENDBRANCH  12  14
ENDBRANCH  10  12
ENDBRANCH   9  10
ENDBRANCH   6   9
ENDBRANCH   2   3
TORSDOF 8
ENDMDL
MODEL      428
REMARK 921   NORMALIZED FREE ENERGY PREDICTED BY IDOCK:    7.54 KCAL/MOL
REMARK 922        TOTAL FREE ENERGY PREDICTED BY IDOCK:    9.57 KCAL/MOL
REMARK 923 INTER-LIGAND FREE ENERGY PREDICTED BY IDOCK:   10.44 KCAL/MOL
REMARK 924 INTRA-LIGAND FREE ENERGY PREDICTED BY IDOCK:   -0.87 KCAL/MOL
REMARK 927      BINDING AFFINITY PREDICTED BY RF-SCORE:    0.00 PKD
ROOT
HETATM    1  C   UNL     1     -12.034  20.913  64.575  1.00  0.00     4.455 C  
HETATM    2  O   UNL     1     -10.687  20.458  64.665  1.00  0.00     0.569 OA 
ENDROOT
BRANCH   2   3
HETATM    3  C   UNL     1     -10.528  19.271  65.325  1.00  0.00     0.483 A  
HETATM    4  C   UNL     1      -9.249  18.716  65.278  1.00  0.00     1.864 A  
HETATM    5  C   UNL     1      -8.991  17.484  65.883  1.00  0.00     0.067 A  
HETATM    6  C   UNL     1     -10.007  16.807  66.571  1.00  0.00    -0.308 A  
HETATM    7  C   UNL     1     -11.532  18.620  66.038  1.00  0.00     1.529 A  
HETATM    8  C   UNL     1     -11.274  17.395  66.655  1.00  0.00     0.656 A  
BRANCH   6   9
HETATM    9  C   UNL     1      -9.799  15.413  67.113  1.00  0.00    -0.221 C  
BRANCH   9  10
HETATM   10  C   UNL     1     -10.704  14.305  66.521  1.00  0.00    -0.297 C  
HETATM   11  C   UNL     1     -10.105  13.761  65.220  1.00  0.00    -0.312 C  
BRANCH  10  12
HETATM   12  N   UNL     1     -10.900  13.164  67.441  1.00  0.00    -0.253 NA 
HETATM   13  H   UNL     1     -10.068  13.007  68.010  1.00  0.00     0.000 HD 
BRANCH  12  14
HETATM   14  C   UNL     1     -12.094  13.309  68.285  1.00  0.00    -0.211 C  
BRANCH  14  15
HETATM   15  C   UNL     1     -11.981  12.588  69.653  1.00  0.00    -0.272 C  
HETATM   16  H   UNL     1     -10.531  11.894  70.783  1.00  0.00     0.000 HD 
HETATM   17  O   UNL     1     -10.600  12.336  69.945  1.00  0.00     0.547 OA 
BRANCH  15  18
HETATM   18  C   UNL     1     -12.602  13.427  70.763  1.00  0.00    -0.369 A  
HETATM   19  C   UNL     1     -12.180  14.753  70.998  1.00  0.00    -0.393 A  
HETATM   20  C   UNL     1     -12.767  15.541  71.995  1.00  0.00    -0.411 A  
HETATM   21  H   UNL     1     -15.093  15.297  74.301  1.00  0.00     0.000 HD 
HETATM   22  C   UNL     1     -13.799  14.986  72.760  1.00  0.00    -0.374 A  
HETATM   23  C   UNL     1     -13.634  12.903  71.550  1.00  0.00     0.015 A  
HETATM   24  C   UNL     1     -14.235  13.683  72.539  1.00  0.00    -0.368 A  
HETATM   25  O   UNL     1     -14.393  15.674  73.781  1.00  0.00     1.278 OA 
BRANCH  20  26
HETATM   26  N   UNL     1     -12.378  16.874  72.226  1.00  0.00     0.160 N  
HETATM   27  H   UNL     1     -12.949  17.595  71.785  1.00  0.00     0.000 HD 
HETATM   28  O   UNL     1     -11.047  18.496  73.088  1.00  0.00     1.220 OA 
HETATM   29  C   UNL     1     -11.325  17.307  72.973  1.00  0.00     1.387 C  
ENDBRANCH  20  26
ENDBRANCH  15  18
ENDBRANCH  14  15
ENDBRANCH  12  14
ENDBRANCH  10  12
ENDBRANCH   9  10
ENDBRANCH   6   9
ENDBRANCH   2   3
TORSDOF 8
ENDMDL
MODEL      429
REMARK 921   NORMALIZED FREE ENERGY PREDICTED BY IDOCK:    7.70 KCAL/MOL
REMARK 922        TOTAL FREE ENERGY PREDICTED BY IDOCK:    9.81 KCAL/MOL
REMARK 923 INTER-LIGAND FREE ENERGY PREDICTED BY IDOCK:   -0.52 KCAL/MOL
REMARK 924 INTRA-LIGAND FREE ENERGY PREDICTED BY IDOCK:   10.34 KCAL/MOL
REMARK 927      BINDING AFFINITY PREDICTED BY RF-SCORE:    0.00 PKD
ROOT
HETATM    1  C   UNL     1      -7.474   7.053  72.997  1.00  0.00    -0.073 C  
HETATM    2  O   UNL     1      -8.230   8.254  72.875  1.00  0.00    -0.172 OA 
ENDROOT
BRANCH   2   3
HETATM    3  C   UNL     1      -8.054   8.923  71.696  1.00  0.00    -0.026 A  
HETATM    4  C   UNL     1      -8.636   8.339  70.572  1.00  0.00    -0.131 A  
HETATM    5  C   UNL     1      -8.477   8.920  69.312  1.00  0.00    -0.121 A  
HETATM    6  C   UNL     1      -7.759  10.114  69.168  1.00  0.00    -0.112 A  
HETATM    7  C   UNL     1      -7.370  10.129  71.565  1.00  0.00     1.805 A  
HETATM    8  C   UNL     1      -7.220  10.720  70.309  1.00  0.00     0.353 A  
BRANCH   6   9
HETATM    9  C   UNL     1      -7.451  10.691  67.807  1.00  0.00    -0.091 C  
BRANCH   9  10
HETATM   10  C   UNL     1      -7.133   9.671  66.687  1.00  0.00    -0.086 C  
HETATM   11  C   UNL     1      -5.623   9.603  66.435  1.00  0.00    -0.052 C  
BRANCH  10  12
HETATM   12  N   UNL     1      -7.602   8.303  66.998  1.00  0.00    -0.091 NA 
HETATM   13  H   UNL     1      -6.814   7.680  67.178  1.00  0.00     0.000 HD 
BRANCH  12  14
HETATM   14  C   UNL     1      -8.564   8.267  68.106  1.00  0.00    -0.132 C  
BRANCH  14  15
HETATM   15  C   UNL     1      -9.606   7.124  67.990  1.00  0.00    -0.134 C  
HETATM   16  H   UNL     1     -11.307   6.837  67.048  1.00  0.00     0.000 HD 
HETATM   17  O   UNL     1     -10.668   7.537  67.119  1.00  0.00    -0.326 OA 
BRANCH  15  18
HETATM   18  C   UNL     1      -8.961   5.851  67.455  1.00  0.00    -0.108 A  
HETATM   19  C   UNL     1      -9.326   5.320  66.199  1.00  0.00    -0.164 A  
HETATM   20  C   UNL     1      -8.716   4.170  65.687  1.00  0.00    -0.119 A  
HETATM   21  H   UNL     1      -6.428   1.979  66.557  1.00  0.00     0.000 HD 
HETATM   22  C   UNL     1      -7.718   3.550  66.449  1.00  0.00    -0.084 A  
HETATM   23  C   UNL     1      -7.961   5.205  68.192  1.00  0.00    -0.087 A  
HETATM   24  C   UNL     1      -7.337   4.064  67.685  1.00  0.00    -0.068 A  
HETATM   25  O   UNL     1      -7.105   2.399  66.040  1.00  0.00    -0.060 OA 
BRANCH  20  26
HETATM   26  N   UNL     1      -9.047   3.640  64.426  1.00  0.00    -0.123 N  
HETATM   27  H   UNL     1      -8.365   3.010  64.006  1.00  0.00     0.000 HD 
HETATM   28  O   UNL     1     -10.362   3.392  62.593  1.00  0.00    -0.139 OA 
HETATM   29  C   UNL     1     -10.178   3.877  63.704  1.00  0.00    -0.184 C  
ENDBRANCH  20  26
ENDBRANCH  15  18
ENDBRANCH  14  15
ENDBRANCH  12  14
ENDBRANCH  10  12
ENDBRANCH   9  10
ENDBRANCH   6   9
ENDBRANCH   2   3
TORSDOF 8
ENDMDL
MODEL      430
REMARK 921   NORMALIZED FREE ENERGY PREDICTED BY IDOCK:   16.15 KCAL/MOL
REMARK 922        TOTAL FREE ENERGY PREDICTED BY IDOCK:   22.21 KCAL/MOL
REMARK 923 INTER-LIGAND FREE ENERGY PREDICTED BY IDOCK:   15.03 KCAL/MOL
REMARK 924 INTRA-LIGAND FREE ENERGY PREDICTED BY IDOCK:    7.18 KCAL/MOL
REMARK 927      BINDING AFFINITY PREDICTED BY RF-SCORE:    0.00 PKD
ROOT
HETATM    1  C   UNL     1     -10.891  15.284  66.517  1.00  0.00    -0.311 C  
HETATM    2  O   UNL     1     -11.594  14.550  65.519  1.00  0.00    -0.343 OA 
ENDROOT
BRANCH   2   3
HETATM    3  C   UNL     1     -10.950  13.429  65.073  1.00  0.00    -0.316 A  
HETATM    4  C   UNL     1      -9.558  13.500  65.040  1.00  0.00     0.250 A  
HETATM    5  C   UNL     1      -8.807  12.425  64.560  1.00  0.00     1.460 A  
HETATM    6  C   UNL     1      -9.443  11.251  64.137  1.00  0.00    -0.200 A  
HETATM    7  C   UNL     1     -11.586  12.251  64.688  1.00  0.00    -0.404 A  
HETATM    8  C   UNL     1     -10.837  11.170  64.220  1.00  0.00    -0.354 A  
BRANCH   6   9
HETATM    9  C   UNL     1      -8.672  10.128  63.484  1.00  0.00    -0.221 C  
BRANCH   9  10
HETATM   10  C   UNL     1      -9.210   8.696  63.728  1.00  0.00     0.996 C  
HETATM   11  C   UNL     1      -8.496   8.049  64.919  1.00  0.00    -0.066 C  
BRANCH  10  12
HETATM   12  N   UNL     1     -10.664   8.661  63.997  1.00  0.00     6.410 NA 
HETATM   13  H   UNL     1     -11.032   7.717  63.884  1.00  0.00     0.000 HD 
BRANCH  12  14
HETATM   14  C   UNL     1     -11.014   9.207  65.315  1.00  0.00     3.906 C  
BRANCH  14  15
HETATM   15  C   UNL     1     -10.024   8.805  66.439  1.00  0.00    -0.275 C  
HETATM   16  H   UNL     1      -9.537   9.482  68.218  1.00  0.00     0.000 HD 
HETATM   17  O   UNL     1     -10.143   9.729  67.530  1.00  0.00    -0.174 OA 
BRANCH  15  18
HETATM   18  C   UNL     1     -10.301   7.388  66.926  1.00  0.00    -0.367 A  
HETATM   19  C   UNL     1     -10.143   7.039  68.285  1.00  0.00    -0.185 A  
HETATM   20  C   UNL     1     -10.424   5.748  68.746  1.00  0.00    -0.242 A  
HETATM   21  H   UNL     1     -11.444   2.859  67.562  1.00  0.00     0.000 HD 
HETATM   22  C   UNL     1     -10.880   4.798  67.825  1.00  0.00     0.838 A  
HETATM   23  C   UNL     1     -10.756   6.411  66.032  1.00  0.00     0.814 A  
HETATM   24  C   UNL     1     -11.052   5.124  66.483  1.00  0.00     0.278 A  
HETATM   25  O   UNL     1     -11.135   3.504  68.186  1.00  0.00     4.076 OA 
BRANCH  20  26
HETATM   26  N   UNL     1     -10.298   5.389  70.101  1.00  0.00    -0.273 N  
HETATM   27  H   UNL     1     -11.065   5.661  70.715  1.00  0.00     0.000 HD 
HETATM   28  O   UNL     1      -9.231   4.479  71.884  1.00  0.00    -0.130 OA 
HETATM   29  C   UNL     1      -9.265   4.718  70.682  1.00  0.00    -0.134 C  
ENDBRANCH  20  26
ENDBRANCH  15  18
ENDBRANCH  14  15
ENDBRANCH  12  14
ENDBRANCH  10  12
ENDBRANCH   9  10
ENDBRANCH   6   9
ENDBRANCH   2   3
TORSDOF 8
ENDMDL
MODEL      431
REMARK 921   NORMALIZED FREE ENERGY PREDICTED BY IDOCK:   19.46 KCAL/MOL
REMARK 922        TOTAL FREE ENERGY PREDICTED BY IDOCK:   27.07 KCAL/MOL
REMARK 923 INTER-LIGAND FREE ENERGY PREDICTED BY IDOCK:   11.56 KCAL/MOL
REMARK 924 INTRA-LIGAND FREE ENERGY PREDICTED BY IDOCK:   15.51 KCAL/MOL
REMARK 927      BINDING AFFINITY PREDICTED BY RF-SCORE:    0.00 PKD
ROOT
HETATM    1  C   UNL     1     -12.456  11.845  64.695  1.00  0.00     0.059 C  
HETATM    2  O   UNL     1     -11.177  11.217  64.672  1.00  0.00    -0.219 OA 
ENDROOT
BRANCH   2   3
HETATM    3  C   UNL     1     -10.544  11.165  65.882  1.00  0.00    -0.234 A  
HETATM    4  C   UNL     1      -9.700  10.073  66.081  1.00  0.00    -0.286 A  
HETATM    5  C   UNL     1      -9.040   9.903  67.300  1.00  0.00    -0.149 A  
HETATM    6  C   UNL     1      -9.193  10.845  68.325  1.00  0.00    -0.161 A  
HETATM    7  C   UNL     1     -10.672  12.124  66.884  1.00  0.00    -0.271 A  
HETATM    8  C   UNL     1     -10.003  11.964  68.099  1.00  0.00    -0.197 A  
BRANCH   6   9
HETATM    9  C   UNL     1      -8.607  10.619  69.698  1.00  0.00     0.124 C  
BRANCH   9  10
HETATM   10  C   UNL     1      -9.302  11.354  70.870  1.00  0.00     6.363 C  
HETATM   11  C   UNL     1      -9.393  12.857  70.583  1.00  0.00     7.225 C  
BRANCH  10  12
HETATM   12  N   UNL     1     -10.671  10.860  71.133  1.00  0.00     1.033 NA 
HETATM   13  H   UNL     1     -11.267  11.609  71.487  1.00  0.00     0.000 HD 
BRANCH  12  14
HETATM   14  C   UNL     1     -11.280  10.213  69.964  1.00  0.00    -0.299 C  
BRANCH  14  15
HETATM   15  C   UNL     1     -10.949   8.702  69.845  1.00  0.00    -0.168 C  
HETATM   16  H   UNL     1     -10.618   7.426  68.389  1.00  0.00     0.000 HD 
HETATM   17  O   UNL     1     -10.821   8.351  68.461  1.00  0.00    -0.078 OA 
BRANCH  15  18
HETATM   18  C   UNL     1      -9.660   8.368  70.587  1.00  0.00    -0.195 A  
HETATM   19  C   UNL     1      -9.473   7.107  71.194  1.00  0.00    -0.157 A  
HETATM   20  C   UNL     1      -8.281   6.782  71.850  1.00  0.00    -0.102 A  
HETATM   21  H   UNL     1      -5.389   8.163  72.572  1.00  0.00     0.000 HD 
HETATM   22  C   UNL     1      -7.259   7.738  71.888  1.00  0.00    -0.069 A  
HETATM   23  C   UNL     1      -8.618   9.302  70.647  1.00  0.00    -0.270 A  
HETATM   24  C   UNL     1      -7.420   8.983  71.288  1.00  0.00    -0.098 A  
HETATM   25  O   UNL     1      -6.083   7.514  72.546  1.00  0.00    -0.040 OA 
BRANCH  20  26
HETATM   26  N   UNL     1      -8.066   5.521  72.438  1.00  0.00    -0.107 N  
HETATM   27  H   UNL     1      -8.627   4.750  72.076  1.00  0.00     0.000 HD 
HETATM   28  O   UNL     1      -7.099   4.088  73.907  1.00  0.00    -0.058 OA 
HETATM   29  C   UNL     1      -7.191   5.216  73.437  1.00  0.00    -0.086 C  
ENDBRANCH  20  26
ENDBRANCH  15  18
ENDBRANCH  14  15
ENDBRANCH  12  14
ENDBRANCH  10  12
ENDBRANCH   9  10
ENDBRANCH   6   9
ENDBRANCH   2   3
TORSDOF 8
ENDMDL
