MODEL        1
REMARK 921   NORMALIZED FREE ENERGY PREDICTED BY IDOCK:   -9.67 KCAL/MOL
REMARK 922        TOTAL FREE ENERGY PREDICTED BY IDOCK:  -13.97 KCAL/MOL
REMARK 923 INTER-LIGAND FREE ENERGY PREDICTED BY IDOCK:  -13.06 KCAL/MOL
REMARK 924 INTRA-LIGAND FREE ENERGY PREDICTED BY IDOCK:   -0.90 KCAL/MOL
REMARK 927      BINDING AFFINITY PREDICTED BY RF-SCORE:    0.00 PKD
ROOT
HETATM    1  C   UNL     1      -7.869  14.163  67.439  1.00  0.00    -0.195 C  
HETATM    2  C   UNL     1      -9.217  14.846  67.631  1.00  0.00    -0.187 C  
ENDROOT
BRANCH   2   3
HETATM    3  C   UNL     1      -9.081  16.304  68.018  1.00  0.00    -0.188 A  
HETATM    4  F   UNL     1     -10.584  19.529  65.645  1.00  0.00    -0.531 F  
HETATM    5  F   UNL     1      -9.905  20.984  67.108  1.00  0.00    -0.611 F  
HETATM    6  C   UNL     1      -7.974  16.670  68.795  1.00  0.00    -0.239 A  
HETATM    7  C   UNL     1      -7.591  18.004  68.917  1.00  0.00    -0.227 A  
HETATM    8  F   UNL     1     -11.672  19.783  67.513  1.00  0.00    -0.104 F  
HETATM    9  C   UNL     1      -6.262  18.342  69.553  1.00  0.00    -0.254 C  
HETATM   10  C   UNL     1      -8.392  18.997  68.332  1.00  0.00    -0.383 A  
HETATM   11  C   UNL     1     -10.420  19.728  66.981  1.00  0.00    -0.469 C  
HETATM   12  C   UNL     1      -9.562  18.662  67.625  1.00  0.00    -0.325 A  
HETATM   13  F   UNL     1      -5.668  17.277  70.159  1.00  0.00    -0.208 F  
HETATM   14  F   UNL     1      -5.367  18.794  68.636  1.00  0.00    -0.183 F  
HETATM   15  C   UNL     1      -9.894  17.307  67.466  1.00  0.00    -0.275 A  
HETATM   16  F   UNL     1      -6.362  19.310  70.501  1.00  0.00    -0.215 F  
ENDBRANCH   2   3
BRANCH   2  17
HETATM   17  O   UNL     1     -10.011  14.138  68.597  1.00  0.00    -0.232 OA 
BRANCH  17  18
HETATM   18  C   UNL     1     -11.409  14.029  68.235  1.00  0.00    -0.288 C  
HETATM   19  N   UNL     1     -11.850  11.856  69.444  1.00  0.00    -0.322 NA 
HETATM   20  C   UNL     1     -12.285  13.273  69.329  1.00  0.00    -0.147 C  
HETATM   21  O   UNL     1     -11.578  13.381  66.962  1.00  0.00    -0.320 OA 
HETATM   22  C   UNL     1     -11.138  12.020  67.036  1.00  0.00    -0.298 C  
HETATM   23  C   UNL     1     -11.907  11.230  68.102  1.00  0.00    -0.205 C  
BRANCH  19  24
HETATM   24  C   UNL     1     -12.488  11.015  70.472  1.00  0.00    -0.344 C  
BRANCH  24  25
HETATM   25  C   UNL     1     -11.593   9.938  71.057  1.00  0.00    -0.389 C  
HETATM   26  O   UNL     1      -7.503   9.676  71.105  1.00  0.00    -0.328 OA 
HETATM   27  O   UNL     1      -8.055   8.921  73.378  1.00  0.00    -0.353 OA 
HETATM   28  N   UNL     1     -11.955   9.189  72.068  1.00  0.00    -0.367 NA 
HETATM   29  O   UNL     1      -7.623   7.157  71.540  1.00  0.00    -0.086 OA 
HETATM   30  C   UNL     1     -10.837   8.448  72.384  1.00  0.00    -0.346 C  
HETATM   31  O   UNL     1     -10.676   7.801  73.410  1.00  0.00    -0.348 OA 
HETATM   32  P   UNL     1      -8.257   8.465  71.857  1.00  0.00    -0.127 P  
HETATM   33  N   UNL     1      -9.860   8.692  71.455  1.00  0.00    -0.244 N  
HETATM   34  N   UNL     1     -10.336   9.677  70.564  1.00  0.00    -0.281 NA 
ENDBRANCH  24  25
ENDBRANCH  19  24
BRANCH  20  35
HETATM   35  C   UNL     1     -12.303  14.088  70.620  1.00  0.00    -0.446 A  
HETATM   36  C   UNL     1     -13.302  14.537  72.802  1.00  0.00    -0.600 A  
HETATM   37  F   UNL     1     -12.750  16.534  73.931  1.00  0.00    -0.536 F  
HETATM   38  C   UNL     1     -13.165  13.721  71.675  1.00  0.00    -0.450 A  
HETATM   39  C   UNL     1     -11.718  16.102  71.857  1.00  0.00    -0.575 A  
HETATM   40  C   UNL     1     -11.568  15.279  70.737  1.00  0.00    -0.371 A  
HETATM   41  C   UNL     1     -12.587  15.730  72.873  1.00  0.00    -0.466 A  
ENDBRANCH  20  35
ENDBRANCH  17  18
ENDBRANCH   2  17
TORSDOF 6
ENDMDL
MODEL        2
REMARK 921   NORMALIZED FREE ENERGY PREDICTED BY IDOCK:   -9.67 KCAL/MOL
REMARK 922        TOTAL FREE ENERGY PREDICTED BY IDOCK:  -13.96 KCAL/MOL
REMARK 923 INTER-LIGAND FREE ENERGY PREDICTED BY IDOCK:  -12.37 KCAL/MOL
REMARK 924 INTRA-LIGAND FREE ENERGY PREDICTED BY IDOCK:   -1.59 KCAL/MOL
REMARK 927      BINDING AFFINITY PREDICTED BY RF-SCORE:    0.00 PKD
ROOT
HETATM    1  C   UNL     1     -12.884  12.233  71.385  1.00  0.00    -0.373 C  
HETATM    2  C   UNL     1     -12.285  12.058  69.995  1.00  0.00    -0.206 C  
ENDROOT
BRANCH   2   3
HETATM    3  C   UNL     1     -11.464  10.792  69.869  1.00  0.00    -0.398 A  
HETATM    4  F   UNL     1     -10.471   8.984  66.123  1.00  0.00    -0.329 F  
HETATM    5  F   UNL     1      -9.341   7.422  67.122  1.00  0.00    -0.130 F  
HETATM    6  C   UNL     1     -11.531   9.866  70.918  1.00  0.00    -0.456 A  
HETATM    7  C   UNL     1     -11.089   8.556  70.751  1.00  0.00    -0.288 A  
HETATM    8  F   UNL     1      -8.511   9.424  66.958  1.00  0.00    -0.122 F  
HETATM    9  C   UNL     1     -11.397   7.524  71.812  1.00  0.00    -0.254 C  
HETATM   10  C   UNL     1     -10.476   8.196  69.541  1.00  0.00    -0.227 A  
HETATM   11  C   UNL     1      -9.666   8.744  67.192  1.00  0.00    -0.191 C  
HETATM   12  C   UNL     1     -10.313   9.132  68.503  1.00  0.00    -0.236 A  
HETATM   13  F   UNL     1     -11.897   8.063  72.959  1.00  0.00    -0.419 F  
HETATM   14  F   UNL     1     -12.327   6.629  71.386  1.00  0.00    -0.366 F  
HETATM   15  C   UNL     1     -10.819  10.430  68.675  1.00  0.00    -0.270 A  
HETATM   16  F   UNL     1     -10.307   6.801  72.177  1.00  0.00    -0.196 F  
ENDBRANCH   2   3
BRANCH   2  17
HETATM   17  O   UNL     1     -11.501  13.207  69.633  1.00  0.00    -0.256 OA 
BRANCH  17  18
HETATM   18  C   UNL     1     -12.274  14.276  69.035  1.00  0.00    -0.220 C  
HETATM   19  N   UNL     1     -10.305  15.679  68.303  1.00  0.00    -0.239 NA 
HETATM   20  C   UNL     1     -11.530  14.987  67.820  1.00  0.00    -0.334 C  
HETATM   21  O   UNL     1     -12.648  15.267  70.007  1.00  0.00    -0.318 OA 
HETATM   22  C   UNL     1     -11.483  15.931  70.512  1.00  0.00    -0.392 C  
HETATM   23  C   UNL     1     -10.683  16.609  69.393  1.00  0.00    -0.331 C  
BRANCH  19  24
HETATM   24  C   UNL     1      -9.433  16.324  67.306  1.00  0.00    -0.227 C  
BRANCH  24  25
HETATM   25  C   UNL     1      -8.841  17.650  67.744  1.00  0.00    -0.240 C  
HETATM   26  O   UNL     1      -5.199  18.456  69.443  1.00  0.00    -0.188 OA 
HETATM   27  O   UNL     1      -5.403  20.317  67.850  1.00  0.00    -0.189 OA 
HETATM   28  N   UNL     1      -9.177  18.792  67.197  1.00  0.00    -0.283 NA 
HETATM   29  O   UNL     1      -6.053  20.703  70.321  1.00  0.00    -0.480 OA 
HETATM   30  C   UNL     1      -8.335  19.723  67.762  1.00  0.00    -0.306 C  
HETATM   31  O   UNL     1      -8.157  20.864  67.358  1.00  0.00    -0.279 OA 
HETATM   32  P   UNL     1      -6.111  19.758  69.172  1.00  0.00    -0.319 P  
HETATM   33  N   UNL     1      -7.589  19.119  68.740  1.00  0.00    -0.344 N  
HETATM   34  N   UNL     1      -7.906  17.743  68.749  1.00  0.00    -0.278 NA 
ENDBRANCH  24  25
ENDBRANCH  19  24
BRANCH  20  35
HETATM   35  C   UNL     1     -11.343  13.986  66.682  1.00  0.00    -0.345 A  
HETATM   36  C   UNL     1     -12.324  12.613  64.917  1.00  0.00    -0.563 A  
HETATM   37  F   UNL     1     -11.015  10.927  63.910  1.00  0.00    -0.432 F  
HETATM   38  C   UNL     1     -12.439  13.634  65.865  1.00  0.00    -0.502 A  
HETATM   39  C   UNL     1     -10.018  12.276  65.565  1.00  0.00    -0.264 A  
HETATM   40  C   UNL     1     -10.128  13.307  66.503  1.00  0.00    -0.275 A  
HETATM   41  C   UNL     1     -11.115  11.933  64.788  1.00  0.00    -0.311 A  
ENDBRANCH  20  35
ENDBRANCH  17  18
ENDBRANCH   2  17
TORSDOF 6
ENDMDL
MODEL        3
REMARK 921   NORMALIZED FREE ENERGY PREDICTED BY IDOCK:   -9.53 KCAL/MOL
REMARK 922        TOTAL FREE ENERGY PREDICTED BY IDOCK:  -13.78 KCAL/MOL
REMARK 923 INTER-LIGAND FREE ENERGY PREDICTED BY IDOCK:  -11.29 KCAL/MOL
REMARK 924 INTRA-LIGAND FREE ENERGY PREDICTED BY IDOCK:   -2.48 KCAL/MOL
REMARK 927      BINDING AFFINITY PREDICTED BY RF-SCORE:    0.00 PKD
ROOT
HETATM    1  C   UNL     1      -6.794  14.886  69.511  1.00  0.00    -0.172 C  
HETATM    2  C   UNL     1      -7.674  14.556  68.312  1.00  0.00    -0.126 C  
ENDROOT
BRANCH   2   3
HETATM    3  C   UNL     1      -8.961  15.354  68.297  1.00  0.00    -0.185 A  
HETATM    4  F   UNL     1      -9.224  19.389  66.905  1.00  0.00    -0.301 F  
HETATM    5  F   UNL     1     -11.362  19.431  67.286  1.00  0.00    -0.542 F  
HETATM    6  C   UNL     1      -9.926  15.049  69.265  1.00  0.00    -0.218 A  
HETATM    7  C   UNL     1     -10.973  15.927  69.538  1.00  0.00    -0.311 A  
HETATM    8  F   UNL     1     -10.588  18.348  65.567  1.00  0.00    -0.421 F  
HETATM    9  C   UNL     1     -11.851  15.687  70.747  1.00  0.00    -0.384 C  
HETATM   10  C   UNL     1     -11.112  17.083  68.756  1.00  0.00    -0.086 A  
HETATM   11  C   UNL     1     -10.346  18.620  66.878  1.00  0.00    -0.402 C  
HETATM   12  C   UNL     1     -10.209  17.367  67.714  1.00  0.00    -0.345 A  
HETATM   13  F   UNL     1     -11.649  14.471  71.326  1.00  0.00    -0.354 F  
HETATM   14  F   UNL     1     -11.623  16.606  71.721  1.00  0.00    -0.498 F  
HETATM   15  C   UNL     1      -9.128  16.497  67.498  1.00  0.00    -0.200 A  
HETATM   16  F   UNL     1     -13.176  15.754  70.458  1.00  0.00    -0.488 F  
ENDBRANCH   2   3
BRANCH   2  17
HETATM   17  O   UNL     1      -7.952  13.147  68.260  1.00  0.00    -0.136 OA 
BRANCH  17  18
HETATM   18  C   UNL     1      -7.608  12.531  66.995  1.00  0.00    -0.015 C  
HETATM   19  N   UNL     1      -8.677  10.292  67.467  1.00  0.00    -0.125 NA 
HETATM   20  C   UNL     1      -8.664  11.438  66.520  1.00  0.00    -0.181 C  
HETATM   21  O   UNL     1      -6.298  11.939  67.033  1.00  0.00    -0.144 OA 
HETATM   22  C   UNL     1      -6.273  10.848  67.962  1.00  0.00    -0.053 C  
HETATM   23  C   UNL     1      -7.296   9.767  67.597  1.00  0.00    -0.090 C  
BRANCH  19  24
HETATM   24  C   UNL     1      -9.657   9.215  67.240  1.00  0.00    -0.154 C  
BRANCH  24  25
HETATM   25  C   UNL     1     -10.126   8.509  68.499  1.00  0.00    -0.194 C  
HETATM   26  O   UNL     1     -12.182   9.991  71.720  1.00  0.00    -0.384 OA 
HETATM   27  O   UNL     1     -13.299   7.826  71.398  1.00  0.00    -0.321 OA 
HETATM   28  N   UNL     1     -10.395   7.228  68.533  1.00  0.00    -0.185 NA 
HETATM   29  O   UNL     1     -11.427   8.021  73.168  1.00  0.00    -0.299 OA 
HETATM   30  C   UNL     1     -10.914   7.004  69.789  1.00  0.00    -0.250 C  
HETATM   31  O   UNL     1     -11.507   5.995  70.147  1.00  0.00    -0.356 OA 
HETATM   32  P   UNL     1     -11.865   8.412  71.801  1.00  0.00    -0.370 P  
HETATM   33  N   UNL     1     -10.822   8.156  70.525  1.00  0.00    -0.237 N  
HETATM   34  N   UNL     1     -10.303   9.170  69.692  1.00  0.00    -0.211 NA 
ENDBRANCH  24  25
ENDBRANCH  19  24
BRANCH  20  35
HETATM   35  C   UNL     1     -10.006  12.112  66.247  1.00  0.00    -0.249 A  
HETATM   36  C   UNL     1     -11.450  13.372  64.733  1.00  0.00    -0.359 A  
HETATM   37  F   UNL     1     -13.410  14.375  65.581  1.00  0.00    -0.480 F  
HETATM   38  C   UNL     1     -10.292  12.623  64.962  1.00  0.00    -0.320 A  
HETATM   39  C   UNL     1     -12.073  13.113  67.056  1.00  0.00    -0.366 A  
HETATM   40  C   UNL     1     -10.923  12.351  67.283  1.00  0.00    -0.302 A  
HETATM   41  C   UNL     1     -12.323  13.622  65.790  1.00  0.00    -0.482 A  
ENDBRANCH  20  35
ENDBRANCH  17  18
ENDBRANCH   2  17
TORSDOF 6
ENDMDL
MODEL        4
REMARK 921   NORMALIZED FREE ENERGY PREDICTED BY IDOCK:   -9.50 KCAL/MOL
REMARK 922        TOTAL FREE ENERGY PREDICTED BY IDOCK:  -13.73 KCAL/MOL
REMARK 923 INTER-LIGAND FREE ENERGY PREDICTED BY IDOCK:  -13.08 KCAL/MOL
REMARK 924 INTRA-LIGAND FREE ENERGY PREDICTED BY IDOCK:   -0.66 KCAL/MOL
REMARK 927      BINDING AFFINITY PREDICTED BY RF-SCORE:    0.00 PKD
ROOT
HETATM    1  C   UNL     1      -7.862  14.157  67.620  1.00  0.00    -0.190 C  
HETATM    2  C   UNL     1      -9.219  14.832  67.768  1.00  0.00    -0.194 C  
ENDROOT
BRANCH   2   3
HETATM    3  C   UNL     1      -9.104  16.316  68.052  1.00  0.00    -0.188 A  
HETATM    4  F   UNL     1     -10.731  19.342  65.506  1.00  0.00    -0.542 F  
HETATM    5  F   UNL     1     -10.047  20.906  66.849  1.00  0.00    -0.552 F  
HETATM    6  C   UNL     1      -7.986  16.755  68.773  1.00  0.00    -0.250 A  
HETATM    7  C   UNL     1      -7.627  18.101  68.794  1.00  0.00    -0.285 A  
HETATM    8  F   UNL     1     -11.778  19.702  67.380  1.00  0.00    -0.175 F  
HETATM    9  C   UNL     1      -6.290  18.507  69.371  1.00  0.00    -0.258 C  
HETATM   10  C   UNL     1      -8.463  19.036  68.165  1.00  0.00    -0.351 A  
HETATM   11  C   UNL     1     -10.539  19.635  66.821  1.00  0.00    -0.486 C  
HETATM   12  C   UNL     1      -9.643  18.632  67.513  1.00  0.00    -0.317 A  
HETATM   13  F   UNL     1      -5.659  17.497  70.033  1.00  0.00    -0.195 F  
HETATM   14  F   UNL     1      -5.428  18.912  68.402  1.00  0.00    -0.182 F  
HETATM   15  C   UNL     1      -9.951  17.263  67.455  1.00  0.00    -0.296 A  
HETATM   16  F   UNL     1      -6.386  19.535  70.254  1.00  0.00    -0.298 F  
ENDBRANCH   2   3
BRANCH   2  17
HETATM   17  O   UNL     1     -10.001  14.182  68.784  1.00  0.00    -0.228 OA 
BRANCH  17  18
HETATM   18  C   UNL     1     -11.405  14.060  68.451  1.00  0.00    -0.291 C  
HETATM   19  N   UNL     1     -11.803  11.888  69.676  1.00  0.00    -0.328 NA 
HETATM   20  C   UNL     1     -12.252  13.301  69.564  1.00  0.00    -0.178 C  
HETATM   21  O   UNL     1     -11.594  13.407  67.184  1.00  0.00    -0.321 OA 
HETATM   22  C   UNL     1     -11.141  12.050  67.253  1.00  0.00    -0.285 C  
HETATM   23  C   UNL     1     -11.882  11.257  68.336  1.00  0.00    -0.261 C  
BRANCH  19  24
HETATM   24  C   UNL     1     -12.414  11.046  70.719  1.00  0.00    -0.396 C  
BRANCH  24  25
HETATM   25  C   UNL     1     -11.569   9.862  71.153  1.00  0.00    -0.389 C  
HETATM   26  O   UNL     1     -12.724   6.095  72.282  1.00  0.00    -0.140 OA 
HETATM   27  O   UNL     1     -10.760   5.594  70.891  1.00  0.00    -0.255 OA 
HETATM   28  N   UNL     1     -10.332   9.692  70.758  1.00  0.00    -0.300 NA 
HETATM   29  O   UNL     1     -10.484   5.710  73.457  1.00  0.00    -0.218 OA 
HETATM   30  C   UNL     1      -9.966   8.457  71.245  1.00  0.00    -0.204 C  
HETATM   31  O   UNL     1      -8.979   7.819  70.905  1.00  0.00    -0.144 OA 
HETATM   32  P   UNL     1     -11.129   6.326  72.266  1.00  0.00    -0.300 P  
HETATM   33  N   UNL     1     -10.972   7.971  72.037  1.00  0.00    -0.262 N  
HETATM   34  N   UNL     1     -12.048   8.884  71.993  1.00  0.00    -0.360 NA 
ENDBRANCH  24  25
ENDBRANCH  19  24
BRANCH  20  35
HETATM   35  C   UNL     1     -12.250  14.121  70.853  1.00  0.00    -0.434 A  
HETATM   36  C   UNL     1     -13.198  14.558  73.061  1.00  0.00    -0.575 A  
HETATM   37  F   UNL     1     -12.654  16.569  74.168  1.00  0.00    -0.538 F  
HETATM   38  C   UNL     1     -13.075  13.740  71.933  1.00  0.00    -0.474 A  
HETATM   39  C   UNL     1     -11.671  16.150  72.067  1.00  0.00    -0.574 A  
HETATM   40  C   UNL     1     -11.536  15.325  70.946  1.00  0.00    -0.377 A  
HETATM   41  C   UNL     1     -12.504  15.765  73.108  1.00  0.00    -0.487 A  
ENDBRANCH  20  35
ENDBRANCH  17  18
ENDBRANCH   2  17
TORSDOF 6
ENDMDL
MODEL        5
REMARK 921   NORMALIZED FREE ENERGY PREDICTED BY IDOCK:   -9.45 KCAL/MOL
REMARK 922        TOTAL FREE ENERGY PREDICTED BY IDOCK:  -13.66 KCAL/MOL
REMARK 923 INTER-LIGAND FREE ENERGY PREDICTED BY IDOCK:  -10.23 KCAL/MOL
REMARK 924 INTRA-LIGAND FREE ENERGY PREDICTED BY IDOCK:   -3.43 KCAL/MOL
REMARK 927      BINDING AFFINITY PREDICTED BY RF-SCORE:    0.00 PKD
ROOT
HETATM    1  C   UNL     1      -6.302  14.960  69.827  1.00  0.00    -0.152 C  
HETATM    2  C   UNL     1      -7.274  14.671  68.690  1.00  0.00    -0.122 C  
ENDROOT
BRANCH   2   3
HETATM    3  C   UNL     1      -8.567  15.450  68.815  1.00  0.00    -0.190 A  
HETATM    4  F   UNL     1     -12.163  13.814  70.452  1.00  0.00    -0.348 F  
HETATM    5  F   UNL     1     -13.202  15.702  70.180  1.00  0.00    -0.292 F  
HETATM    6  C   UNL     1      -8.808  16.464  67.880  1.00  0.00    -0.184 A  
HETATM    7  C   UNL     1     -10.083  16.999  67.710  1.00  0.00    -0.302 A  
HETATM    8  F   UNL     1     -11.761  15.480  71.793  1.00  0.00    -0.337 F  
HETATM    9  C   UNL     1     -10.360  17.909  66.535  1.00  0.00    -0.362 C  
HETATM   10  C   UNL     1     -11.114  16.579  68.565  1.00  0.00    -0.335 A  
HETATM   11  C   UNL     1     -11.989  15.163  70.489  1.00  0.00    -0.325 C  
HETATM   12  C   UNL     1     -10.877  15.628  69.576  1.00  0.00    -0.271 A  
HETATM   13  F   UNL     1      -9.233  18.296  65.876  1.00  0.00    -0.220 F  
HETATM   14  F   UNL     1     -11.144  17.302  65.605  1.00  0.00    -0.183 F  
HETATM   15  C   UNL     1      -9.597  15.062  69.687  1.00  0.00    -0.047 A  
HETATM   16  F   UNL     1     -11.001  19.051  66.891  1.00  0.00    -0.479 F  
ENDBRANCH   2   3
BRANCH   2  17
HETATM   17  O   UNL     1      -7.541  13.261  68.598  1.00  0.00    -0.126 OA 
BRANCH  17  18
HETATM   18  C   UNL     1      -7.271  12.701  67.290  1.00  0.00    -0.103 C  
HETATM   19  N   UNL     1      -8.598  10.576  67.607  1.00  0.00    -0.118 NA 
HETATM   20  C   UNL     1      -8.448  11.778  66.745  1.00  0.00    -0.177 C  
HETATM   21  O   UNL     1      -6.040  11.957  67.276  1.00  0.00    -0.109 OA 
HETATM   22  C   UNL     1      -6.146  10.807  68.124  1.00  0.00    -0.050 C  
HETATM   23  C   UNL     1      -7.290   9.884  67.690  1.00  0.00    -0.090 C  
BRANCH  19  24
HETATM   24  C   UNL     1      -9.699   9.643  67.311  1.00  0.00    -0.166 C  
BRANCH  24  25
HETATM   25  C   UNL     1     -10.150   8.799  68.490  1.00  0.00    -0.189 C  
HETATM   26  O   UNL     1     -12.152   9.908  71.890  1.00  0.00    -0.357 OA 
HETATM   27  O   UNL     1     -13.278   7.792  71.343  1.00  0.00    -0.322 OA 
HETATM   28  N   UNL     1     -10.420   7.522  68.383  1.00  0.00    -0.193 NA 
HETATM   29  O   UNL     1     -11.377   7.787  73.093  1.00  0.00    -0.374 OA 
HETATM   30  C   UNL     1     -10.919   7.157  69.614  1.00  0.00    -0.212 C  
HETATM   31  O   UNL     1     -11.509   6.115  69.865  1.00  0.00    -0.421 OA 
HETATM   32  P   UNL     1     -11.836   8.330  71.786  1.00  0.00    -0.356 P  
HETATM   33  N   UNL     1     -10.814   8.219  70.474  1.00  0.00    -0.230 N  
HETATM   34  N   UNL     1     -10.306   9.321  69.752  1.00  0.00    -0.207 NA 
ENDBRANCH  24  25
ENDBRANCH  19  24
BRANCH  20  35
HETATM   35  C   UNL     1      -9.701  12.624  66.530  1.00  0.00    -0.256 A  
HETATM   36  C   UNL     1     -12.025  13.110  67.099  1.00  0.00    -0.397 A  
HETATM   37  F   UNL     1     -13.282  14.529  65.693  1.00  0.00    -0.418 F  
HETATM   38  C   UNL     1     -10.821  12.453  67.371  1.00  0.00    -0.273 A  
HETATM   39  C   UNL     1     -11.023  14.132  65.149  1.00  0.00    -0.361 A  
HETATM   40  C   UNL     1      -9.814  13.488  65.429  1.00  0.00    -0.141 A  
HETATM   41  C   UNL     1     -12.117  13.933  65.979  1.00  0.00    -0.437 A  
ENDBRANCH  20  35
ENDBRANCH  17  18
ENDBRANCH   2  17
TORSDOF 6
ENDMDL
MODEL        6
REMARK 921   NORMALIZED FREE ENERGY PREDICTED BY IDOCK:   -9.38 KCAL/MOL
REMARK 922        TOTAL FREE ENERGY PREDICTED BY IDOCK:  -13.57 KCAL/MOL
REMARK 923 INTER-LIGAND FREE ENERGY PREDICTED BY IDOCK:  -11.87 KCAL/MOL
REMARK 924 INTRA-LIGAND FREE ENERGY PREDICTED BY IDOCK:   -1.70 KCAL/MOL
REMARK 927      BINDING AFFINITY PREDICTED BY RF-SCORE:    0.00 PKD
ROOT
HETATM    1  C   UNL     1     -12.392  12.416  70.876  1.00  0.00    -0.358 C  
HETATM    2  C   UNL     1     -11.998  11.948  69.481  1.00  0.00    -0.292 C  
ENDROOT
BRANCH   2   3
HETATM    3  C   UNL     1     -11.251  10.631  69.496  1.00  0.00    -0.331 A  
HETATM    4  F   UNL     1     -10.263   8.434  65.963  1.00  0.00    -0.292 F  
HETATM    5  F   UNL     1      -9.256   6.908  67.136  1.00  0.00    -0.129 F  
HETATM    6  C   UNL     1     -11.401   9.812  70.622  1.00  0.00    -0.401 A  
HETATM    7  C   UNL     1     -11.033   8.468  70.588  1.00  0.00    -0.268 A  
HETATM    8  F   UNL     1      -8.304   8.837  66.820  1.00  0.00    -0.104 F  
HETATM    9  C   UNL     1     -11.431   7.557  71.727  1.00  0.00    -0.260 C  
HETATM   10  C   UNL     1     -10.410   7.964  69.437  1.00  0.00    -0.220 A  
HETATM   11  C   UNL     1      -9.503   8.248  67.076  1.00  0.00    -0.176 C  
HETATM   12  C   UNL     1     -10.162   8.791  68.324  1.00  0.00    -0.240 A  
HETATM   13  F   UNL     1     -11.930   8.226  72.804  1.00  0.00    -0.444 F  
HETATM   14  F   UNL     1     -12.400   6.681  71.354  1.00  0.00    -0.366 F  
HETATM   15  C   UNL     1     -10.595  10.126  68.362  1.00  0.00    -0.249 A  
HETATM   16  F   UNL     1     -10.397   6.811  72.192  1.00  0.00    -0.196 F  
ENDBRANCH   2   3
BRANCH   2  17
HETATM   17  O   UNL     1     -11.229  12.958  68.806  1.00  0.00    -0.249 OA 
BRANCH  17  18
HETATM   18  C   UNL     1     -12.030  13.868  68.013  1.00  0.00    -0.355 C  
HETATM   19  N   UNL     1     -10.101  15.188  67.057  1.00  0.00    -0.241 NA 
HETATM   20  C   UNL     1     -11.291  14.372  66.696  1.00  0.00    -0.353 C  
HETATM   21  O   UNL     1     -12.457  15.006  68.782  1.00  0.00    -0.021 OA 
HETATM   22  C   UNL     1     -11.326  15.796  69.169  1.00  0.00    -0.349 C  
HETATM   23  C   UNL     1     -10.532  16.287  67.953  1.00  0.00    -0.295 C  
BRANCH  19  24
HETATM   24  C   UNL     1      -9.235  15.673  65.967  1.00  0.00    -0.339 C  
BRANCH  24  25
HETATM   25  C   UNL     1      -8.290  16.793  66.359  1.00  0.00    -0.309 C  
HETATM   26  O   UNL     1      -9.105  20.698  67.302  1.00  0.00    -0.367 OA 
HETATM   27  O   UNL     1      -7.407  20.145  68.991  1.00  0.00    -0.176 OA 
HETATM   28  N   UNL     1      -7.139  16.576  66.944  1.00  0.00    -0.211 NA 
HETATM   29  O   UNL     1      -6.681  21.366  66.833  1.00  0.00    -0.483 OA 
HETATM   30  C   UNL     1      -6.653  17.826  67.256  1.00  0.00    -0.164 C  
HETATM   31  O   UNL     1      -5.723  18.062  68.016  1.00  0.00    -0.156 OA 
HETATM   32  P   UNL     1      -7.546  20.299  67.404  1.00  0.00    -0.315 P  
HETATM   33  N   UNL     1      -7.485  18.776  66.726  1.00  0.00    -0.218 N  
HETATM   34  N   UNL     1      -8.579  18.117  66.126  1.00  0.00    -0.490 NA 
ENDBRANCH  24  25
ENDBRANCH  19  24
BRANCH  20  35
HETATM   35  C   UNL     1     -11.048  13.188  65.764  1.00  0.00    -0.293 A  
HETATM   36  C   UNL     1      -9.568  11.417  64.966  1.00  0.00    -0.250 A  
HETATM   37  F   UNL     1     -10.101  10.285  62.965  1.00  0.00    -0.289 F  
HETATM   38  C   UNL     1      -9.879  12.409  65.901  1.00  0.00    -0.265 A  
HETATM   39  C   UNL     1     -11.585  11.945  63.740  1.00  0.00    -0.555 A  
HETATM   40  C   UNL     1     -11.904  12.927  64.682  1.00  0.00    -0.422 A  
HETATM   41  C   UNL     1     -10.419  11.206  63.884  1.00  0.00    -0.381 A  
ENDBRANCH  20  35
ENDBRANCH  17  18
ENDBRANCH   2  17
TORSDOF 6
ENDMDL
MODEL        7
REMARK 921   NORMALIZED FREE ENERGY PREDICTED BY IDOCK:   -9.25 KCAL/MOL
REMARK 922        TOTAL FREE ENERGY PREDICTED BY IDOCK:  -13.40 KCAL/MOL
REMARK 923 INTER-LIGAND FREE ENERGY PREDICTED BY IDOCK:  -11.99 KCAL/MOL
REMARK 924 INTRA-LIGAND FREE ENERGY PREDICTED BY IDOCK:   -1.41 KCAL/MOL
REMARK 927      BINDING AFFINITY PREDICTED BY RF-SCORE:    0.00 PKD
ROOT
HETATM    1  C   UNL     1      -9.805   8.643  68.048  1.00  0.00    -0.201 C  
HETATM    2  C   UNL     1      -9.683   9.770  69.066  1.00  0.00    -0.177 C  
ENDROOT
BRANCH   2   3
HETATM    3  C   UNL     1     -10.268   9.403  70.415  1.00  0.00    -0.310 A  
HETATM    4  F   UNL     1      -8.482   6.568  73.071  1.00  0.00    -0.118 F  
HETATM    5  F   UNL     1     -10.042   6.896  74.546  1.00  0.00    -0.346 F  
HETATM    6  C   UNL     1     -11.657   9.490  70.566  1.00  0.00    -0.316 A  
HETATM    7  C   UNL     1     -12.305   8.870  71.633  1.00  0.00    -0.405 A  
HETATM    8  F   UNL     1      -8.482   8.385  74.267  1.00  0.00    -0.309 F  
HETATM    9  C   UNL     1     -13.814   8.774  71.635  1.00  0.00    -0.397 C  
HETATM   10  C   UNL     1     -11.533   8.238  72.620  1.00  0.00    -0.423 A  
HETATM   11  C   UNL     1      -9.294   7.525  73.595  1.00  0.00    -0.277 C  
HETATM   12  C   UNL     1     -10.128   8.217  72.541  1.00  0.00    -0.376 A  
HETATM   13  F   UNL     1     -14.403   9.529  70.667  1.00  0.00    -0.179 F  
HETATM   14  F   UNL     1     -14.235   7.500  71.421  1.00  0.00    -0.457 F  
HETATM   15  C   UNL     1      -9.504   8.798  71.425  1.00  0.00    -0.330 A  
HETATM   16  F   UNL     1     -14.366   9.168  72.811  1.00  0.00    -0.464 F  
ENDBRANCH   2   3
BRANCH   2  17
HETATM   17  O   UNL     1     -10.288  10.974  68.564  1.00  0.00    -0.174 OA 
BRANCH  17  18
HETATM   18  C   UNL     1      -9.342  12.043  68.320  1.00  0.00    -0.197 C  
HETATM   19  N   UNL     1     -10.831  13.403  66.800  1.00  0.00    -0.280 NA 
HETATM   20  C   UNL     1     -10.037  13.451  68.056  1.00  0.00    -0.241 C  
HETATM   21  O   UNL     1      -8.465  11.734  67.222  1.00  0.00    -0.147 OA 
HETATM   22  C   UNL     1      -9.209  11.652  66.001  1.00  0.00    -0.208 C  
HETATM   23  C   UNL     1      -9.947  12.961  65.695  1.00  0.00    -0.235 C  
BRANCH  19  24
HETATM   24  C   UNL     1     -11.622  14.590  66.432  1.00  0.00    -0.364 C  
BRANCH  24  25
HETATM   25  C   UNL     1     -10.838  15.890  66.405  1.00  0.00    -0.193 C  
HETATM   26  O   UNL     1     -10.169  18.607  69.401  1.00  0.00    -0.157 OA 
HETATM   27  O   UNL     1      -7.956  18.518  68.336  1.00  0.00    -0.296 OA 
HETATM   28  N   UNL     1      -9.842  16.099  65.581  1.00  0.00    -0.474 NA 
HETATM   29  O   UNL     1      -9.584  20.418  67.691  1.00  0.00    -0.392 OA 
HETATM   30  C   UNL     1      -9.314  17.314  65.956  1.00  0.00    -0.097 C  
HETATM   31  O   UNL     1      -8.234  17.765  65.601  1.00  0.00    -0.490 OA 
HETATM   32  P   UNL     1      -9.455  18.968  68.001  1.00  0.00    -0.356 P  
HETATM   33  N   UNL     1     -10.103  17.864  66.932  1.00  0.00    -0.332 N  
HETATM   34  N   UNL     1     -11.121  16.939  67.249  1.00  0.00    -0.015 NA 
ENDBRANCH  24  25
ENDBRANCH  19  24
BRANCH  20  35
HETATM   35  C   UNL     1     -10.778  13.896  69.314  1.00  0.00    -0.117 A  
HETATM   36  C   UNL     1     -12.633  13.592  70.873  1.00  0.00    -0.414 A  
HETATM   37  F   UNL     1     -13.130  15.304  72.419  1.00  0.00    -0.346 F  
HETATM   38  C   UNL     1     -11.850  13.125  69.813  1.00  0.00    -0.386 A  
HETATM   39  C   UNL     1     -11.293  15.603  70.972  1.00  0.00    -0.426 A  
HETATM   40  C   UNL     1     -10.500  15.131  69.923  1.00  0.00    -0.234 A  
HETATM   41  C   UNL     1     -12.354  14.837  71.432  1.00  0.00    -0.337 A  
ENDBRANCH  20  35
ENDBRANCH  17  18
ENDBRANCH   2  17
TORSDOF 6
ENDMDL
MODEL        8
REMARK 921   NORMALIZED FREE ENERGY PREDICTED BY IDOCK:   -9.14 KCAL/MOL
REMARK 922        TOTAL FREE ENERGY PREDICTED BY IDOCK:  -13.24 KCAL/MOL
REMARK 923 INTER-LIGAND FREE ENERGY PREDICTED BY IDOCK:  -11.67 KCAL/MOL
REMARK 924 INTRA-LIGAND FREE ENERGY PREDICTED BY IDOCK:   -1.57 KCAL/MOL
REMARK 927      BINDING AFFINITY PREDICTED BY RF-SCORE:    0.00 PKD
ROOT
HETATM    1  C   UNL     1     -10.428  14.818  65.035  1.00  0.00    -0.443 C  
HETATM    2  C   UNL     1     -10.695  15.223  66.479  1.00  0.00    -0.311 C  
ENDROOT
BRANCH   2   3
HETATM    3  C   UNL     1      -9.739  16.288  66.973  1.00  0.00    -0.244 A  
HETATM    4  F   UNL     1      -6.990  15.686  70.193  1.00  0.00    -0.134 F  
HETATM    5  F   UNL     1      -6.206  17.699  69.962  1.00  0.00    -0.244 F  
HETATM    6  C   UNL     1     -10.128  17.626  66.833  1.00  0.00    -0.331 A  
HETATM    7  C   UNL     1      -9.486  18.640  67.542  1.00  0.00    -0.311 A  
HETATM    8  F   UNL     1      -5.663  16.153  68.533  1.00  0.00    -0.102 F  
HETATM    9  C   UNL     1     -10.082  20.030  67.559  1.00  0.00    -0.425 C  
HETATM   10  C   UNL     1      -8.368  18.317  68.325  1.00  0.00    -0.316 A  
HETATM   11  C   UNL     1      -6.702  16.638  69.265  1.00  0.00    -0.221 C  
HETATM   12  C   UNL     1      -7.898  16.993  68.409  1.00  0.00    -0.233 A  
HETATM   13  F   UNL     1     -11.096  20.193  66.665  1.00  0.00    -0.441 F  
HETATM   14  F   UNL     1     -10.606  20.335  68.775  1.00  0.00    -0.519 F  
HETATM   15  C   UNL     1      -8.599  15.981  67.733  1.00  0.00    -0.168 A  
HETATM   16  F   UNL     1      -9.171  20.997  67.280  1.00  0.00    -0.499 F  
ENDBRANCH   2   3
BRANCH   2  17
HETATM   17  O   UNL     1     -10.660  14.073  67.342  1.00  0.00    -0.274 OA 
BRANCH  17  18
HETATM   18  C   UNL     1     -11.938  13.403  67.472  1.00  0.00    -0.339 C  
HETATM   19  N   UNL     1     -11.173  11.645  69.116  1.00  0.00    -0.246 NA 
HETATM   20  C   UNL     1     -12.157  12.739  68.902  1.00  0.00    -0.135 C  
HETATM   21  O   UNL     1     -12.119  12.405  66.453  1.00  0.00    -0.607 OA 
HETATM   22  C   UNL     1     -11.163  11.350  66.616  1.00  0.00    -0.231 C  
HETATM   23  C   UNL     1     -11.280  10.684  67.992  1.00  0.00    -0.307 C  
BRANCH  19  24
HETATM   24  C   UNL     1     -11.163  10.966  70.423  1.00  0.00    -0.105 C  
BRANCH  24  25
HETATM   25  C   UNL     1     -10.308   9.713  70.480  1.00  0.00    -0.295 C  
HETATM   26  O   UNL     1     -11.176   5.894  69.272  1.00  0.00    -0.363 OA 
HETATM   27  O   UNL     1      -8.858   6.125  68.490  1.00  0.00    -0.115 OA 
HETATM   28  N   UNL     1      -8.999   9.747  70.454  1.00  0.00    -0.175 NA 
HETATM   29  O   UNL     1      -9.310   4.953  70.748  1.00  0.00    -0.137 OA 
HETATM   30  C   UNL     1      -8.607   8.429  70.383  1.00  0.00    -0.136 C  
HETATM   31  O   UNL     1      -7.484   8.032  70.103  1.00  0.00    -0.070 OA 
HETATM   32  P   UNL     1      -9.687   6.085  69.859  1.00  0.00    -0.175 P  
HETATM   33  N   UNL     1      -9.711   7.625  70.497  1.00  0.00    -0.182 N  
HETATM   34  N   UNL     1     -10.853   8.452  70.563  1.00  0.00    -0.229 NA 
ENDBRANCH  24  25
ENDBRANCH  19  24
BRANCH  20  35
HETATM   35  C   UNL     1     -12.205  13.831  69.969  1.00  0.00    -0.407 A  
HETATM   36  C   UNL     1     -11.110  15.686  71.119  1.00  0.00    -0.345 A  
HETATM   37  F   UNL     1     -12.034  16.496  73.134  1.00  0.00    -0.556 F  
HETATM   38  C   UNL     1     -11.159  14.774  70.060  1.00  0.00    -0.240 A  
HETATM   39  C   UNL     1     -13.151  14.747  72.017  1.00  0.00    -0.421 A  
HETATM   40  C   UNL     1     -13.208  13.845  70.950  1.00  0.00    -0.196 A  
HETATM   41  C   UNL     1     -12.102  15.652  72.097  1.00  0.00    -0.448 A  
ENDBRANCH  20  35
ENDBRANCH  17  18
ENDBRANCH   2  17
TORSDOF 6
ENDMDL
MODEL        9
REMARK 921   NORMALIZED FREE ENERGY PREDICTED BY IDOCK:   -9.12 KCAL/MOL
REMARK 922        TOTAL FREE ENERGY PREDICTED BY IDOCK:  -13.23 KCAL/MOL
REMARK 923 INTER-LIGAND FREE ENERGY PREDICTED BY IDOCK:  -12.06 KCAL/MOL
REMARK 924 INTRA-LIGAND FREE ENERGY PREDICTED BY IDOCK:   -1.16 KCAL/MOL
REMARK 927      BINDING AFFINITY PREDICTED BY RF-SCORE:    0.00 PKD
ROOT
HETATM    1  C   UNL     1     -12.976  12.062  71.753  1.00  0.00    -0.445 C  
HETATM    2  C   UNL     1     -12.311  11.831  70.403  1.00  0.00    -0.277 C  
ENDROOT
BRANCH   2   3
HETATM    3  C   UNL     1     -11.420  10.605  70.393  1.00  0.00    -0.422 A  
HETATM    4  F   UNL     1     -11.343   7.716  73.544  1.00  0.00    -0.372 F  
HETATM    5  F   UNL     1      -9.873   6.524  72.478  1.00  0.00    -0.165 F  
HETATM    6  C   UNL     1     -10.204  10.692  69.704  1.00  0.00    -0.156 A  
HETATM    7  C   UNL     1      -9.192   9.757  69.912  1.00  0.00    -0.263 A  
HETATM    8  F   UNL     1     -11.949   6.517  71.832  1.00  0.00    -0.325 F  
HETATM    9  C   UNL     1      -7.813  10.013  69.346  1.00  0.00    -0.141 C  
HETATM   10  C   UNL     1      -9.443   8.660  70.750  1.00  0.00    -0.231 A  
HETATM   11  C   UNL     1     -10.960   7.327  72.297  1.00  0.00    -0.249 C  
HETATM   12  C   UNL     1     -10.690   8.500  71.382  1.00  0.00    -0.317 A  
HETATM   13  F   UNL     1      -7.774  11.059  68.474  1.00  0.00    -0.094 F  
HETATM   14  F   UNL     1      -6.917  10.310  70.323  1.00  0.00    -0.118 F  
HETATM   15  C   UNL     1     -11.673   9.486  71.202  1.00  0.00    -0.438 A  
HETATM   16  F   UNL     1      -7.311   8.943  68.676  1.00  0.00    -0.072 F  
ENDBRANCH   2   3
BRANCH   2  17
HETATM   17  O   UNL     1     -11.572  12.995  69.996  1.00  0.00    -0.235 OA 
BRANCH  17  18
HETATM   18  C   UNL     1     -12.404  14.069  69.494  1.00  0.00    -0.229 C  
HETATM   19  N   UNL     1     -10.526  15.478  68.565  1.00  0.00    -0.233 NA 
HETATM   20  C   UNL     1     -11.796  14.789  68.212  1.00  0.00    -0.284 C  
HETATM   21  O   UNL     1     -12.671  15.052  70.509  1.00  0.00    -0.353 OA 
HETATM   22  C   UNL     1     -11.458  15.712  70.891  1.00  0.00    -0.390 C  
HETATM   23  C   UNL     1     -10.784  16.399  69.697  1.00  0.00    -0.337 C  
BRANCH  19  24
HETATM   24  C   UNL     1      -9.767  16.132  67.484  1.00  0.00    -0.233 C  
BRANCH  24  25
HETATM   25  C   UNL     1      -9.153  17.468  67.859  1.00  0.00    -0.261 C  
HETATM   26  O   UNL     1      -5.450  18.305  69.405  1.00  0.00    -0.191 OA 
HETATM   27  O   UNL     1      -5.699  20.115  67.760  1.00  0.00    -0.187 OA 
HETATM   28  N   UNL     1      -9.502  18.593  67.287  1.00  0.00    -0.294 NA 
HETATM   29  O   UNL     1      -6.262  20.584  70.237  1.00  0.00    -0.452 OA 
HETATM   30  C   UNL     1      -8.635  19.537  67.792  1.00  0.00    -0.315 C  
HETATM   31  O   UNL     1      -8.466  20.663  67.344  1.00  0.00    -0.334 OA 
HETATM   32  P   UNL     1      -6.364  19.603  69.123  1.00  0.00    -0.344 P  
HETATM   33  N   UNL     1      -7.860  18.960  68.763  1.00  0.00    -0.337 N  
HETATM   34  N   UNL     1      -8.183  17.588  68.827  1.00  0.00    -0.257 NA 
ENDBRANCH  24  25
ENDBRANCH  19  24
BRANCH  20  35
HETATM   35  C   UNL     1     -11.734  13.798  67.052  1.00  0.00    -0.420 A  
HETATM   36  C   UNL     1     -10.563  11.993  65.898  1.00  0.00    -0.302 A  
HETATM   37  F   UNL     1     -11.219  11.412  63.707  1.00  0.00    -0.435 F  
HETATM   38  C   UNL     1     -10.726  12.811  67.020  1.00  0.00    -0.272 A  
HETATM   39  C   UNL     1     -12.412  13.116  64.815  1.00  0.00    -0.460 A  
HETATM   40  C   UNL     1     -12.586  13.924  65.943  1.00  0.00    -0.498 A  
HETATM   41  C   UNL     1     -11.401  12.165  64.798  1.00  0.00    -0.325 A  
ENDBRANCH  20  35
ENDBRANCH  17  18
ENDBRANCH   2  17
TORSDOF 6
ENDMDL
MODEL       10
REMARK 921   NORMALIZED FREE ENERGY PREDICTED BY IDOCK:   -9.06 KCAL/MOL
REMARK 922        TOTAL FREE ENERGY PREDICTED BY IDOCK:  -13.14 KCAL/MOL
REMARK 923 INTER-LIGAND FREE ENERGY PREDICTED BY IDOCK:   -9.90 KCAL/MOL
REMARK 924 INTRA-LIGAND FREE ENERGY PREDICTED BY IDOCK:   -3.24 KCAL/MOL
REMARK 927      BINDING AFFINITY PREDICTED BY RF-SCORE:    0.00 PKD
ROOT
HETATM    1  C   UNL     1     -10.741   4.973  66.317  1.00  0.00    -0.262 C  
HETATM    2  C   UNL     1      -9.781   5.605  67.316  1.00  0.00    -0.135 C  
ENDROOT
BRANCH   2   3
HETATM    3  C   UNL     1     -10.265   5.483  68.747  1.00  0.00    -0.270 A  
HETATM    4  F   UNL     1     -12.371   8.587  70.800  1.00  0.00    -0.250 F  
HETATM    5  F   UNL     1     -12.560   7.349  72.575  1.00  0.00    -0.178 F  
HETATM    6  C   UNL     1      -9.536   4.657  69.611  1.00  0.00    -0.232 A  
HETATM    7  C   UNL     1      -9.698   4.740  70.993  1.00  0.00    -0.257 A  
HETATM    8  F   UNL     1     -13.806   6.951  70.838  1.00  0.00    -0.341 F  
HETATM    9  C   UNL     1      -8.730   4.017  71.902  1.00  0.00    -0.104 C  
HETATM   10  C   UNL     1     -10.682   5.595  71.510  1.00  0.00    -0.306 A  
HETATM   11  C   UNL     1     -12.546   7.302  71.213  1.00  0.00    -0.366 C  
HETATM   12  C   UNL     1     -11.493   6.368  70.658  1.00  0.00    -0.426 A  
HETATM   13  F   UNL     1      -7.911   3.153  71.239  1.00  0.00    -0.054 F  
HETATM   14  F   UNL     1      -7.908   4.884  72.550  1.00  0.00    -0.086 F  
HETATM   15  C   UNL     1     -11.270   6.311  69.273  1.00  0.00    -0.458 A  
HETATM   16  F   UNL     1      -9.353   3.287  72.862  1.00  0.00    -0.100 F  
ENDBRANCH   2   3
BRANCH   2  17
HETATM   17  O   UNL     1      -9.535   6.981  66.982  1.00  0.00    -0.137 OA 
BRANCH  17  18
HETATM   18  C   UNL     1      -8.128   7.321  66.910  1.00  0.00    -0.120 C  
HETATM   19  N   UNL     1      -8.448   9.812  66.649  1.00  0.00    -0.124 NA 
HETATM   20  C   UNL     1      -7.801   8.768  67.486  1.00  0.00    -0.102 C  
HETATM   21  O   UNL     1      -7.627   7.221  65.566  1.00  0.00    -0.087 OA 
HETATM   22  C   UNL     1      -8.256   8.197  64.728  1.00  0.00    -0.133 C  
HETATM   23  C   UNL     1      -8.023   9.623  65.241  1.00  0.00    -0.115 C  
BRANCH  19  24
HETATM   24  C   UNL     1      -8.331  11.217  67.076  1.00  0.00    -0.153 C  
BRANCH  24  25
HETATM   25  C   UNL     1      -9.525  12.088  66.730  1.00  0.00    -0.208 C  
HETATM   26  O   UNL     1     -11.484  12.547  63.160  1.00  0.00    -0.414 OA 
HETATM   27  O   UNL     1     -13.371  12.475  64.732  1.00  0.00    -0.773 OA 
HETATM   28  N   UNL     1     -10.425  12.439  67.615  1.00  0.00    -0.213 NA 
HETATM   29  O   UNL     1     -12.484  14.769  63.941  1.00  0.00    -0.811 OA 
HETATM   30  C   UNL     1     -11.399  13.094  66.895  1.00  0.00    -0.318 C  
HETATM   31  O   UNL     1     -12.520  13.373  67.300  1.00  0.00    -0.194 OA 
HETATM   32  P   UNL     1     -12.111  13.396  64.378  1.00  0.00    -0.407 P  
HETATM   33  N   UNL     1     -10.985  13.227  65.596  1.00  0.00    -0.276 N  
HETATM   34  N   UNL     1      -9.744  12.567  65.460  1.00  0.00    -0.178 NA 
ENDBRANCH  24  25
ENDBRANCH  19  24
BRANCH  20  35
HETATM   35  C   UNL     1      -8.112   8.804  68.981  1.00  0.00    -0.116 A  
HETATM   36  C   UNL     1      -7.758   7.892  71.218  1.00  0.00    -0.086 A  
HETATM   37  F   UNL     1      -9.238   8.494  72.954  1.00  0.00    -0.308 F  
HETATM   38  C   UNL     1      -7.389   7.983  69.873  1.00  0.00    -0.066 A  
HETATM   39  C   UNL     1      -9.572   9.442  70.822  1.00  0.00    -0.322 A  
HETATM   40  C   UNL     1      -9.194   9.546  69.480  1.00  0.00    -0.198 A  
HETATM   41  C   UNL     1      -8.858   8.613  71.676  1.00  0.00    -0.223 A  
ENDBRANCH  20  35
ENDBRANCH  17  18
ENDBRANCH   2  17
TORSDOF 6
ENDMDL
MODEL       11
REMARK 921   NORMALIZED FREE ENERGY PREDICTED BY IDOCK:   -9.05 KCAL/MOL
REMARK 922        TOTAL FREE ENERGY PREDICTED BY IDOCK:  -13.13 KCAL/MOL
REMARK 923 INTER-LIGAND FREE ENERGY PREDICTED BY IDOCK:  -11.97 KCAL/MOL
REMARK 924 INTRA-LIGAND FREE ENERGY PREDICTED BY IDOCK:   -1.16 KCAL/MOL
REMARK 927      BINDING AFFINITY PREDICTED BY RF-SCORE:    0.00 PKD
ROOT
HETATM    1  C   UNL     1     -10.363   8.525  67.701  1.00  0.00    -0.317 C  
HETATM    2  C   UNL     1      -9.754   9.484  68.716  1.00  0.00    -0.159 C  
ENDROOT
BRANCH   2   3
HETATM    3  C   UNL     1     -10.253   9.236  70.125  1.00  0.00    -0.251 A  
HETATM    4  F   UNL     1      -8.256   6.696  72.927  1.00  0.00    -0.107 F  
HETATM    5  F   UNL     1      -9.738   7.135  74.453  1.00  0.00    -0.283 F  
HETATM    6  C   UNL     1     -11.634   9.311  70.348  1.00  0.00    -0.215 A  
HETATM    7  C   UNL     1     -12.206   8.784  71.504  1.00  0.00    -0.382 A  
HETATM    8  F   UNL     1      -8.231   8.619  73.946  1.00  0.00    -0.270 F  
HETATM    9  C   UNL     1     -13.709   8.661  71.602  1.00  0.00    -0.384 C  
HETATM   10  C   UNL     1     -11.366   8.262  72.499  1.00  0.00    -0.455 A  
HETATM   11  C   UNL     1      -9.060   7.684  73.405  1.00  0.00    -0.241 C  
HETATM   12  C   UNL     1      -9.967   8.259  72.341  1.00  0.00    -0.379 A  
HETATM   13  F   UNL     1     -14.370   9.311  70.604  1.00  0.00    -0.198 F  
HETATM   14  F   UNL     1     -14.113   7.366  71.533  1.00  0.00    -0.439 F  
HETATM   15  C   UNL     1      -9.420   8.742  71.142  1.00  0.00    -0.306 A  
HETATM   16  F   UNL     1     -14.204   9.155  72.766  1.00  0.00    -0.475 F  
ENDBRANCH   2   3
BRANCH   2  17
HETATM   17  O   UNL     1      -9.989  10.848  68.330  1.00  0.00    -0.166 OA 
BRANCH  17  18
HETATM   18  C   UNL     1     -11.096  11.011  67.410  1.00  0.00    -0.305 C  
HETATM   19  N   UNL     1     -10.453  13.312  66.592  1.00  0.00    -0.276 NA 
HETATM   20  C   UNL     1     -10.741  11.921  66.153  1.00  0.00    -0.278 C  
HETATM   21  O   UNL     1     -12.258  11.545  68.068  1.00  0.00    -0.582 OA 
HETATM   22  C   UNL     1     -12.000  12.876  68.529  1.00  0.00    -0.234 C  
HETATM   23  C   UNL     1     -11.607  13.810  67.378  1.00  0.00    -0.362 C  
BRANCH  19  24
HETATM   24  C   UNL     1     -10.017  14.285  65.575  1.00  0.00    -0.312 C  
BRANCH  24  25
HETATM   25  C   UNL     1     -10.003  15.728  66.043  1.00  0.00    -0.332 C  
HETATM   26  O   UNL     1      -7.152  17.760  68.176  1.00  0.00    -0.206 OA 
HETATM   27  O   UNL     1      -7.793  19.449  66.508  1.00  0.00    -0.259 OA 
HETATM   28  N   UNL     1     -10.648  16.682  65.418  1.00  0.00    -0.580 NA 
HETATM   29  O   UNL     1      -8.863  19.536  68.858  1.00  0.00    -0.355 OA 
HETATM   30  C   UNL     1     -10.278  17.844  66.058  1.00  0.00    -0.295 C  
HETATM   31  O   UNL     1     -10.467  18.979  65.642  1.00  0.00    -0.554 OA 
HETATM   32  P   UNL     1      -8.424  18.652  67.745  1.00  0.00    -0.285 P  
HETATM   33  N   UNL     1      -9.505  17.532  67.144  1.00  0.00    -0.253 N  
HETATM   34  N   UNL     1      -9.306  16.135  67.157  1.00  0.00    -0.212 NA 
ENDBRANCH  24  25
ENDBRANCH  19  24
BRANCH  20  35
HETATM   35  C   UNL     1      -9.664  11.234  65.315  1.00  0.00    -0.280 A  
HETATM   36  C   UNL     1      -9.073   9.804  63.427  1.00  0.00    -0.262 A  
HETATM   37  F   UNL     1      -6.879   8.947  63.275  1.00  0.00    -0.090 F  
HETATM   38  C   UNL     1     -10.017  10.561  64.126  1.00  0.00    -0.385 A  
HETATM   39  C   UNL     1      -7.398  10.376  65.076  1.00  0.00    -0.070 A  
HETATM   40  C   UNL     1      -8.338  11.146  65.768  1.00  0.00    -0.041 A  
HETATM   41  C   UNL     1      -7.774   9.706  63.920  1.00  0.00    -0.131 A  
ENDBRANCH  20  35
ENDBRANCH  17  18
ENDBRANCH   2  17
TORSDOF 6
ENDMDL
MODEL       12
REMARK 921   NORMALIZED FREE ENERGY PREDICTED BY IDOCK:   -8.90 KCAL/MOL
REMARK 922        TOTAL FREE ENERGY PREDICTED BY IDOCK:  -12.93 KCAL/MOL
REMARK 923 INTER-LIGAND FREE ENERGY PREDICTED BY IDOCK:  -11.25 KCAL/MOL
REMARK 924 INTRA-LIGAND FREE ENERGY PREDICTED BY IDOCK:   -1.68 KCAL/MOL
REMARK 927      BINDING AFFINITY PREDICTED BY RF-SCORE:    0.00 PKD
ROOT
HETATM    1  C   UNL     1     -11.521  11.783  66.090  1.00  0.00    -0.288 C  
HETATM    2  C   UNL     1     -10.621  12.125  67.271  1.00  0.00    -0.227 C  
ENDROOT
BRANCH   2   3
HETATM    3  C   UNL     1     -10.767  11.146  68.418  1.00  0.00    -0.234 A  
HETATM    4  F   UNL     1     -13.229  11.865  71.840  1.00  0.00    -0.531 F  
HETATM    5  F   UNL     1     -12.715   9.927  72.675  1.00  0.00    -0.323 F  
HETATM    6  C   UNL     1      -9.682  10.305  68.695  1.00  0.00    -0.171 A  
HETATM    7  C   UNL     1      -9.592   9.623  69.907  1.00  0.00    -0.260 A  
HETATM    8  F   UNL     1     -14.107  10.056  71.009  1.00  0.00    -0.182 F  
HETATM    9  C   UNL     1      -8.304   8.923  70.275  1.00  0.00    -0.147 C  
HETATM   10  C   UNL     1     -10.660   9.707  70.814  1.00  0.00    -0.392 A  
HETATM   11  C   UNL     1     -12.950  10.577  71.500  1.00  0.00    -0.460 C  
HETATM   12  C   UNL     1     -11.804  10.472  70.519  1.00  0.00    -0.442 A  
HETATM   13  F   UNL     1      -7.418   8.847  69.243  1.00  0.00    -0.068 F  
HETATM   14  F   UNL     1      -7.652   9.567  71.278  1.00  0.00    -0.107 F  
HETATM   15  C   UNL     1     -11.844  11.197  69.317  1.00  0.00    -0.422 A  
HETATM   16  F   UNL     1      -8.498   7.648  70.701  1.00  0.00    -0.119 F  
ENDBRANCH   2   3
BRANCH   2  17
HETATM   17  O   UNL     1     -10.863  13.469  67.720  1.00  0.00    -0.246 OA 
BRANCH  17  18
HETATM   18  C   UNL     1      -9.739  14.062  68.416  1.00  0.00    -0.223 C  
HETATM   19  N   UNL     1     -10.318  16.465  67.898  1.00  0.00    -0.276 NA 
HETATM   20  C   UNL     1     -10.055  15.507  69.005  1.00  0.00    -0.234 C  
HETATM   21  O   UNL     1      -8.576  14.137  67.575  1.00  0.00    -0.167 OA 
HETATM   22  C   UNL     1      -8.810  15.032  66.481  1.00  0.00    -0.251 C  
HETATM   23  C   UNL     1      -9.165  16.443  66.967  1.00  0.00    -0.221 C  
BRANCH  19  24
HETATM   24  C   UNL     1     -10.716  17.839  68.250  1.00  0.00    -0.247 C  
BRANCH  24  25
HETATM   25  C   UNL     1      -9.571  18.833  68.320  1.00  0.00    -0.353 C  
HETATM   26  O   UNL     1      -5.859  18.436  70.012  1.00  0.00    -0.237 OA 
HETATM   27  O   UNL     1      -5.306  19.605  67.921  1.00  0.00    -0.176 OA 
HETATM   28  N   UNL     1      -9.396  19.776  67.428  1.00  0.00    -0.324 NA 
HETATM   29  O   UNL     1      -5.573  20.977  70.094  1.00  0.00    -0.543 OA 
HETATM   30  C   UNL     1      -8.196  20.365  67.758  1.00  0.00    -0.175 C  
HETATM   31  O   UNL     1      -7.553  21.125  67.047  1.00  0.00    -0.284 OA 
HETATM   32  P   UNL     1      -6.111  19.851  69.283  1.00  0.00    -0.340 P  
HETATM   33  N   UNL     1      -7.742  19.829  68.935  1.00  0.00    -0.277 N  
HETATM   34  N   UNL     1      -8.636  18.810  69.328  1.00  0.00     0.059 NA 
ENDBRANCH  24  25
ENDBRANCH  19  24
BRANCH  20  35
HETATM   35  C   UNL     1     -11.135  15.394  70.079  1.00  0.00    -0.317 A  
HETATM   36  C   UNL     1     -13.502  15.383  70.679  1.00  0.00    -0.213 A  
HETATM   37  F   UNL     1     -14.114  15.585  72.949  1.00  0.00    -0.561 F  
HETATM   38  C   UNL     1     -12.496  15.337  69.709  1.00  0.00    -0.223 A  
HETATM   39  C   UNL     1     -11.820  15.535  72.411  1.00  0.00    -0.570 A  
HETATM   40  C   UNL     1     -10.813  15.473  71.443  1.00  0.00    -0.028 A  
HETATM   41  C   UNL     1     -13.152  15.497  72.022  1.00  0.00    -0.448 A  
ENDBRANCH  20  35
ENDBRANCH  17  18
ENDBRANCH   2  17
TORSDOF 6
ENDMDL
MODEL       13
REMARK 921   NORMALIZED FREE ENERGY PREDICTED BY IDOCK:   -8.88 KCAL/MOL
REMARK 922        TOTAL FREE ENERGY PREDICTED BY IDOCK:  -12.89 KCAL/MOL
REMARK 923 INTER-LIGAND FREE ENERGY PREDICTED BY IDOCK:  -11.78 KCAL/MOL
REMARK 924 INTRA-LIGAND FREE ENERGY PREDICTED BY IDOCK:   -1.12 KCAL/MOL
REMARK 927      BINDING AFFINITY PREDICTED BY RF-SCORE:    0.00 PKD
ROOT
HETATM    1  C   UNL     1     -12.705  11.936  71.321  1.00  0.00    -0.401 C  
HETATM    2  C   UNL     1     -12.261  11.714  69.881  1.00  0.00    -0.239 C  
ENDROOT
BRANCH   2   3
HETATM    3  C   UNL     1     -11.503  10.416  69.697  1.00  0.00    -0.326 A  
HETATM    4  F   UNL     1      -8.847   8.796  72.631  1.00  0.00    -0.286 F  
HETATM    5  F   UNL     1      -8.445   7.066  71.381  1.00  0.00    -0.112 F  
HETATM    6  C   UNL     1     -11.165  10.040  68.391  1.00  0.00    -0.187 A  
HETATM    7  C   UNL     1     -10.203   9.061  68.151  1.00  0.00    -0.247 A  
HETATM    8  F   UNL     1     -10.338   7.223  72.439  1.00  0.00    -0.202 F  
HETATM    9  C   UNL     1      -9.687   8.853  66.745  1.00  0.00    -0.219 C  
HETATM   10  C   UNL     1      -9.644   8.377  69.240  1.00  0.00    -0.164 A  
HETATM   11  C   UNL     1      -9.423   7.946  71.738  1.00  0.00    -0.158 C  
HETATM   12  C   UNL     1     -10.034   8.671  70.560  1.00  0.00    -0.220 A  
HETATM   13  F   UNL     1     -10.410   9.517  65.801  1.00  0.00    -0.353 F  
HETATM   14  F   UNL     1      -8.408   9.292  66.609  1.00  0.00    -0.116 F  
HETATM   15  C   UNL     1     -10.962   9.702  70.779  1.00  0.00    -0.397 A  
HETATM   16  F   UNL     1      -9.686   7.547  66.371  1.00  0.00    -0.241 F  
ENDBRANCH   2   3
BRANCH   2  17
HETATM   17  O   UNL     1     -11.478  12.826  69.415  1.00  0.00    -0.271 OA 
BRANCH  17  18
HETATM   18  C   UNL     1     -12.272  13.962  68.993  1.00  0.00    -0.239 C  
HETATM   19  N   UNL     1     -10.337  15.401  68.241  1.00  0.00    -0.234 NA 
HETATM   20  C   UNL     1     -11.614  14.780  67.797  1.00  0.00    -0.357 C  
HETATM   21  O   UNL     1     -12.541  14.856  70.087  1.00  0.00    -0.317 OA 
HETATM   22  C   UNL     1     -11.324  15.447  70.556  1.00  0.00    -0.326 C  
HETATM   23  C   UNL     1     -10.603  16.222  69.447  1.00  0.00    -0.301 C  
BRANCH  19  24
HETATM   24  C   UNL     1      -9.535  16.130  67.244  1.00  0.00    -0.226 C  
BRANCH  24  25
HETATM   25  C   UNL     1      -8.975  17.456  67.726  1.00  0.00    -0.236 C  
HETATM   26  O   UNL     1      -5.385  18.283  69.522  1.00  0.00    -0.188 OA 
HETATM   27  O   UNL     1      -5.587  20.177  67.968  1.00  0.00    -0.195 OA 
HETATM   28  N   UNL     1      -9.320  18.604  67.198  1.00  0.00    -0.285 NA 
HETATM   29  O   UNL     1      -6.297  20.494  70.432  1.00  0.00    -0.455 OA 
HETATM   30  C   UNL     1      -8.506  19.536  67.802  1.00  0.00    -0.315 C  
HETATM   31  O   UNL     1      -8.339  20.689  67.428  1.00  0.00    -0.334 OA 
HETATM   32  P   UNL     1      -6.314  19.575  69.262  1.00  0.00    -0.337 P  
HETATM   33  N   UNL     1      -7.771  18.921  68.783  1.00  0.00    -0.338 N  
HETATM   34  N   UNL     1      -8.064  17.541  68.752  1.00  0.00    -0.263 NA 
ENDBRANCH  24  25
ENDBRANCH  19  24
BRANCH  20  35
HETATM   35  C   UNL     1     -11.545  13.898  66.553  1.00  0.00    -0.385 A  
HETATM   36  C   UNL     1     -10.256  12.414  65.104  1.00  0.00    -0.305 A  
HETATM   37  F   UNL     1     -11.099  11.875  62.967  1.00  0.00    -0.357 F  
HETATM   38  C   UNL     1     -10.399  13.111  66.307  1.00  0.00    -0.291 A  
HETATM   39  C   UNL     1     -12.399  13.258  64.364  1.00  0.00    -0.410 A  
HETATM   40  C   UNL     1     -12.550  13.943  65.573  1.00  0.00    -0.560 A  
HETATM   41  C   UNL     1     -11.254  12.508  64.137  1.00  0.00    -0.382 A  
ENDBRANCH  20  35
ENDBRANCH  17  18
ENDBRANCH   2  17
TORSDOF 6
ENDMDL
MODEL       14
REMARK 921   NORMALIZED FREE ENERGY PREDICTED BY IDOCK:   -8.77 KCAL/MOL
REMARK 922        TOTAL FREE ENERGY PREDICTED BY IDOCK:  -12.75 KCAL/MOL
REMARK 923 INTER-LIGAND FREE ENERGY PREDICTED BY IDOCK:  -10.56 KCAL/MOL
REMARK 924 INTRA-LIGAND FREE ENERGY PREDICTED BY IDOCK:   -2.19 KCAL/MOL
REMARK 927      BINDING AFFINITY PREDICTED BY RF-SCORE:    0.00 PKD
ROOT
HETATM    1  C   UNL     1     -13.782   9.309  71.624  1.00  0.00    -0.421 C  
HETATM    2  C   UNL     1     -12.423   9.998  71.588  1.00  0.00    -0.418 C  
ENDROOT
BRANCH   2   3
HETATM    3  C   UNL     1     -12.477  11.360  70.928  1.00  0.00    -0.478 A  
HETATM    4  F   UNL     1     -10.064  12.454  67.571  1.00  0.00    -0.196 F  
HETATM    5  F   UNL     1     -10.976  14.423  67.497  1.00  0.00    -0.271 F  
HETATM    6  C   UNL     1     -12.826  12.456  71.726  1.00  0.00    -0.350 A  
HETATM    7  C   UNL     1     -12.583  13.761  71.303  1.00  0.00    -0.444 A  
HETATM    8  F   UNL     1     -12.080  12.690  66.788  1.00  0.00    -0.438 F  
HETATM    9  C   UNL     1     -12.744  14.904  72.280  1.00  0.00    -0.332 C  
HETATM   10  C   UNL     1     -12.074  13.972  70.013  1.00  0.00    -0.412 A  
HETATM   11  C   UNL     1     -11.237  13.113  67.768  1.00  0.00    -0.277 C  
HETATM   12  C   UNL     1     -11.800  12.890  69.154  1.00  0.00    -0.353 A  
HETATM   13  F   UNL     1     -13.346  14.536  73.445  1.00  0.00    -0.561 F  
HETATM   14  F   UNL     1     -11.543  15.434  72.633  1.00  0.00    -0.474 F  
HETATM   15  C   UNL     1     -11.999  11.583  69.627  1.00  0.00    -0.407 A  
HETATM   16  F   UNL     1     -13.482  15.927  71.778  1.00  0.00    -0.523 F  
ENDBRANCH   2   3
BRANCH   2  17
HETATM   17  O   UNL     1     -11.448   9.161  70.943  1.00  0.00    -0.269 OA 
BRANCH  17  18
HETATM   18  C   UNL     1     -10.646   8.383  71.865  1.00  0.00    -0.300 C  
HETATM   19  N   UNL     1      -9.717   6.777  70.152  1.00  0.00    -0.168 NA 
HETATM   20  C   UNL     1      -9.340   7.766  71.197  1.00  0.00    -0.150 C  
HETATM   21  O   UNL     1     -11.412   7.328  72.473  1.00  0.00    -0.289 OA 
HETATM   22  C   UNL     1     -11.815   6.374  71.483  1.00  0.00    -0.298 C  
HETATM   23  C   UNL     1     -10.610   5.761  70.759  1.00  0.00    -0.269 C  
BRANCH  19  24
HETATM   24  C   UNL     1      -8.639   6.161  69.359  1.00  0.00    -0.123 C  
BRANCH  24  25
HETATM   25  C   UNL     1      -8.282   6.907  68.086  1.00  0.00    -0.119 C  
HETATM   26  O   UNL     1     -10.359   9.822  66.089  1.00  0.00    -0.231 OA 
HETATM   27  O   UNL     1      -8.064  10.691  65.948  1.00  0.00    -0.153 OA 
HETATM   28  N   UNL     1      -7.045   7.103  67.704  1.00  0.00    -0.086 NA 
HETATM   29  O   UNL     1      -9.030   9.369  63.950  1.00  0.00    -0.216 OA 
HETATM   30  C   UNL     1      -7.135   7.923  66.601  1.00  0.00    -0.076 C  
HETATM   31  O   UNL     1      -6.208   8.533  66.087  1.00  0.00    -0.051 OA 
HETATM   32  P   UNL     1      -8.934   9.450  65.433  1.00  0.00    -0.220 P  
HETATM   33  N   UNL     1      -8.455   8.093  66.276  1.00  0.00    -0.124 N  
HETATM   34  N   UNL     1      -9.237   7.430  67.246  1.00  0.00    -0.129 NA 
ENDBRANCH  24  25
ENDBRANCH  19  24
BRANCH  20  35
HETATM   35  C   UNL     1      -8.408   8.895  70.762  1.00  0.00    -0.205 A  
HETATM   36  C   UNL     1      -7.948  10.778  69.277  1.00  0.00    -0.110 A  
HETATM   37  F   UNL     1      -5.764  11.668  69.191  1.00  0.00    -0.050 F  
HETATM   38  C   UNL     1      -8.836   9.830  69.795  1.00  0.00    -0.241 A  
HETATM   39  C   UNL     1      -6.189   9.893  70.682  1.00  0.00    -0.102 A  
HETATM   40  C   UNL     1      -7.080   8.954  71.212  1.00  0.00    -0.103 A  
HETATM   41  C   UNL     1      -6.626  10.789  69.717  1.00  0.00    -0.128 A  
ENDBRANCH  20  35
ENDBRANCH  17  18
ENDBRANCH   2  17
TORSDOF 6
ENDMDL
MODEL       15
REMARK 921   NORMALIZED FREE ENERGY PREDICTED BY IDOCK:   -8.75 KCAL/MOL
REMARK 922        TOTAL FREE ENERGY PREDICTED BY IDOCK:  -12.73 KCAL/MOL
REMARK 923 INTER-LIGAND FREE ENERGY PREDICTED BY IDOCK:  -11.35 KCAL/MOL
REMARK 924 INTRA-LIGAND FREE ENERGY PREDICTED BY IDOCK:   -1.37 KCAL/MOL
REMARK 927      BINDING AFFINITY PREDICTED BY RF-SCORE:    0.00 PKD
ROOT
HETATM    1  C   UNL     1      -7.472  11.731  67.758  1.00  0.00    -0.117 C  
HETATM    2  C   UNL     1      -8.983  11.753  67.565  1.00  0.00    -0.168 C  
ENDROOT
BRANCH   2   3
HETATM    3  C   UNL     1      -9.505  13.128  67.204  1.00  0.00    -0.239 A  
HETATM    4  F   UNL     1     -10.126  16.245  70.064  1.00  0.00    -0.227 F  
HETATM    5  F   UNL     1     -10.775  17.611  68.505  1.00  0.00    -0.341 F  
HETATM    6  C   UNL     1     -10.355  13.230  66.095  1.00  0.00    -0.290 A  
HETATM    7  C   UNL     1     -11.135  14.366  65.889  1.00  0.00    -0.319 A  
HETATM    8  F   UNL     1      -8.665  17.136  68.720  1.00  0.00    -0.250 F  
HETATM    9  C   UNL     1     -12.214  14.347  64.831  1.00  0.00    -0.433 C  
HETATM   10  C   UNL     1     -10.982  15.460  66.754  1.00  0.00    -0.282 A  
HETATM   11  C   UNL     1      -9.910  16.590  68.766  1.00  0.00    -0.254 C  
HETATM   12  C   UNL     1     -10.067  15.419  67.822  1.00  0.00    -0.227 A  
HETATM   13  F   UNL     1     -12.152  13.257  64.016  1.00  0.00    -0.416 F  
HETATM   14  F   UNL     1     -13.456  14.329  65.381  1.00  0.00    -0.426 F  
HETATM   15  C   UNL     1      -9.336  14.240  68.044  1.00  0.00    -0.200 A  
HETATM   16  F   UNL     1     -12.172  15.431  64.015  1.00  0.00    -0.463 F  
ENDBRANCH   2   3
BRANCH   2  17
HETATM   17  O   UNL     1      -9.650  11.250  68.734  1.00  0.00    -0.192 OA 
BRANCH  17  18
HETATM   18  C   UNL     1     -10.904  10.582  68.448  1.00  0.00    -0.240 C  
HETATM   19  N   UNL     1     -10.995   9.221  70.574  1.00  0.00    -0.248 NA 
HETATM   20  C   UNL     1     -11.735  10.218  69.756  1.00  0.00    -0.191 C  
HETATM   21  O   UNL     1     -10.704   9.392  67.667  1.00  0.00    -0.273 OA 
HETATM   22  C   UNL     1      -9.966   8.422  68.420  1.00  0.00    -0.187 C  
HETATM   23  C   UNL     1     -10.682   8.048  69.723  1.00  0.00    -0.231 C  
BRANCH  19  24
HETATM   24  C   UNL     1     -11.568   8.824  71.871  1.00  0.00    -0.361 C  
BRANCH  24  25
HETATM   25  C   UNL     1     -10.742   7.815  72.648  1.00  0.00    -0.343 C  
HETATM   26  O   UNL     1     -10.436   3.757  72.167  1.00  0.00    -0.102 OA 
HETATM   27  O   UNL     1      -8.091   4.365  72.583  1.00  0.00    -0.094 OA 
HETATM   28  N   UNL     1      -9.625   8.132  73.254  1.00  0.00    -0.246 NA 
HETATM   29  O   UNL     1      -9.530   3.496  74.545  1.00  0.00    -0.095 OA 
HETATM   30  C   UNL     1      -9.116   6.938  73.715  1.00  0.00    -0.168 C  
HETATM   31  O   UNL     1      -7.977   6.759  74.126  1.00  0.00    -0.109 OA 
HETATM   32  P   UNL     1      -9.504   4.361  73.335  1.00  0.00    -0.118 P  
HETATM   33  N   UNL     1     -10.023   5.940  73.474  1.00  0.00    -0.172 N  
HETATM   34  N   UNL     1     -11.110   6.496  72.766  1.00  0.00    -0.253 NA 
ENDBRANCH  24  25
ENDBRANCH  19  24
BRANCH  20  35
HETATM   35  C   UNL     1     -12.156  11.503  70.466  1.00  0.00    -0.472 A  
HETATM   36  C   UNL     1     -13.464  12.602  72.211  1.00  0.00    -0.541 A  
HETATM   37  F   UNL     1     -13.733  14.945  72.144  1.00  0.00    -0.375 F  
HETATM   38  C   UNL     1     -12.946  11.439  71.634  1.00  0.00    -0.523 A  
HETATM   39  C   UNL     1     -12.413  13.925  70.480  1.00  0.00    -0.422 A  
HETATM   40  C   UNL     1     -11.882  12.763  69.911  1.00  0.00    -0.371 A  
HETATM   41  C   UNL     1     -13.203  13.834  71.617  1.00  0.00    -0.371 A  
ENDBRANCH  20  35
ENDBRANCH  17  18
ENDBRANCH   2  17
TORSDOF 6
ENDMDL
MODEL       16
REMARK 921   NORMALIZED FREE ENERGY PREDICTED BY IDOCK:   -8.69 KCAL/MOL
REMARK 922        TOTAL FREE ENERGY PREDICTED BY IDOCK:  -12.64 KCAL/MOL
REMARK 923 INTER-LIGAND FREE ENERGY PREDICTED BY IDOCK:  -10.52 KCAL/MOL
REMARK 924 INTRA-LIGAND FREE ENERGY PREDICTED BY IDOCK:   -2.12 KCAL/MOL
REMARK 927      BINDING AFFINITY PREDICTED BY RF-SCORE:    0.00 PKD
ROOT
HETATM    1  C   UNL     1     -12.996   9.133  71.404  1.00  0.00    -0.366 C  
HETATM    2  C   UNL     1     -11.768   9.979  71.091  1.00  0.00    -0.387 C  
ENDROOT
BRANCH   2   3
HETATM    3  C   UNL     1     -12.123  11.313  70.466  1.00  0.00    -0.481 A  
HETATM    4  F   UNL     1     -10.208  12.869  66.974  1.00  0.00    -0.234 F  
HETATM    5  F   UNL     1     -11.475  14.633  67.008  1.00  0.00    -0.322 F  
HETATM    6  C   UNL     1     -12.612  12.317  71.311  1.00  0.00    -0.336 A  
HETATM    7  C   UNL     1     -12.648  13.648  70.901  1.00  0.00    -0.421 A  
HETATM    8  F   UNL     1     -12.285  12.729  66.339  1.00  0.00    -0.454 F  
HETATM    9  C   UNL     1     -12.947  14.732  71.912  1.00  0.00    -0.327 C  
HETATM   10  C   UNL     1     -12.282  13.962  69.583  1.00  0.00    -0.374 A  
HETATM   11  C   UNL     1     -11.467  13.295  67.267  1.00  0.00    -0.338 C  
HETATM   12  C   UNL     1     -11.875  12.958  68.684  1.00  0.00    -0.347 A  
HETATM   13  F   UNL     1     -13.384  14.248  73.108  1.00  0.00    -0.570 F  
HETATM   14  F   UNL     1     -11.844  15.475  72.192  1.00  0.00    -0.377 F  
HETATM   15  C   UNL     1     -11.792  11.633  69.140  1.00  0.00    -0.390 A  
HETATM   16  F   UNL     1     -13.898  15.602  71.486  1.00  0.00    -0.529 F  
ENDBRANCH   2   3
BRANCH   2  17
HETATM   17  O   UNL     1     -10.854   9.255  70.251  1.00  0.00    -0.223 OA 
BRANCH  17  18
HETATM   18  C   UNL     1      -9.460   9.510  70.550  1.00  0.00    -0.246 C  
HETATM   19  N   UNL     1      -8.552   7.394  69.513  1.00  0.00    -0.133 NA 
HETATM   20  C   UNL     1      -8.462   8.878  69.484  1.00  0.00    -0.128 C  
HETATM   21  O   UNL     1      -9.107   9.044  71.864  1.00  0.00    -0.365 OA 
HETATM   22  C   UNL     1      -9.214   7.617  71.930  1.00  0.00    -0.134 C  
HETATM   23  C   UNL     1      -8.310   6.930  70.900  1.00  0.00    -0.130 C  
BRANCH  19  24
HETATM   24  C   UNL     1      -7.762   6.631  68.530  1.00  0.00    -0.105 C  
BRANCH  24  25
HETATM   25  C   UNL     1      -8.548   5.586  67.759  1.00  0.00    -0.108 C  
HETATM   26  O   UNL     1      -8.797   4.954  63.717  1.00  0.00    -0.137 OA 
HETATM   27  O   UNL     1      -8.644   2.647  64.551  1.00  0.00    -0.090 OA 
HETATM   28  N   UNL     1      -8.862   4.420  68.266  1.00  0.00    -0.101 NA 
HETATM   29  O   UNL     1     -10.969   3.634  64.011  1.00  0.00    -0.291 OA 
HETATM   30  C   UNL     1      -9.437   3.721  67.229  1.00  0.00    -0.200 C  
HETATM   31  O   UNL     1      -9.655   2.517  67.213  1.00  0.00    -0.066 OA 
HETATM   32  P   UNL     1      -9.634   3.903  64.609  1.00  0.00    -0.190 P  
HETATM   33  N   UNL     1      -9.565   4.549  66.145  1.00  0.00    -0.170 N  
HETATM   34  N   UNL     1      -8.981   5.793  66.471  1.00  0.00    -0.125 NA 
ENDBRANCH  24  25
ENDBRANCH  19  24
BRANCH  20  35
HETATM   35  C   UNL     1      -8.675   9.548  68.128  1.00  0.00    -0.120 A  
HETATM   36  C   UNL     1      -9.932   9.701  66.040  1.00  0.00    -0.344 A  
HETATM   37  F   UNL     1      -9.042  10.955  64.251  1.00  0.00    -0.191 F  
HETATM   38  C   UNL     1      -9.799   9.211  67.343  1.00  0.00    -0.237 A  
HETATM   39  C   UNL     1      -7.833  10.881  66.272  1.00  0.00    -0.158 A  
HETATM   40  C   UNL     1      -7.707  10.404  67.581  1.00  0.00    -0.093 A  
HETATM   41  C   UNL     1      -8.937  10.520  65.513  1.00  0.00    -0.183 A  
ENDBRANCH  20  35
ENDBRANCH  17  18
ENDBRANCH   2  17
TORSDOF 6
ENDMDL
MODEL       17
REMARK 921   NORMALIZED FREE ENERGY PREDICTED BY IDOCK:   -8.63 KCAL/MOL
REMARK 922        TOTAL FREE ENERGY PREDICTED BY IDOCK:  -12.56 KCAL/MOL
REMARK 923 INTER-LIGAND FREE ENERGY PREDICTED BY IDOCK:  -11.48 KCAL/MOL
REMARK 924 INTRA-LIGAND FREE ENERGY PREDICTED BY IDOCK:   -1.08 KCAL/MOL
REMARK 927      BINDING AFFINITY PREDICTED BY RF-SCORE:    0.00 PKD
ROOT
HETATM    1  C   UNL     1     -10.480  15.175  65.554  1.00  0.00    -0.400 C  
HETATM    2  C   UNL     1     -10.809  15.493  67.008  1.00  0.00    -0.314 C  
ENDROOT
BRANCH   2   3
HETATM    3  C   UNL     1      -9.883  16.535  67.601  1.00  0.00    -0.247 A  
HETATM    4  F   UNL     1      -9.027  20.279  65.720  1.00  0.00    -0.328 F  
HETATM    5  F   UNL     1      -7.752  20.872  67.375  1.00  0.00    -0.371 F  
HETATM    6  C   UNL     1      -8.838  16.086  68.419  1.00  0.00    -0.188 A  
HETATM    7  C   UNL     1      -7.762  16.914  68.730  1.00  0.00    -0.247 A  
HETATM    8  F   UNL     1      -9.913  20.901  67.607  1.00  0.00    -0.572 F  
HETATM    9  C   UNL     1      -6.542  16.329  69.406  1.00  0.00    -0.202 C  
HETATM   10  C   UNL     1      -7.785  18.248  68.297  1.00  0.00    -0.303 A  
HETATM   11  C   UNL     1      -8.889  20.185  67.070  1.00  0.00    -0.346 C  
HETATM   12  C   UNL     1      -8.868  18.751  67.551  1.00  0.00    -0.292 A  
HETATM   13  F   UNL     1      -6.731  15.055  69.851  1.00  0.00    -0.143 F  
HETATM   14  F   UNL     1      -5.480  16.273  68.561  1.00  0.00    -0.097 F  
HETATM   15  C   UNL     1      -9.912  17.880  67.201  1.00  0.00    -0.327 A  
HETATM   16  F   UNL     1      -6.139  17.050  70.483  1.00  0.00    -0.150 F  
ENDBRANCH   2   3
BRANCH   2  17
HETATM   17  O   UNL     1     -10.797  14.295  67.803  1.00  0.00    -0.248 OA 
BRANCH  17  18
HETATM   18  C   UNL     1     -12.090  13.650  67.904  1.00  0.00    -0.283 C  
HETATM   19  N   UNL     1     -11.305  11.642  69.220  1.00  0.00    -0.268 NA 
HETATM   20  C   UNL     1     -12.258  12.783  69.229  1.00  0.00    -0.054 C  
HETATM   21  O   UNL     1     -12.360  12.823  66.759  1.00  0.00    -0.431 OA 
HETATM   22  C   UNL     1     -11.436  11.729  66.708  1.00  0.00    -0.281 C  
HETATM   23  C   UNL     1     -11.506  10.865  67.972  1.00  0.00    -0.281 C  
BRANCH  19  24
HETATM   24  C   UNL     1     -11.252  10.772  70.408  1.00  0.00    -0.186 C  
BRANCH  24  25
HETATM   25  C   UNL     1     -10.254   9.632  70.315  1.00  0.00    -0.277 C  
HETATM   26  O   UNL     1     -10.817   5.748  69.133  1.00  0.00    -0.304 OA 
HETATM   27  O   UNL     1      -8.672   6.269  68.052  1.00  0.00    -0.116 OA 
HETATM   28  N   UNL     1      -8.975   9.826  70.113  1.00  0.00    -0.228 NA 
HETATM   29  O   UNL     1      -8.667   5.027  70.317  1.00  0.00    -0.103 OA 
HETATM   30  C   UNL     1      -8.441   8.567  69.955  1.00  0.00    -0.125 C  
HETATM   31  O   UNL     1      -7.328   8.312  69.515  1.00  0.00    -0.070 OA 
HETATM   32  P   UNL     1      -9.295   6.114  69.518  1.00  0.00    -0.137 P  
HETATM   33  N   UNL     1      -9.415   7.633  70.195  1.00  0.00    -0.161 N  
HETATM   34  N   UNL     1     -10.627   8.314  70.436  1.00  0.00    -0.219 NA 
ENDBRANCH  24  25
ENDBRANCH  19  24
BRANCH  20  35
HETATM   35  C   UNL     1     -12.210  13.701  70.448  1.00  0.00    -0.434 A  
HETATM   36  C   UNL     1     -13.086  14.321  72.641  1.00  0.00    -0.567 A  
HETATM   37  F   UNL     1     -12.492  16.408  73.570  1.00  0.00    -0.502 F  
HETATM   38  C   UNL     1     -13.005  13.416  71.579  1.00  0.00    -0.429 A  
HETATM   39  C   UNL     1     -11.578  15.814  71.480  1.00  0.00    -0.531 A  
HETATM   40  C   UNL     1     -11.484  14.902  70.424  1.00  0.00    -0.312 A  
HETATM   41  C   UNL     1     -12.382  15.521  72.572  1.00  0.00    -0.411 A  
ENDBRANCH  20  35
ENDBRANCH  17  18
ENDBRANCH   2  17
TORSDOF 6
ENDMDL
MODEL       18
REMARK 921   NORMALIZED FREE ENERGY PREDICTED BY IDOCK:   -8.61 KCAL/MOL
REMARK 922        TOTAL FREE ENERGY PREDICTED BY IDOCK:  -12.53 KCAL/MOL
REMARK 923 INTER-LIGAND FREE ENERGY PREDICTED BY IDOCK:  -10.80 KCAL/MOL
REMARK 924 INTRA-LIGAND FREE ENERGY PREDICTED BY IDOCK:   -1.73 KCAL/MOL
REMARK 927      BINDING AFFINITY PREDICTED BY RF-SCORE:    0.00 PKD
ROOT
HETATM    1  C   UNL     1     -12.612  12.169  70.774  1.00  0.00    -0.305 C  
HETATM    2  C   UNL     1     -11.852  11.907  69.480  1.00  0.00    -0.331 C  
ENDROOT
BRANCH   2   3
HETATM    3  C   UNL     1     -10.840  10.788  69.615  1.00  0.00    -0.294 A  
HETATM    4  F   UNL     1     -10.451   8.361  73.114  1.00  0.00    -0.340 F  
HETATM    5  F   UNL     1      -8.869   7.196  72.187  1.00  0.00    -0.127 F  
HETATM    6  C   UNL     1      -9.641  10.907  68.899  1.00  0.00    -0.192 A  
HETATM    7  C   UNL     1      -8.537  10.117  69.210  1.00  0.00    -0.180 A  
HETATM    8  F   UNL     1     -10.936   6.892  71.584  1.00  0.00    -0.240 F  
HETATM    9  C   UNL     1      -7.195  10.435  68.591  1.00  0.00    -0.082 C  
HETATM   10  C   UNL     1      -8.670   9.119  70.188  1.00  0.00    -0.196 A  
HETATM   11  C   UNL     1     -10.034   7.853  71.923  1.00  0.00    -0.179 C  
HETATM   12  C   UNL     1      -9.891   8.917  70.858  1.00  0.00    -0.304 A  
HETATM   13  F   UNL     1      -7.267  11.355  67.590  1.00  0.00    -0.082 F  
HETATM   14  F   UNL     1      -6.330  10.948  69.505  1.00  0.00    -0.047 F  
HETATM   15  C   UNL     1     -10.972   9.766  70.568  1.00  0.00    -0.384 A  
HETATM   16  F   UNL     1      -6.587   9.343  68.058  1.00  0.00    -0.059 F  
ENDBRANCH   2   3
BRANCH   2  17
HETATM   17  O   UNL     1     -11.217  13.109  69.013  1.00  0.00    -0.248 OA 
BRANCH  17  18
HETATM   18  C   UNL     1     -12.127  14.039  68.375  1.00  0.00    -0.283 C  
HETATM   19  N   UNL     1     -10.357  15.440  67.243  1.00  0.00    -0.266 NA 
HETATM   20  C   UNL     1     -11.571  14.618  67.000  1.00  0.00    -0.371 C  
HETATM   21  O   UNL     1     -12.466  15.131  69.246  1.00  0.00    -0.126 OA 
HETATM   22  C   UNL     1     -11.306  15.925  69.522  1.00  0.00    -0.335 C  
HETATM   23  C   UNL     1     -10.683  16.487  68.239  1.00  0.00    -0.345 C  
BRANCH  19  24
HETATM   24  C   UNL     1      -9.647  15.991  66.075  1.00  0.00    -0.350 C  
BRANCH  24  25
HETATM   25  C   UNL     1      -8.469  16.887  66.414  1.00  0.00    -0.290 C  
HETATM   26  O   UNL     1      -8.370  20.918  67.145  1.00  0.00    -0.229 OA 
HETATM   27  O   UNL     1      -6.834  20.084  68.872  1.00  0.00    -0.316 OA 
HETATM   28  N   UNL     1      -7.394  16.445  67.018  1.00  0.00    -0.197 NA 
HETATM   29  O   UNL     1      -5.860  20.993  66.659  1.00  0.00    -0.210 OA 
HETATM   30  C   UNL     1      -6.635  17.566  67.267  1.00  0.00    -0.159 C  
HETATM   31  O   UNL     1      -5.672  17.625  68.020  1.00  0.00    -0.146 OA 
HETATM   32  P   UNL     1      -6.943  20.182  67.278  1.00  0.00    -0.274 P  
HETATM   33  N   UNL     1      -7.233  18.652  66.682  1.00  0.00    -0.214 N  
HETATM   34  N   UNL     1      -8.451  18.228  66.110  1.00  0.00    -0.488 NA 
ENDBRANCH  24  25
ENDBRANCH  19  24
BRANCH  20  35
HETATM   35  C   UNL     1     -11.435  13.482  65.987  1.00  0.00    -0.345 A  
HETATM   36  C   UNL     1     -10.075  11.719  64.986  1.00  0.00    -0.302 A  
HETATM   37  F   UNL     1     -10.787  10.721  62.970  1.00  0.00    -0.205 F  
HETATM   38  C   UNL     1     -10.285  12.664  65.995  1.00  0.00    -0.287 A  
HETATM   39  C   UNL     1     -12.156  12.375  63.943  1.00  0.00    -0.587 A  
HETATM   40  C   UNL     1     -12.375  13.309  64.959  1.00  0.00    -0.499 A  
HETATM   41  C   UNL     1     -11.008  11.596  63.960  1.00  0.00    -0.387 A  
ENDBRANCH  20  35
ENDBRANCH  17  18
ENDBRANCH   2  17
TORSDOF 6
ENDMDL
MODEL       19
REMARK 921   NORMALIZED FREE ENERGY PREDICTED BY IDOCK:   -8.58 KCAL/MOL
REMARK 922        TOTAL FREE ENERGY PREDICTED BY IDOCK:  -12.49 KCAL/MOL
REMARK 923 INTER-LIGAND FREE ENERGY PREDICTED BY IDOCK:  -11.35 KCAL/MOL
REMARK 924 INTRA-LIGAND FREE ENERGY PREDICTED BY IDOCK:   -1.14 KCAL/MOL
REMARK 927      BINDING AFFINITY PREDICTED BY RF-SCORE:    0.00 PKD
ROOT
HETATM    1  C   UNL     1     -11.357  11.841  66.155  1.00  0.00    -0.342 C  
HETATM    2  C   UNL     1     -10.540  12.101  67.414  1.00  0.00    -0.226 C  
ENDROOT
BRANCH   2   3
HETATM    3  C   UNL     1     -10.659  10.981  68.427  1.00  0.00    -0.224 A  
HETATM    4  F   UNL     1     -10.345   6.838  67.417  1.00  0.00    -0.180 F  
HETATM    5  F   UNL     1     -10.602   6.263  69.495  1.00  0.00    -0.219 F  
HETATM    6  C   UNL     1     -11.458  11.206  69.555  1.00  0.00    -0.374 A  
HETATM    7  C   UNL     1     -11.889  10.150  70.354  1.00  0.00    -0.373 A  
HETATM    8  F   UNL     1      -8.708   7.095  68.827  1.00  0.00    -0.124 F  
HETATM    9  C   UNL     1     -12.943  10.395  71.411  1.00  0.00    -0.443 C  
HETATM   10  C   UNL     1     -11.426   8.855  70.075  1.00  0.00     0.021 A  
HETATM   11  C   UNL     1     -10.056   7.218  68.691  1.00  0.00    -0.176 C  
HETATM   12  C   UNL     1     -10.546   8.614  69.003  1.00  0.00    -0.179 A  
HETATM   13  F   UNL     1     -13.199  11.717  71.619  1.00  0.00    -0.487 F  
HETATM   14  F   UNL     1     -14.133   9.835  71.071  1.00  0.00    -0.293 F  
HETATM   15  C   UNL     1     -10.174   9.687  68.178  1.00  0.00    -0.225 A  
HETATM   16  F   UNL     1     -12.607   9.879  72.621  1.00  0.00    -0.281 F  
ENDBRANCH   2   3
BRANCH   2  17
HETATM   17  O   UNL     1     -10.907  13.358  68.006  1.00  0.00    -0.236 OA 
BRANCH  17  18
HETATM   18  C   UNL     1      -9.803  14.049  68.640  1.00  0.00    -0.191 C  
HETATM   19  N   UNL     1     -10.319  16.337  67.704  1.00  0.00    -0.277 NA 
HETATM   20  C   UNL     1     -10.118  15.575  68.965  1.00  0.00    -0.234 C  
HETATM   21  O   UNL     1      -8.605  13.970  67.849  1.00  0.00    -0.160 OA 
HETATM   22  C   UNL     1      -8.780  14.672  66.612  1.00  0.00    -0.163 C  
HETATM   23  C   UNL     1      -9.130  16.147  66.840  1.00  0.00    -0.218 C  
BRANCH  19  24
HETATM   24  C   UNL     1     -10.708  17.754  67.804  1.00  0.00    -0.324 C  
BRANCH  24  25
HETATM   25  C   UNL     1      -9.546  18.724  67.918  1.00  0.00    -0.308 C  
HETATM   26  O   UNL     1      -6.127  18.464  70.164  1.00  0.00    -0.190 OA 
HETATM   27  O   UNL     1      -5.241  19.348  68.048  1.00  0.00    -0.170 OA 
HETATM   28  N   UNL     1      -9.210  19.543  66.952  1.00  0.00    -0.322 NA 
HETATM   29  O   UNL     1      -5.756  20.988  69.976  1.00  0.00    -0.500 OA 
HETATM   30  C   UNL     1      -8.047  20.143  67.378  1.00  0.00    -0.335 C  
HETATM   31  O   UNL     1      -7.281  20.793  66.680  1.00  0.00    -0.253 OA 
HETATM   32  P   UNL     1      -6.219  19.781  69.239  1.00  0.00    -0.349 P  
HETATM   33  N   UNL     1      -7.784  19.750  68.664  1.00  0.00    -0.309 N  
HETATM   34  N   UNL     1      -8.764  18.808  69.045  1.00  0.00    -0.171 NA 
ENDBRANCH  24  25
ENDBRANCH  19  24
BRANCH  20  35
HETATM   35  C   UNL     1     -11.241  15.654  69.997  1.00  0.00    -0.332 A  
HETATM   36  C   UNL     1     -12.004  16.322  72.218  1.00  0.00    -0.605 A  
HETATM   37  F   UNL     1     -14.059  15.490  73.027  1.00  0.00    -0.539 F  
HETATM   38  C   UNL     1     -11.045  16.363  71.201  1.00  0.00     0.070 A  
HETATM   39  C   UNL     1     -13.383  14.877  70.854  1.00  0.00    -0.393 A  
HETATM   40  C   UNL     1     -12.432  14.929  69.831  1.00  0.00    -0.273 A  
HETATM   41  C   UNL     1     -13.159  15.565  72.038  1.00  0.00    -0.448 A  
ENDBRANCH  20  35
ENDBRANCH  17  18
ENDBRANCH   2  17
TORSDOF 6
ENDMDL
MODEL       20
REMARK 921   NORMALIZED FREE ENERGY PREDICTED BY IDOCK:   -8.57 KCAL/MOL
REMARK 922        TOTAL FREE ENERGY PREDICTED BY IDOCK:  -12.48 KCAL/MOL
REMARK 923 INTER-LIGAND FREE ENERGY PREDICTED BY IDOCK:  -11.24 KCAL/MOL
REMARK 924 INTRA-LIGAND FREE ENERGY PREDICTED BY IDOCK:   -1.23 KCAL/MOL
REMARK 927      BINDING AFFINITY PREDICTED BY RF-SCORE:    0.00 PKD
ROOT
HETATM    1  C   UNL     1      -7.359   9.652  70.257  1.00  0.00    -0.153 C  
HETATM    2  C   UNL     1      -8.880   9.613  70.169  1.00  0.00    -0.231 C  
ENDROOT
BRANCH   2   3
HETATM    3  C   UNL     1      -9.440   8.221  70.371  1.00  0.00    -0.172 A  
HETATM    4  F   UNL     1      -8.794   4.994  67.641  1.00  0.00    -0.105 F  
HETATM    5  F   UNL     1      -9.928   3.637  68.902  1.00  0.00    -0.192 F  
HETATM    6  C   UNL     1     -10.643   8.101  71.079  1.00  0.00    -0.242 A  
HETATM    7  C   UNL     1     -11.393   6.928  71.029  1.00  0.00    -0.342 A  
HETATM    8  F   UNL     1      -7.916   4.227  69.479  1.00  0.00    -0.057 F  
HETATM    9  C   UNL     1     -12.794   6.914  71.599  1.00  0.00    -0.335 C  
HETATM   10  C   UNL     1     -10.877   5.821  70.339  1.00  0.00    -0.360 A  
HETATM   11  C   UNL     1      -9.073   4.698  68.939  1.00  0.00    -0.119 C  
HETATM   12  C   UNL     1      -9.626   5.885  69.696  1.00  0.00    -0.183 A  
HETATM   13  F   UNL     1     -13.092   8.029  72.323  1.00  0.00    -0.302 F  
HETATM   14  F   UNL     1     -13.733   6.846  70.619  1.00  0.00    -0.196 F  
HETATM   15  C   UNL     1      -8.918   7.097  69.712  1.00  0.00    -0.142 A  
HETATM   16  F   UNL     1     -13.019   5.858  72.421  1.00  0.00    -0.249 F  
ENDBRANCH   2   3
BRANCH   2  17
HETATM   17  O   UNL     1      -9.329  10.162  68.918  1.00  0.00    -0.160 OA 
BRANCH  17  18
HETATM   18  C   UNL     1      -8.988  11.559  68.738  1.00  0.00    -0.047 C  
HETATM   19  N   UNL     1     -10.624  12.014  66.869  1.00  0.00    -0.223 NA 
HETATM   20  C   UNL     1     -10.210  12.444  68.231  1.00  0.00    -0.229 C  
HETATM   21  O   UNL     1      -7.879  11.721  67.839  1.00  0.00    -0.120 OA 
HETATM   22  C   UNL     1      -8.239  11.287  66.522  1.00  0.00    -0.165 C  
HETATM   23  C   UNL     1      -9.442  12.065  65.975  1.00  0.00    -0.219 C  
BRANCH  19  24
HETATM   24  C   UNL     1     -11.800  12.662  66.264  1.00  0.00    -0.410 C  
BRANCH  24  25
HETATM   25  C   UNL     1     -11.628  14.140  65.965  1.00  0.00    -0.361 C  
HETATM   26  O   UNL     1      -9.453  16.979  67.968  1.00  0.00    -0.245 OA 
HETATM   27  O   UNL     1      -8.963  17.564  65.631  1.00  0.00    -0.417 OA 
HETATM   28  N   UNL     1     -11.728  14.634  64.756  1.00  0.00    -0.410 NA 
HETATM   29  O   UNL     1     -10.817  18.854  66.885  1.00  0.00    -0.403 OA 
HETATM   30  C   UNL     1     -11.374  15.959  64.880  1.00  0.00    -0.256 C  
HETATM   31  O   UNL     1     -11.108  16.717  63.956  1.00  0.00    -0.914 OA 
HETATM   32  P   UNL     1     -10.200  17.521  66.646  1.00  0.00    -0.297 P  
HETATM   33  N   UNL     1     -11.190  16.253  66.205  1.00  0.00     0.157 N  
HETATM   34  N   UNL     1     -11.352  15.063  66.946  1.00  0.00    -0.331 NA 
ENDBRANCH  24  25
ENDBRANCH  19  24
BRANCH  20  35
HETATM   35  C   UNL     1     -11.301  12.466  69.299  1.00  0.00    -0.315 A  
HETATM   36  C   UNL     1     -12.550  13.703  70.994  1.00  0.00    -0.441 A  
HETATM   37  F   UNL     1     -13.889  12.515  72.532  1.00  0.00    -0.590 F  
HETATM   38  C   UNL     1     -11.662  13.684  69.914  1.00  0.00    -0.346 A  
HETATM   39  C   UNL     1     -12.748  11.295  70.869  1.00  0.00    -0.412 A  
HETATM   40  C   UNL     1     -11.872  11.277  69.779  1.00  0.00    -0.437 A  
HETATM   41  C   UNL     1     -13.072  12.503  71.471  1.00  0.00    -0.277 A  
ENDBRANCH  20  35
ENDBRANCH  17  18
ENDBRANCH   2  17
TORSDOF 6
ENDMDL
MODEL       21
REMARK 921   NORMALIZED FREE ENERGY PREDICTED BY IDOCK:   -8.57 KCAL/MOL
REMARK 922        TOTAL FREE ENERGY PREDICTED BY IDOCK:  -12.47 KCAL/MOL
REMARK 923 INTER-LIGAND FREE ENERGY PREDICTED BY IDOCK:  -10.27 KCAL/MOL
REMARK 924 INTRA-LIGAND FREE ENERGY PREDICTED BY IDOCK:   -2.20 KCAL/MOL
REMARK 927      BINDING AFFINITY PREDICTED BY RF-SCORE:    0.00 PKD
ROOT
HETATM    1  C   UNL     1     -10.168  13.062  67.789  1.00  0.00    -0.228 C  
HETATM    2  C   UNL     1     -11.008  11.814  68.032  1.00  0.00    -0.225 C  
ENDROOT
BRANCH   2   3
HETATM    3  C   UNL     1     -11.866  11.921  69.275  1.00  0.00    -0.379 A  
HETATM    4  F   UNL     1     -11.526  15.101  72.114  1.00  0.00    -0.432 F  
HETATM    5  F   UNL     1     -13.146  14.276  73.302  1.00  0.00    -0.578 F  
HETATM    6  C   UNL     1     -12.335  10.731  69.845  1.00  0.00    -0.340 A  
HETATM    7  C   UNL     1     -12.838  10.705  71.144  1.00  0.00    -0.518 A  
HETATM    8  F   UNL     1     -13.584  15.304  71.437  1.00  0.00    -0.420 F  
HETATM    9  C   UNL     1     -13.106   9.376  71.814  1.00  0.00    -0.409 C  
HETATM   10  C   UNL     1     -12.966  11.913  71.846  1.00  0.00    -0.434 A  
HETATM   11  C   UNL     1     -12.711  14.439  72.021  1.00  0.00    -0.328 C  
HETATM   12  C   UNL     1     -12.588  13.137  71.262  1.00  0.00    -0.382 A  
HETATM   13  F   UNL     1     -13.033   8.318  70.959  1.00  0.00    -0.247 F  
HETATM   14  F   UNL     1     -12.205   9.121  72.799  1.00  0.00    -0.313 F  
HETATM   15  C   UNL     1     -12.030  13.128  69.974  1.00  0.00    -0.391 A  
HETATM   16  F   UNL     1     -14.333   9.314  72.390  1.00  0.00    -0.440 F  
ENDBRANCH   2   3
BRANCH   2  17
HETATM   17  O   UNL     1     -10.173  10.645  68.094  1.00  0.00    -0.159 OA 
BRANCH  17  18
HETATM   18  C   UNL     1     -10.532   9.620  67.135  1.00  0.00    -0.249 C  
HETATM   19  N   UNL     1      -8.290   8.459  67.102  1.00  0.00    -0.121 NA 
HETATM   20  C   UNL     1      -9.742   8.255  67.348  1.00  0.00    -0.174 C  
HETATM   21  O   UNL     1     -10.345  10.071  65.782  1.00  0.00    -0.228 OA 
HETATM   22  C   UNL     1      -8.955  10.305  65.525  1.00  0.00    -0.173 C  
HETATM   23  C   UNL     1      -8.114   9.043  65.750  1.00  0.00    -0.109 C  
BRANCH  19  24
HETATM   24  C   UNL     1      -7.380   7.324  67.335  1.00  0.00    -0.092 C  
BRANCH  24  25
HETATM   25  C   UNL     1      -7.468   6.217  66.301  1.00  0.00    -0.086 C  
HETATM   26  O   UNL     1     -10.756   4.253  64.842  1.00  0.00    -0.247 OA 
HETATM   27  O   UNL     1      -9.448   4.581  62.787  1.00  0.00    -0.140 OA 
HETATM   28  N   UNL     1      -6.580   6.064  65.351  1.00  0.00    -0.042 NA 
HETATM   29  O   UNL     1      -9.296   2.318  64.025  1.00  0.00    -0.108 OA 
HETATM   30  C   UNL     1      -7.078   5.059  64.552  1.00  0.00    -0.054 C  
HETATM   31  O   UNL     1      -6.677   4.772  63.432  1.00  0.00    -0.036 OA 
HETATM   32  P   UNL     1      -9.359   3.796  64.180  1.00  0.00    -0.165 P  
HETATM   33  N   UNL     1      -8.211   4.548  65.128  1.00  0.00    -0.109 N  
HETATM   34  N   UNL     1      -8.492   5.299  66.289  1.00  0.00    -0.114 NA 
ENDBRANCH  24  25
ENDBRANCH  19  24
BRANCH  20  35
HETATM   35  C   UNL     1     -10.127   7.649  68.696  1.00  0.00    -0.201 A  
HETATM   36  C   UNL     1      -9.799   7.536  71.113  1.00  0.00    -0.180 A  
HETATM   37  F   UNL     1     -10.744   5.741  72.319  1.00  0.00    -0.232 F  
HETATM   38  C   UNL     1      -9.576   8.169  69.887  1.00  0.00    -0.175 A  
HETATM   39  C   UNL     1     -11.134   5.855  69.998  1.00  0.00    -0.411 A  
HETATM   40  C   UNL     1     -10.924   6.496  68.773  1.00  0.00    -0.371 A  
HETATM   41  C   UNL     1     -10.565   6.373  71.152  1.00  0.00    -0.236 A  
ENDBRANCH  20  35
ENDBRANCH  17  18
ENDBRANCH   2  17
TORSDOF 6
ENDMDL
MODEL       22
REMARK 921   NORMALIZED FREE ENERGY PREDICTED BY IDOCK:   -8.56 KCAL/MOL
REMARK 922        TOTAL FREE ENERGY PREDICTED BY IDOCK:  -12.46 KCAL/MOL
REMARK 923 INTER-LIGAND FREE ENERGY PREDICTED BY IDOCK:   -9.18 KCAL/MOL
REMARK 924 INTRA-LIGAND FREE ENERGY PREDICTED BY IDOCK:   -3.28 KCAL/MOL
REMARK 927      BINDING AFFINITY PREDICTED BY RF-SCORE:    0.00 PKD
ROOT
HETATM    1  C   UNL     1      -7.937   6.793  64.176  1.00  0.00    -0.085 C  
HETATM    2  C   UNL     1      -7.929   8.009  65.094  1.00  0.00    -0.127 C  
ENDROOT
BRANCH   2   3
HETATM    3  C   UNL     1      -8.020   7.634  66.559  1.00  0.00    -0.106 A  
HETATM    4  F   UNL     1     -11.627   6.314  68.438  1.00  0.00    -0.370 F  
HETATM    5  F   UNL     1     -10.600   6.053  70.334  1.00  0.00    -0.250 F  
HETATM    6  C   UNL     1      -7.145   8.270  67.448  1.00  0.00    -0.080 A  
HETATM    7  C   UNL     1      -7.372   8.244  68.823  1.00  0.00    -0.088 A  
HETATM    8  F   UNL     1     -10.303   4.613  68.732  1.00  0.00    -0.205 F  
HETATM    9  C   UNL     1      -6.555   9.137  69.730  1.00  0.00    -0.046 C  
HETATM   10  C   UNL     1      -8.438   7.480  69.320  1.00  0.00    -0.136 A  
HETATM   11  C   UNL     1     -10.438   5.943  68.985  1.00  0.00    -0.265 C  
HETATM   12  C   UNL     1      -9.278   6.755  68.454  1.00  0.00    -0.123 A  
HETATM   13  F   UNL     1      -5.499   9.723  69.101  1.00  0.00    -0.036 F  
HETATM   14  F   UNL     1      -7.301  10.155  70.234  1.00  0.00    -0.135 F  
HETATM   15  C   UNL     1      -9.064   6.846  67.069  1.00  0.00    -0.146 A  
HETATM   16  F   UNL     1      -6.040   8.474  70.797  1.00  0.00    -0.031 F  
ENDBRANCH   2   3
BRANCH   2  17
HETATM   17  O   UNL     1      -8.983   8.920  64.739  1.00  0.00    -0.157 OA 
BRANCH  17  18
HETATM   18  C   UNL     1      -8.587  10.313  64.776  1.00  0.00    -0.184 C  
HETATM   19  N   UNL     1     -10.902  11.276  64.476  1.00  0.00    -0.315 NA 
HETATM   20  C   UNL     1      -9.712  11.270  65.368  1.00  0.00    -0.231 C  
HETATM   21  O   UNL     1      -8.196  10.787  63.476  1.00  0.00    -0.074 OA 
HETATM   22  C   UNL     1      -9.318  10.776  62.585  1.00  0.00    -0.313 C  
HETATM   23  C   UNL     1     -10.468  11.645  63.107  1.00  0.00    -0.311 C  
BRANCH  19  24
HETATM   24  C   UNL     1     -12.087  12.041  64.903  1.00  0.00    -0.174 C  
BRANCH  24  25
HETATM   25  C   UNL     1     -11.855  13.532  65.065  1.00  0.00    -0.353 C  
HETATM   26  O   UNL     1      -9.267  15.525  67.542  1.00  0.00    -0.195 OA 
HETATM   27  O   UNL     1      -9.031  16.819  65.465  1.00  0.00    -0.383 OA 
HETATM   28  N   UNL     1     -12.070  14.391  64.101  1.00  0.00    -0.482 NA 
HETATM   29  O   UNL     1     -10.627  17.680  67.306  1.00  0.00    -0.347 OA 
HETATM   30  C   UNL     1     -11.617  15.597  64.586  1.00  0.00    -0.249 C  
HETATM   31  O   UNL     1     -11.417  16.605  63.921  1.00  0.00    -1.186 OA 
HETATM   32  P   UNL     1     -10.134  16.481  66.575  1.00  0.00    -0.320 P  
HETATM   33  N   UNL     1     -11.252  15.445  65.898  1.00  0.00    -0.243 N  
HETATM   34  N   UNL     1     -11.399  14.084  66.240  1.00  0.00    -0.324 NA 
ENDBRANCH  24  25
ENDBRANCH  19  24
BRANCH  20  35
HETATM   35  C   UNL     1      -9.961  10.919  66.833  1.00  0.00    -0.232 A  
HETATM   36  C   UNL     1     -11.267   9.713  68.507  1.00  0.00    -0.005 A  
HETATM   37  F   UNL     1     -11.025  10.282  70.784  1.00  0.00    -0.361 F  
HETATM   38  C   UNL     1     -10.920   9.941  67.172  1.00  0.00    -0.147 A  
HETATM   39  C   UNL     1      -9.703  11.422  69.201  1.00  0.00     0.065 A  
HETATM   40  C   UNL     1      -9.344  11.641  67.867  1.00  0.00    -0.174 A  
HETATM   41  C   UNL     1     -10.663  10.470  69.509  1.00  0.00    -0.255 A  
ENDBRANCH  20  35
ENDBRANCH  17  18
ENDBRANCH   2  17
TORSDOF 6
ENDMDL
MODEL       23
REMARK 921   NORMALIZED FREE ENERGY PREDICTED BY IDOCK:   -8.55 KCAL/MOL
REMARK 922        TOTAL FREE ENERGY PREDICTED BY IDOCK:  -12.46 KCAL/MOL
REMARK 923 INTER-LIGAND FREE ENERGY PREDICTED BY IDOCK:  -10.40 KCAL/MOL
REMARK 924 INTRA-LIGAND FREE ENERGY PREDICTED BY IDOCK:   -2.06 KCAL/MOL
REMARK 927      BINDING AFFINITY PREDICTED BY RF-SCORE:    0.00 PKD
ROOT
HETATM    1  C   UNL     1     -12.137  11.195  70.414  1.00  0.00    -0.475 C  
HETATM    2  C   UNL     1     -11.465  11.179  69.047  1.00  0.00    -0.296 C  
ENDROOT
BRANCH   2   3
HETATM    3  C   UNL     1     -10.325  10.185  68.969  1.00  0.00    -0.230 A  
HETATM    4  F   UNL     1      -6.213  11.265  69.433  1.00  0.00    -0.053 F  
HETATM    5  F   UNL     1      -5.595   9.196  69.196  1.00  0.00    -0.035 F  
HETATM    6  C   UNL     1     -10.503   9.055  68.161  1.00  0.00    -0.257 A  
HETATM    7  C   UNL     1      -9.418   8.274  67.768  1.00  0.00    -0.171 A  
HETATM    8  F   UNL     1      -6.506   9.849  71.059  1.00  0.00    -0.091 F  
HETATM    9  C   UNL     1      -9.607   7.214  66.706  1.00  0.00    -0.178 C  
HETATM   10  C   UNL     1      -8.146   8.574  68.278  1.00  0.00    -0.119 A  
HETATM   11  C   UNL     1      -6.582   9.984  69.707  1.00  0.00    -0.074 C  
HETATM   12  C   UNL     1      -7.955   9.649  69.166  1.00  0.00    -0.099 A  
HETATM   13  F   UNL     1     -10.915   6.984  66.402  1.00  0.00    -0.228 F  
HETATM   14  F   UNL     1      -9.010   7.564  65.536  1.00  0.00    -0.157 F  
HETATM   15  C   UNL     1      -9.054  10.456  69.500  1.00  0.00    -0.129 A  
HETATM   16  F   UNL     1      -9.084   6.013  67.060  1.00  0.00    -0.116 F  
ENDBRANCH   2   3
BRANCH   2  17
HETATM   17  O   UNL     1     -11.013  12.496  68.689  1.00  0.00    -0.235 OA 
BRANCH  17  18
HETATM   18  C   UNL     1     -12.019  13.297  68.022  1.00  0.00    -0.313 C  
HETATM   19  N   UNL     1     -10.419  14.934  66.954  1.00  0.00    -0.275 NA 
HETATM   20  C   UNL     1     -11.502  13.955  66.668  1.00  0.00    -0.355 C  
HETATM   21  O   UNL     1     -12.533  14.326  68.884  1.00  0.00    -0.176 OA 
HETATM   22  C   UNL     1     -11.502  15.269  69.201  1.00  0.00    -0.316 C  
HETATM   23  C   UNL     1     -10.919  15.920  67.941  1.00  0.00    -0.327 C  
BRANCH  19  24
HETATM   24  C   UNL     1      -9.753  15.585  65.812  1.00  0.00    -0.348 C  
BRANCH  24  25
HETATM   25  C   UNL     1      -8.755  16.664  66.192  1.00  0.00    -0.287 C  
HETATM   26  O   UNL     1      -9.406  20.531  67.383  1.00  0.00    -0.388 OA 
HETATM   27  O   UNL     1      -7.610  19.856  68.919  1.00  0.00    -0.283 OA 
HETATM   28  N   UNL     1      -7.572  16.392  66.684  1.00  0.00    -0.251 NA 
HETATM   29  O   UNL     1      -7.004  21.171  66.779  1.00  0.00    -0.283 OA 
HETATM   30  C   UNL     1      -7.035  17.614  67.022  1.00  0.00    -0.178 C  
HETATM   31  O   UNL     1      -6.049  17.791  67.725  1.00  0.00    -0.152 OA 
HETATM   32  P   UNL     1      -7.854  20.094  67.355  1.00  0.00    -0.314 P  
HETATM   33  N   UNL     1      -7.878  18.608  66.600  1.00  0.00    -0.246 N  
HETATM   34  N   UNL     1      -9.027  18.004  66.046  1.00  0.00    -0.513 NA 
ENDBRANCH  24  25
ENDBRANCH  19  24
BRANCH  20  35
HETATM   35  C   UNL     1     -11.178  12.856  65.658  1.00  0.00    -0.325 A  
HETATM   36  C   UNL     1      -9.638  11.144  64.845  1.00  0.00    -0.279 A  
HETATM   37  F   UNL     1      -9.986  10.205  62.709  1.00  0.00    -0.284 F  
HETATM   38  C   UNL     1     -10.031  12.053  65.833  1.00  0.00    -0.260 A  
HETATM   39  C   UNL     1     -11.528  11.808  63.489  1.00  0.00    -0.489 A  
HETATM   40  C   UNL     1     -11.930  12.705  64.483  1.00  0.00    -0.464 A  
HETATM   41  C   UNL     1     -10.385  11.043  63.674  1.00  0.00    -0.352 A  
ENDBRANCH  20  35
ENDBRANCH  17  18
ENDBRANCH   2  17
TORSDOF 6
ENDMDL
MODEL       24
REMARK 921   NORMALIZED FREE ENERGY PREDICTED BY IDOCK:   -8.44 KCAL/MOL
REMARK 922        TOTAL FREE ENERGY PREDICTED BY IDOCK:  -12.30 KCAL/MOL
REMARK 923 INTER-LIGAND FREE ENERGY PREDICTED BY IDOCK:  -10.48 KCAL/MOL
REMARK 924 INTRA-LIGAND FREE ENERGY PREDICTED BY IDOCK:   -1.82 KCAL/MOL
REMARK 927      BINDING AFFINITY PREDICTED BY RF-SCORE:    0.00 PKD
ROOT
HETATM    1  C   UNL     1     -13.911   9.266  71.623  1.00  0.00    -0.366 C  
HETATM    2  C   UNL     1     -12.545   9.941  71.594  1.00  0.00    -0.424 C  
ENDROOT
BRANCH   2   3
HETATM    3  C   UNL     1     -12.564  11.267  70.862  1.00  0.00    -0.467 A  
HETATM    4  F   UNL     1     -10.236  12.069  67.366  1.00  0.00    -0.197 F  
HETATM    5  F   UNL     1     -11.064  14.072  67.217  1.00  0.00    -0.280 F  
HETATM    6  C   UNL     1     -12.835  12.419  71.611  1.00  0.00    -0.375 A  
HETATM    7  C   UNL     1     -12.552  13.687  71.108  1.00  0.00    -0.452 A  
HETATM    8  F   UNL     1     -12.269  12.355  66.644  1.00  0.00    -0.416 F  
HETATM    9  C   UNL     1     -12.625  14.886  72.026  1.00  0.00    -0.326 C  
HETATM   10  C   UNL     1     -12.083  13.805  69.791  1.00  0.00    -0.400 A  
HETATM   11  C   UNL     1     -11.372  12.791  67.569  1.00  0.00    -0.312 C  
HETATM   12  C   UNL     1     -11.890  12.668  68.984  1.00  0.00    -0.341 A  
HETATM   13  F   UNL     1     -13.198  14.609  73.231  1.00  0.00    -0.537 F  
HETATM   14  F   UNL     1     -11.390  15.379  72.307  1.00  0.00    -0.476 F  
HETATM   15  C   UNL     1     -12.127  11.398  69.534  1.00  0.00    -0.370 A  
HETATM   16  F   UNL     1     -13.337  15.913  71.496  1.00  0.00    -0.527 F  
ENDBRANCH   2   3
BRANCH   2  17
HETATM   17  O   UNL     1     -11.558   9.064  71.025  1.00  0.00    -0.277 OA 
BRANCH  17  18
HETATM   18  C   UNL     1     -10.654   8.492  72.001  1.00  0.00    -0.338 C  
HETATM   19  N   UNL     1      -9.860   6.571  70.566  1.00  0.00    -0.179 NA 
HETATM   20  C   UNL     1      -9.405   7.753  71.345  1.00  0.00    -0.141 C  
HETATM   21  O   UNL     1     -11.333   7.582  72.883  1.00  0.00    -0.339 OA 
HETATM   22  C   UNL     1     -11.809   6.445  72.154  1.00  0.00    -0.314 C  
HETATM   23  C   UNL     1     -10.667   5.699  71.453  1.00  0.00    -0.244 C  
BRANCH  19  24
HETATM   24  C   UNL     1      -8.852   5.807  69.811  1.00  0.00    -0.126 C  
BRANCH  24  25
HETATM   25  C   UNL     1      -9.056   5.800  68.307  1.00  0.00    -0.117 C  
HETATM   26  O   UNL     1      -6.296   6.066  65.289  1.00  0.00    -0.036 OA 
HETATM   27  O   UNL     1      -7.801   4.335  64.406  1.00  0.00    -0.082 OA 
HETATM   28  N   UNL     1     -10.073   5.207  67.734  1.00  0.00    -0.159 NA 
HETATM   29  O   UNL     1      -8.109   6.781  63.631  1.00  0.00    -0.094 OA 
HETATM   30  C   UNL     1      -9.829   5.303  66.382  1.00  0.00    -0.186 C  
HETATM   31  O   UNL     1     -10.409   4.676  65.505  1.00  0.00    -0.235 OA 
HETATM   32  P   UNL     1      -7.818   5.890  64.787  1.00  0.00    -0.122 P  
HETATM   33  N   UNL     1      -8.715   6.074  66.181  1.00  0.00    -0.141 N  
HETATM   34  N   UNL     1      -8.183   6.416  67.442  1.00  0.00    -0.116 NA 
ENDBRANCH  24  25
ENDBRANCH  19  24
BRANCH  20  35
HETATM   35  C   UNL     1      -8.546   8.771  70.599  1.00  0.00    -0.203 A  
HETATM   36  C   UNL     1      -6.496  10.092  70.473  1.00  0.00    -0.121 A  
HETATM   37  F   UNL     1      -6.363  11.864  68.921  1.00  0.00    -0.055 F  
HETATM   38  C   UNL     1      -7.240   9.059  71.052  1.00  0.00    -0.114 A  
HETATM   39  C   UNL     1      -8.331  10.569  68.971  1.00  0.00    -0.154 A  
HETATM   40  C   UNL     1      -9.071   9.527  69.539  1.00  0.00    -0.193 A  
HETATM   41  C   UNL     1      -7.058  10.848  69.447  1.00  0.00    -0.131 A  
ENDBRANCH  20  35
ENDBRANCH  17  18
ENDBRANCH   2  17
TORSDOF 6
ENDMDL
MODEL       25
REMARK 921   NORMALIZED FREE ENERGY PREDICTED BY IDOCK:   -8.43 KCAL/MOL
REMARK 922        TOTAL FREE ENERGY PREDICTED BY IDOCK:  -12.29 KCAL/MOL
REMARK 923 INTER-LIGAND FREE ENERGY PREDICTED BY IDOCK:  -10.69 KCAL/MOL
REMARK 924 INTRA-LIGAND FREE ENERGY PREDICTED BY IDOCK:   -1.60 KCAL/MOL
REMARK 927      BINDING AFFINITY PREDICTED BY RF-SCORE:    0.00 PKD
ROOT
HETATM    1  C   UNL     1     -13.874   9.003  71.469  1.00  0.00    -0.367 C  
HETATM    2  C   UNL     1     -12.556   9.756  71.589  1.00  0.00    -0.416 C  
ENDROOT
BRANCH   2   3
HETATM    3  C   UNL     1     -12.580  11.092  70.876  1.00  0.00    -0.483 A  
HETATM    4  F   UNL     1     -10.242  11.959  67.402  1.00  0.00    -0.195 F  
HETATM    5  F   UNL     1     -11.082  13.958  67.278  1.00  0.00    -0.279 F  
HETATM    6  C   UNL     1     -12.861  12.232  71.641  1.00  0.00    -0.378 A  
HETATM    7  C   UNL     1     -12.583  13.509  71.157  1.00  0.00    -0.438 A  
HETATM    8  F   UNL     1     -12.274  12.243  66.675  1.00  0.00    -0.392 F  
HETATM    9  C   UNL     1     -12.667  14.694  72.092  1.00  0.00    -0.334 C  
HETATM   10  C   UNL     1     -12.110  13.649  69.844  1.00  0.00    -0.406 A  
HETATM   11  C   UNL     1     -11.383  12.671  67.610  1.00  0.00    -0.310 C  
HETATM   12  C   UNL     1     -11.907  12.525  69.021  1.00  0.00    -0.344 A  
HETATM   13  F   UNL     1     -13.243  14.397  73.290  1.00  0.00    -0.577 F  
HETATM   14  F   UNL     1     -11.437  15.190  72.384  1.00  0.00    -0.471 F  
HETATM   15  C   UNL     1     -12.138  11.246  69.552  1.00  0.00    -0.386 A  
HETATM   16  F   UNL     1     -13.383  15.725  71.573  1.00  0.00    -0.499 F  
ENDBRANCH   2   3
BRANCH   2  17
HETATM   17  O   UNL     1     -11.466   8.949  71.113  1.00  0.00    -0.270 OA 
BRANCH  17  18
HETATM   18  C   UNL     1     -10.573   8.498  72.160  1.00  0.00    -0.349 C  
HETATM   19  N   UNL     1      -9.663   6.496  70.919  1.00  0.00    -0.176 NA 
HETATM   20  C   UNL     1      -9.278   7.756  71.607  1.00  0.00    -0.136 C  
HETATM   21  O   UNL     1     -11.247   7.639  73.097  1.00  0.00    -0.391 OA 
HETATM   22  C   UNL     1     -11.657   6.427  72.453  1.00  0.00    -0.269 C  
HETATM   23  C   UNL     1     -10.466   5.671  71.853  1.00  0.00    -0.225 C  
BRANCH  19  24
HETATM   24  C   UNL     1      -8.603   5.711  70.262  1.00  0.00    -0.131 C  
BRANCH  24  25
HETATM   25  C   UNL     1      -9.063   4.900  69.064  1.00  0.00    -0.111 C  
HETATM   26  O   UNL     1      -8.732   5.723  65.063  1.00  0.00    -0.127 OA 
HETATM   27  O   UNL     1      -8.192   3.325  65.102  1.00  0.00    -0.093 OA 
HETATM   28  N   UNL     1      -9.181   3.596  69.095  1.00  0.00    -0.146 NA 
HETATM   29  O   UNL     1     -10.599   4.060  64.519  1.00  0.00    -0.257 OA 
HETATM   30  C   UNL     1      -9.480   3.232  67.801  1.00  0.00    -0.164 C  
HETATM   31  O   UNL     1      -9.438   2.095  67.351  1.00  0.00    -0.108 OA 
HETATM   32  P   UNL     1      -9.423   4.305  65.397  1.00  0.00    -0.199 P  
HETATM   33  N   UNL     1      -9.659   4.362  67.047  1.00  0.00    -0.185 N  
HETATM   34  N   UNL     1      -9.387   5.482  67.861  1.00  0.00    -0.108 NA 
ENDBRANCH  24  25
ENDBRANCH  19  24
BRANCH  20  35
HETATM   35  C   UNL     1      -8.432   8.741  70.802  1.00  0.00    -0.202 A  
HETATM   36  C   UNL     1      -6.373  10.033  70.569  1.00  0.00    -0.116 A  
HETATM   37  F   UNL     1      -6.272  11.755  68.959  1.00  0.00    -0.055 F  
HETATM   38  C   UNL     1      -7.110   9.028  71.203  1.00  0.00    -0.107 A  
HETATM   39  C   UNL     1      -8.252  10.486  69.114  1.00  0.00    -0.152 A  
HETATM   40  C   UNL     1      -8.983   9.470  69.737  1.00  0.00    -0.214 A  
HETATM   41  C   UNL     1      -6.961  10.764  69.539  1.00  0.00    -0.130 A  
ENDBRANCH  20  35
ENDBRANCH  17  18
ENDBRANCH   2  17
TORSDOF 6
ENDMDL
MODEL       26
REMARK 921   NORMALIZED FREE ENERGY PREDICTED BY IDOCK:   -8.41 KCAL/MOL
REMARK 922        TOTAL FREE ENERGY PREDICTED BY IDOCK:  -12.26 KCAL/MOL
REMARK 923 INTER-LIGAND FREE ENERGY PREDICTED BY IDOCK:  -10.70 KCAL/MOL
REMARK 924 INTRA-LIGAND FREE ENERGY PREDICTED BY IDOCK:   -1.55 KCAL/MOL
REMARK 927      BINDING AFFINITY PREDICTED BY RF-SCORE:    0.00 PKD
ROOT
HETATM    1  C   UNL     1      -6.925  12.017  67.292  1.00  0.00    -0.146 C  
HETATM    2  C   UNL     1      -8.388  11.853  66.901  1.00  0.00    -0.169 C  
ENDROOT
BRANCH   2   3
HETATM    3  C   UNL     1      -9.106  13.180  66.762  1.00  0.00    -0.214 A  
HETATM    4  F   UNL     1      -9.893  15.797  70.051  1.00  0.00    -0.277 F  
HETATM    5  F   UNL     1     -10.829  17.248  68.733  1.00  0.00    -0.322 F  
HETATM    6  C   UNL     1     -10.046  13.304  65.731  1.00  0.00    -0.293 A  
HETATM    7  C   UNL     1     -10.977  14.341  65.728  1.00  0.00    -0.305 A  
HETATM    8  F   UNL     1      -8.665  17.040  68.754  1.00  0.00    -0.243 F  
HETATM    9  C   UNL     1     -12.124  14.310  64.743  1.00  0.00    -0.446 C  
HETATM   10  C   UNL     1     -10.897  15.327  66.723  1.00  0.00    -0.312 A  
HETATM   11  C   UNL     1      -9.824  16.329  68.801  1.00  0.00    -0.238 C  
HETATM   12  C   UNL     1      -9.904  15.276  67.718  1.00  0.00    -0.220 A  
HETATM   13  F   UNL     1     -11.987  13.350  63.787  1.00  0.00    -0.448 F  
HETATM   14  F   UNL     1     -13.307  14.054  65.361  1.00  0.00    -0.478 F  
HETATM   15  C   UNL     1      -9.015  14.189  67.733  1.00  0.00    -0.187 A  
HETATM   16  F   UNL     1     -12.283  15.484  64.081  1.00  0.00    -0.475 F  
ENDBRANCH   2   3
BRANCH   2  17
HETATM   17  O   UNL     1      -9.071  11.005  67.839  1.00  0.00    -0.141 OA 
BRANCH  17  18
HETATM   18  C   UNL     1     -10.251  10.364  67.294  1.00  0.00    -0.211 C  
HETATM   19  N   UNL     1     -10.424   8.548  69.039  1.00  0.00    -0.218 NA 
HETATM   20  C   UNL     1     -11.160   9.671  68.402  1.00  0.00    -0.037 C  
HETATM   21  O   UNL     1      -9.909   9.396  66.287  1.00  0.00    -0.239 OA 
HETATM   22  C   UNL     1      -9.172   8.313  66.868  1.00  0.00    -0.158 C  
HETATM   23  C   UNL     1      -9.966   7.617  67.980  1.00  0.00    -0.175 C  
BRANCH  19  24
HETATM   24  C   UNL     1     -11.073   7.837  70.155  1.00  0.00    -0.209 C  
BRANCH  24  25
HETATM   25  C   UNL     1     -10.157   7.516  71.321  1.00  0.00    -0.187 C  
HETATM   26  O   UNL     1      -6.564   9.189  72.366  1.00  0.00    -0.301 OA 
HETATM   27  O   UNL     1      -7.642   8.966  74.564  1.00  0.00    -0.420 OA 
HETATM   28  N   UNL     1     -10.596   7.016  72.450  1.00  0.00    -0.215 NA 
HETATM   29  O   UNL     1      -5.975   7.148  73.793  1.00  0.00    -0.057 OA 
HETATM   30  C   UNL     1      -9.501   7.000  73.285  1.00  0.00    -0.166 C  
HETATM   31  O   UNL     1      -9.530   6.832  74.497  1.00  0.00    -0.228 OA 
HETATM   32  P   UNL     1      -7.086   8.046  73.377  1.00  0.00    -0.124 P  
HETATM   33  N   UNL     1      -8.392   7.383  72.579  1.00  0.00    -0.106 N  
HETATM   34  N   UNL     1      -8.799   7.730  71.273  1.00  0.00    -0.131 NA 
ENDBRANCH  24  25
ENDBRANCH  19  24
BRANCH  20  35
HETATM   35  C   UNL     1     -11.721  10.738  69.339  1.00  0.00    -0.378 A  
HETATM   36  C   UNL     1     -12.033  13.098  69.881  1.00  0.00    -0.387 A  
HETATM   37  F   UNL     1     -12.772  13.694  72.041  1.00  0.00    -0.392 F  
HETATM   38  C   UNL     1     -11.661  12.100  68.975  1.00  0.00    -0.377 A  
HETATM   39  C   UNL     1     -12.543  11.405  71.532  1.00  0.00    -0.393 A  
HETATM   40  C   UNL     1     -12.186  10.405  70.622  1.00  0.00    -0.441 A  
HETATM   41  C   UNL     1     -12.457  12.738  71.159  1.00  0.00    -0.239 A  
ENDBRANCH  20  35
ENDBRANCH  17  18
ENDBRANCH   2  17
TORSDOF 6
ENDMDL
MODEL       27
REMARK 921   NORMALIZED FREE ENERGY PREDICTED BY IDOCK:   -8.39 KCAL/MOL
REMARK 922        TOTAL FREE ENERGY PREDICTED BY IDOCK:  -12.24 KCAL/MOL
REMARK 923 INTER-LIGAND FREE ENERGY PREDICTED BY IDOCK:  -10.57 KCAL/MOL
REMARK 924 INTRA-LIGAND FREE ENERGY PREDICTED BY IDOCK:   -1.67 KCAL/MOL
REMARK 927      BINDING AFFINITY PREDICTED BY RF-SCORE:    0.00 PKD
ROOT
HETATM    1  C   UNL     1      -6.926  14.355  68.334  1.00  0.00    -0.109 C  
HETATM    2  C   UNL     1      -8.180  13.911  67.592  1.00  0.00    -0.177 C  
ENDROOT
BRANCH   2   3
HETATM    3  C   UNL     1      -9.336  14.874  67.772  1.00  0.00    -0.194 A  
HETATM    4  F   UNL     1      -9.190  18.984  66.601  1.00  0.00    -0.284 F  
HETATM    5  F   UNL     1     -11.241  19.290  67.247  1.00  0.00    -0.553 F  
HETATM    6  C   UNL     1     -10.214  14.643  68.838  1.00  0.00    -0.241 A  
HETATM    7  C   UNL     1     -11.088  15.635  69.278  1.00  0.00    -0.293 A  
HETATM    8  F   UNL     1     -10.834  18.219  65.399  1.00  0.00    -0.466 F  
HETATM    9  C   UNL     1     -11.843  15.443  70.574  1.00  0.00    -0.339 C  
HETATM   10  C   UNL     1     -11.153  16.845  68.570  1.00  0.00    -0.213 A  
HETATM   11  C   UNL     1     -10.404  18.375  66.680  1.00  0.00    -0.396 C  
HETATM   12  C   UNL     1     -10.347  17.067  67.437  1.00  0.00    -0.319 A  
HETATM   13  F   UNL     1     -11.748  14.178  71.071  1.00  0.00    -0.360 F  
HETATM   14  F   UNL     1     -11.375  16.262  71.552  1.00  0.00    -0.411 F  
HETATM   15  C   UNL     1      -9.433  16.075  67.050  1.00  0.00    -0.230 A  
HETATM   16  F   UNL     1     -13.170  15.705  70.456  1.00  0.00    -0.476 F  
ENDBRANCH   2   3
BRANCH   2  17
HETATM   17  O   UNL     1      -8.562  12.584  67.991  1.00  0.00    -0.168 OA 
BRANCH  17  18
HETATM   18  C   UNL     1      -8.039  11.543  67.130  1.00  0.00    -0.159 C  
HETATM   19  N   UNL     1      -9.742   9.782  67.742  1.00  0.00    -0.139 NA 
HETATM   20  C   UNL     1      -9.158  10.540  66.605  1.00  0.00    -0.155 C  
HETATM   21  O   UNL     1      -6.997  10.793  67.779  1.00  0.00    -0.075 OA 
HETATM   22  C   UNL     1      -7.527  10.074  68.899  1.00  0.00    -0.083 C  
HETATM   23  C   UNL     1      -8.645   9.113  68.481  1.00  0.00    -0.129 C  
BRANCH  19  24
HETATM   24  C   UNL     1     -10.860   8.863  67.463  1.00  0.00    -0.038 C  
BRANCH  24  25
HETATM   25  C   UNL     1     -10.580   7.407  67.790  1.00  0.00    -0.210 C  
HETATM   26  O   UNL     1      -7.657   4.917  66.356  1.00  0.00    -0.086 OA 
HETATM   27  O   UNL     1      -7.666   4.317  68.740  1.00  0.00    -0.065 OA 
HETATM   28  N   UNL     1     -10.902   6.864  68.937  1.00  0.00    -0.224 NA 
HETATM   29  O   UNL     1      -8.995   2.857  67.074  1.00  0.00    -0.135 OA 
HETATM   30  C   UNL     1     -10.367   5.596  68.898  1.00  0.00    -0.225 C  
HETATM   31  O   UNL     1     -10.236   4.846  69.855  1.00  0.00    -0.257 OA 
HETATM   32  P   UNL     1      -8.623   4.246  67.459  1.00  0.00    -0.109 P  
HETATM   33  N   UNL     1      -9.839   5.371  67.654  1.00  0.00    -0.141 N  
HETATM   34  N   UNL     1      -9.967   6.557  66.900  1.00  0.00    -0.162 NA 
ENDBRANCH  24  25
ENDBRANCH  19  24
BRANCH  20  35
HETATM   35  C   UNL     1     -10.140  11.295  65.713  1.00  0.00    -0.294 A  
HETATM   36  C   UNL     1     -10.743  12.138  63.501  1.00  0.00    -0.509 A  
HETATM   37  F   UNL     1     -12.479  13.724  63.308  1.00  0.00    -0.532 F  
HETATM   38  C   UNL     1      -9.942  11.332  64.316  1.00  0.00    -0.347 A  
HETATM   39  C   UNL     1     -11.966  12.885  65.450  1.00  0.00    -0.470 A  
HETATM   40  C   UNL     1     -11.176  12.067  66.263  1.00  0.00    -0.394 A  
HETATM   41  C   UNL     1     -11.739  12.919  64.081  1.00  0.00    -0.406 A  
ENDBRANCH  20  35
ENDBRANCH  17  18
ENDBRANCH   2  17
TORSDOF 6
ENDMDL
MODEL       28
REMARK 921   NORMALIZED FREE ENERGY PREDICTED BY IDOCK:   -8.37 KCAL/MOL
REMARK 922        TOTAL FREE ENERGY PREDICTED BY IDOCK:  -12.21 KCAL/MOL
REMARK 923 INTER-LIGAND FREE ENERGY PREDICTED BY IDOCK:  -10.15 KCAL/MOL
REMARK 924 INTRA-LIGAND FREE ENERGY PREDICTED BY IDOCK:   -2.06 KCAL/MOL
REMARK 927      BINDING AFFINITY PREDICTED BY RF-SCORE:    0.00 PKD
ROOT
HETATM    1  C   UNL     1     -12.021  12.983  69.574  1.00  0.00    -0.350 C  
HETATM    2  C   UNL     1     -11.181  11.775  69.183  1.00  0.00    -0.264 C  
ENDROOT
BRANCH   2   3
HETATM    3  C   UNL     1     -11.016  11.641  67.683  1.00  0.00    -0.294 A  
HETATM    4  F   UNL     1      -7.344  10.514  65.802  1.00  0.00    -0.129 F  
HETATM    5  F   UNL     1      -8.268  10.603  63.838  1.00  0.00    -0.167 F  
HETATM    6  C   UNL     1     -11.820  12.445  66.866  1.00  0.00    -0.377 A  
HETATM    7  C   UNL     1     -11.516  12.634  65.520  1.00  0.00    -0.375 A  
HETATM    8  F   UNL     1      -8.696   8.932  65.163  1.00  0.00    -0.163 F  
HETATM    9  C   UNL     1     -12.254  13.692  64.730  1.00  0.00    -0.403 C  
HETATM   10  C   UNL     1     -10.444  11.924  64.960  1.00  0.00    -0.333 A  
HETATM   11  C   UNL     1      -8.510  10.280  65.141  1.00  0.00    -0.168 C  
HETATM   12  C   UNL     1      -9.675  11.037  65.737  1.00  0.00    -0.268 A  
HETATM   13  F   UNL     1     -13.328  14.207  65.391  1.00  0.00    -0.494 F  
HETATM   14  F   UNL     1     -11.453  14.751  64.441  1.00  0.00    -0.367 F  
HETATM   15  C   UNL     1      -9.966  10.909  67.105  1.00  0.00    -0.221 A  
HETATM   16  F   UNL     1     -12.725  13.232  63.543  1.00  0.00    -0.376 F  
ENDBRANCH   2   3
BRANCH   2  17
HETATM   17  O   UNL     1     -11.735  10.570  69.739  1.00  0.00    -0.263 OA 
BRANCH  17  18
HETATM   18  C   UNL     1     -11.570  10.462  71.174  1.00  0.00    -0.228 C  
HETATM   19  N   UNL     1     -11.892   7.961  71.312  1.00  0.00    -0.293 NA 
HETATM   20  C   UNL     1     -10.953   9.068  71.633  1.00  0.00    -0.365 C  
HETATM   21  O   UNL     1     -12.810  10.683  71.868  1.00  0.00    -0.445 OA 
HETATM   22  C   UNL     1     -13.747   9.645  71.553  1.00  0.00    -0.235 C  
HETATM   23  C   UNL     1     -13.207   8.260  71.927  1.00  0.00    -0.344 C  
BRANCH  19  24
HETATM   24  C   UNL     1     -11.457   6.580  71.584  1.00  0.00    -0.297 C  
BRANCH  24  25
HETATM   25  C   UNL     1     -10.971   5.816  70.366  1.00  0.00    -0.262 C  
HETATM   26  O   UNL     1     -10.521   7.077  66.492  1.00  0.00    -0.165 OA 
HETATM   27  O   UNL     1      -8.485   5.734  66.795  1.00  0.00    -0.112 OA 
HETATM   28  N   UNL     1     -10.149   4.800  70.449  1.00  0.00    -0.244 NA 
HETATM   29  O   UNL     1     -10.539   4.660  65.654  1.00  0.00    -0.287 OA 
HETATM   30  C   UNL     1      -9.844   4.477  69.146  1.00  0.00    -0.152 C  
HETATM   31  O   UNL     1      -8.933   3.744  68.786  1.00  0.00    -0.102 OA 
HETATM   32  P   UNL     1     -10.075   5.550  66.752  1.00  0.00    -0.255 P  
HETATM   33  N   UNL     1     -10.604   5.244  68.304  1.00  0.00    -0.072 N  
HETATM   34  N   UNL     1     -11.360   6.142  69.088  1.00  0.00    -0.355 NA 
ENDBRANCH  24  25
ENDBRANCH  19  24
BRANCH  20  35
HETATM   35  C   UNL     1      -9.532   8.936  71.089  1.00  0.00    -0.335 A  
HETATM   36  C   UNL     1      -8.041   8.550  69.195  1.00  0.00    -0.117 A  
HETATM   37  F   UNL     1      -5.763   8.085  69.600  1.00  0.00    -0.025 F  
HETATM   38  C   UNL     1      -9.317   8.820  69.699  1.00  0.00    -0.158 A  
HETATM   39  C   UNL     1      -7.161   8.516  71.448  1.00  0.00    -0.096 A  
HETATM   40  C   UNL     1      -8.434   8.801  71.952  1.00  0.00    -0.151 A  
HETATM   41  C   UNL     1      -6.977   8.385  70.079  1.00  0.00    -0.043 A  
ENDBRANCH  20  35
ENDBRANCH  17  18
ENDBRANCH   2  17
TORSDOF 6
ENDMDL
MODEL       29
REMARK 921   NORMALIZED FREE ENERGY PREDICTED BY IDOCK:   -8.36 KCAL/MOL
REMARK 922        TOTAL FREE ENERGY PREDICTED BY IDOCK:  -12.19 KCAL/MOL
REMARK 923 INTER-LIGAND FREE ENERGY PREDICTED BY IDOCK:  -11.15 KCAL/MOL
REMARK 924 INTRA-LIGAND FREE ENERGY PREDICTED BY IDOCK:   -1.03 KCAL/MOL
REMARK 927      BINDING AFFINITY PREDICTED BY RF-SCORE:    0.00 PKD
ROOT
HETATM    1  C   UNL     1     -10.834   6.913  66.920  1.00  0.00    -0.380 C  
HETATM    2  C   UNL     1     -10.050   8.019  67.615  1.00  0.00    -0.209 C  
ENDROOT
BRANCH   2   3
HETATM    3  C   UNL     1      -9.689   7.669  69.044  1.00  0.00    -0.160 A  
HETATM    4  F   UNL     1     -12.351   8.198  72.349  1.00  0.00    -0.343 F  
HETATM    5  F   UNL     1     -10.882   7.379  73.724  1.00  0.00    -0.414 F  
HETATM    6  C   UNL     1      -8.341   7.752  69.413  1.00  0.00    -0.133 A  
HETATM    7  C   UNL     1      -7.962   7.775  70.754  1.00  0.00    -0.101 A  
HETATM    8  F   UNL     1     -11.979   6.054  72.393  1.00  0.00    -0.343 F  
HETATM    9  C   UNL     1      -6.534   8.110  71.119  1.00  0.00    -0.039 C  
HETATM   10  C   UNL     1      -8.946   7.610  71.740  1.00  0.00    -0.145 A  
HETATM   11  C   UNL     1     -11.364   7.267  72.454  1.00  0.00    -0.284 C  
HETATM   12  C   UNL     1     -10.299   7.431  71.393  1.00  0.00    -0.208 A  
HETATM   13  F   UNL     1      -5.694   8.133  70.047  1.00  0.00    -0.023 F  
HETATM   14  F   UNL     1      -6.438   9.338  71.693  1.00  0.00    -0.081 F  
HETATM   15  C   UNL     1     -10.662   7.470  70.037  1.00  0.00    -0.248 A  
HETATM   16  F   UNL     1      -5.995   7.231  72.003  1.00  0.00    -0.037 F  
ENDBRANCH   2   3
BRANCH   2  17
HETATM   17  O   UNL     1     -10.772   9.260  67.566  1.00  0.00    -0.277 OA 
BRANCH  17  18
HETATM   18  C   UNL     1      -9.922  10.432  67.611  1.00  0.00    -0.174 C  
HETATM   19  N   UNL     1     -11.475  11.963  66.338  1.00  0.00    -0.435 NA 
HETATM   20  C   UNL     1     -10.736  11.800  67.618  1.00  0.00    -0.214 C  
HETATM   21  O   UNL     1      -8.981  10.446  66.524  1.00  0.00    -0.143 OA 
HETATM   22  C   UNL     1      -9.668  10.572  65.274  1.00  0.00    -0.270 C  
HETATM   23  C   UNL     1     -10.514  11.850  65.216  1.00  0.00    -0.275 C  
BRANCH  19  24
HETATM   24  C   UNL     1     -12.359  13.133  66.191  1.00  0.00    -0.315 C  
BRANCH  24  25
HETATM   25  C   UNL     1     -11.664  14.475  66.334  1.00  0.00    -0.363 C  
HETATM   26  O   UNL     1     -10.376  16.408  69.711  1.00  0.00    -0.266 OA 
HETATM   27  O   UNL     1      -8.503  16.830  68.177  1.00  0.00    -0.200 OA 
HETATM   28  N   UNL     1     -10.919  14.991  65.389  1.00  0.00    -0.352 NA 
HETATM   29  O   UNL     1     -10.321  18.643  68.467  1.00  0.00    -0.360 OA 
HETATM   30  C   UNL     1     -10.367  16.123  65.945  1.00  0.00    -0.367 C  
HETATM   31  O   UNL     1      -9.431  16.762  65.483  1.00  0.00    -0.490 OA 
HETATM   32  P   UNL     1     -10.056  17.185  68.335  1.00  0.00    -0.357 P  
HETATM   33  N   UNL     1     -10.906  16.321  67.189  1.00  0.00    -0.248 N  
HETATM   34  N   UNL     1     -11.769  15.241  67.472  1.00  0.00    -0.231 NA 
ENDBRANCH  24  25
ENDBRANCH  19  24
BRANCH  20  35
HETATM   35  C   UNL     1     -11.561  11.896  68.899  1.00  0.00    -0.370 A  
HETATM   36  C   UNL     1     -12.286  13.198  70.833  1.00  0.00    -0.393 A  
HETATM   37  F   UNL     1     -13.366  12.099  72.620  1.00  0.00    -0.503 F  
HETATM   38  C   UNL     1     -11.661  13.125  69.585  1.00  0.00    -0.321 A  
HETATM   39  C   UNL     1     -12.737  10.823  70.741  1.00  0.00    -0.451 A  
HETATM   40  C   UNL     1     -12.126  10.752  69.486  1.00  0.00    -0.344 A  
HETATM   41  C   UNL     1     -12.805  12.039  71.406  1.00  0.00    -0.288 A  
ENDBRANCH  20  35
ENDBRANCH  17  18
ENDBRANCH   2  17
TORSDOF 6
ENDMDL
MODEL       30
REMARK 921   NORMALIZED FREE ENERGY PREDICTED BY IDOCK:   -8.34 KCAL/MOL
REMARK 922        TOTAL FREE ENERGY PREDICTED BY IDOCK:  -12.17 KCAL/MOL
REMARK 923 INTER-LIGAND FREE ENERGY PREDICTED BY IDOCK:  -11.33 KCAL/MOL
REMARK 924 INTRA-LIGAND FREE ENERGY PREDICTED BY IDOCK:   -0.85 KCAL/MOL
REMARK 927      BINDING AFFINITY PREDICTED BY RF-SCORE:    0.00 PKD
ROOT
HETATM    1  C   UNL     1      -7.484  11.908  67.740  1.00  0.00    -0.121 C  
HETATM    2  C   UNL     1      -8.988  11.805  67.524  1.00  0.00    -0.168 C  
ENDROOT
BRANCH   2   3
HETATM    3  C   UNL     1      -9.603  13.112  67.069  1.00  0.00    -0.241 A  
HETATM    4  F   UNL     1     -12.039  13.489  63.574  1.00  0.00    -0.509 F  
HETATM    5  F   UNL     1     -12.343  15.605  63.957  1.00  0.00    -0.453 F  
HETATM    6  C   UNL     1      -8.925  14.295  67.389  1.00  0.00    -0.205 A  
HETATM    7  C   UNL     1      -9.225  15.493  66.744  1.00  0.00    -0.272 A  
HETATM    8  F   UNL     1     -13.394  14.125  65.154  1.00  0.00    -0.344 F  
HETATM    9  C   UNL     1      -8.318  16.689  66.933  1.00  0.00    -0.210 C  
HETATM   10  C   UNL     1     -10.293  15.526  65.835  1.00  0.00    -0.365 A  
HETATM   11  C   UNL     1     -12.194  14.399  64.574  1.00  0.00    -0.463 C  
HETATM   12  C   UNL     1     -11.051  14.371  65.564  1.00  0.00    -0.326 A  
HETATM   13  F   UNL     1      -7.401  16.518  67.925  1.00  0.00    -0.128 F  
HETATM   14  F   UNL     1      -7.604  16.958  65.809  1.00  0.00    -0.296 F  
HETATM   15  C   UNL     1     -10.691  13.163  66.183  1.00  0.00    -0.289 A  
HETATM   16  F   UNL     1      -8.998  17.824  67.237  1.00  0.00    -0.235 F  
ENDBRANCH   2   3
BRANCH   2  17
HETATM   17  O   UNL     1      -9.640  11.326  68.712  1.00  0.00    -0.192 OA 
BRANCH  17  18
HETATM   18  C   UNL     1     -10.907  10.670  68.459  1.00  0.00    -0.233 C  
HETATM   19  N   UNL     1     -10.994   9.371  70.622  1.00  0.00    -0.265 NA 
HETATM   20  C   UNL     1     -11.729  10.356  69.785  1.00  0.00    -0.237 C  
HETATM   21  O   UNL     1     -10.733   9.455  67.709  1.00  0.00    -0.265 OA 
HETATM   22  C   UNL     1     -10.001   8.496  68.482  1.00  0.00    -0.184 C  
HETATM   23  C   UNL     1     -10.708   8.169  69.802  1.00  0.00    -0.229 C  
BRANCH  19  24
HETATM   24  C   UNL     1     -11.558   9.019  71.937  1.00  0.00    -0.370 C  
BRANCH  24  25
HETATM   25  C   UNL     1     -10.796   7.942  72.687  1.00  0.00    -0.364 C  
HETATM   26  O   UNL     1     -10.634   3.901  72.018  1.00  0.00    -0.016 OA 
HETATM   27  O   UNL     1      -8.281   4.394  72.531  1.00  0.00    -0.101 OA 
HETATM   28  N   UNL     1      -9.687   8.184  73.340  1.00  0.00    -0.180 NA 
HETATM   29  O   UNL     1      -9.812   3.492  74.406  1.00  0.00    -0.110 OA 
HETATM   30  C   UNL     1      -9.239   6.950  73.756  1.00  0.00    -0.180 C  
HETATM   31  O   UNL     1      -8.121   6.705  74.191  1.00  0.00    -0.115 OA 
HETATM   32  P   UNL     1      -9.715   4.412  73.241  1.00  0.00    -0.135 P  
HETATM   33  N   UNL     1     -10.176   6.002  73.441  1.00  0.00    -0.201 N  
HETATM   34  N   UNL     1     -11.219   6.634  72.731  1.00  0.00    -0.252 NA 
ENDBRANCH  24  25
ENDBRANCH  19  24
BRANCH  20  35
HETATM   35  C   UNL     1     -12.123  11.666  70.463  1.00  0.00    -0.458 A  
HETATM   36  C   UNL     1     -13.425  12.837  72.164  1.00  0.00    -0.591 A  
HETATM   37  F   UNL     1     -13.623  15.186  72.048  1.00  0.00    -0.375 F  
HETATM   38  C   UNL     1     -12.933  11.648  71.618  1.00  0.00    -0.483 A  
HETATM   39  C   UNL     1     -12.306  14.094  70.427  1.00  0.00    -0.428 A  
HETATM   40  C   UNL     1     -11.801  12.906  69.889  1.00  0.00    -0.373 A  
HETATM   41  C   UNL     1     -13.118  14.049  71.551  1.00  0.00    -0.363 A  
ENDBRANCH  20  35
ENDBRANCH  17  18
ENDBRANCH   2  17
TORSDOF 6
ENDMDL
MODEL       31
REMARK 921   NORMALIZED FREE ENERGY PREDICTED BY IDOCK:   -8.28 KCAL/MOL
REMARK 922        TOTAL FREE ENERGY PREDICTED BY IDOCK:  -12.09 KCAL/MOL
REMARK 923 INTER-LIGAND FREE ENERGY PREDICTED BY IDOCK:  -10.88 KCAL/MOL
REMARK 924 INTRA-LIGAND FREE ENERGY PREDICTED BY IDOCK:   -1.21 KCAL/MOL
REMARK 927      BINDING AFFINITY PREDICTED BY RF-SCORE:    0.00 PKD
ROOT
HETATM    1  C   UNL     1      -9.624   8.838  67.381  1.00  0.00    -0.206 C  
HETATM    2  C   UNL     1      -9.574   9.736  68.611  1.00  0.00    -0.151 C  
ENDROOT
BRANCH   2   3
HETATM    3  C   UNL     1     -10.216   9.097  69.825  1.00  0.00    -0.219 A  
HETATM    4  F   UNL     1     -13.606  10.744  71.846  1.00  0.00    -0.418 F  
HETATM    5  F   UNL     1     -13.637   9.084  73.246  1.00  0.00    -0.310 F  
HETATM    6  C   UNL     1      -9.397   8.336  70.669  1.00  0.00    -0.172 A  
HETATM    7  C   UNL     1      -9.808   7.996  71.956  1.00  0.00    -0.273 A  
HETATM    8  F   UNL     1     -14.346   8.798  71.211  1.00  0.00    -0.445 F  
HETATM    9  C   UNL     1      -8.814   7.392  72.921  1.00  0.00    -0.134 C  
HETATM   10  C   UNL     1     -11.106   8.339  72.366  1.00  0.00    -0.447 A  
HETATM   11  C   UNL     1     -13.377   9.406  71.948  1.00  0.00    -0.434 C  
HETATM   12  C   UNL     1     -11.983   9.023  71.504  1.00  0.00    -0.414 A  
HETATM   13  F   UNL     1      -7.642   7.028  72.330  1.00  0.00    -0.087 F  
HETATM   14  F   UNL     1      -8.478   8.264  73.907  1.00  0.00    -0.277 F  
HETATM   15  C   UNL     1     -11.524   9.405  70.233  1.00  0.00    -0.223 A  
HETATM   16  F   UNL     1      -9.288   6.279  73.538  1.00  0.00    -0.131 F  
ENDBRANCH   2   3
BRANCH   2  17
HETATM   17  O   UNL     1     -10.177  11.011  68.332  1.00  0.00    -0.171 OA 
BRANCH  17  18
HETATM   18  C   UNL     1      -9.219  12.084  68.161  1.00  0.00    -0.195 C  
HETATM   19  N   UNL     1     -10.663  13.522  66.669  1.00  0.00    -0.281 NA 
HETATM   20  C   UNL     1      -9.900  13.506  67.946  1.00  0.00    -0.235 C  
HETATM   21  O   UNL     1      -8.317  11.820  67.073  1.00  0.00    -0.160 OA 
HETATM   22  C   UNL     1      -9.031  11.799  65.831  1.00  0.00    -0.059 C  
HETATM   23  C   UNL     1      -9.753  13.125  65.567  1.00  0.00    -0.043 C  
BRANCH  19  24
HETATM   24  C   UNL     1     -11.437  14.730  66.337  1.00  0.00    -0.319 C  
BRANCH  24  25
HETATM   25  C   UNL     1     -10.632  16.018  66.333  1.00  0.00    -0.284 C  
HETATM   26  O   UNL     1     -10.343  18.933  69.199  1.00  0.00    -0.204 OA 
HETATM   27  O   UNL     1      -8.003  18.749  68.470  1.00  0.00    -0.324 OA 
HETATM   28  N   UNL     1      -9.526  16.158  65.647  1.00  0.00    -0.443 NA 
HETATM   29  O   UNL     1      -9.486  20.613  67.470  1.00  0.00    -0.400 OA 
HETATM   30  C   UNL     1      -9.033  17.392  66.010  1.00  0.00    -0.051 C  
HETATM   31  O   UNL     1      -7.904  17.806  65.782  1.00  0.00    -0.541 OA 
HETATM   32  P   UNL     1      -9.431  19.188  67.895  1.00  0.00    -0.354 P  
HETATM   33  N   UNL     1      -9.942  18.017  66.823  1.00  0.00    -0.327 N  
HETATM   34  N   UNL     1     -11.012  17.126  67.053  1.00  0.00    -0.025 NA 
ENDBRANCH  24  25
ENDBRANCH  19  24
BRANCH  20  35
HETATM   35  C   UNL     1     -10.670  13.898  69.204  1.00  0.00    -0.175 A  
HETATM   36  C   UNL     1     -12.638  13.633  70.626  1.00  0.00    -0.366 A  
HETATM   37  F   UNL     1     -13.059  15.225  72.316  1.00  0.00    -0.340 F  
HETATM   38  C   UNL     1     -11.840  13.196  69.564  1.00  0.00    -0.383 A  
HETATM   39  C   UNL     1     -11.117  15.476  71.004  1.00  0.00    -0.387 A  
HETATM   40  C   UNL     1     -10.311  15.031  69.952  1.00  0.00    -0.141 A  
HETATM   41  C   UNL     1     -12.274  14.781  71.326  1.00  0.00    -0.333 A  
ENDBRANCH  20  35
ENDBRANCH  17  18
ENDBRANCH   2  17
TORSDOF 6
ENDMDL
MODEL       32
REMARK 921   NORMALIZED FREE ENERGY PREDICTED BY IDOCK:   -8.27 KCAL/MOL
REMARK 922        TOTAL FREE ENERGY PREDICTED BY IDOCK:  -12.07 KCAL/MOL
REMARK 923 INTER-LIGAND FREE ENERGY PREDICTED BY IDOCK:   -9.95 KCAL/MOL
REMARK 924 INTRA-LIGAND FREE ENERGY PREDICTED BY IDOCK:   -2.12 KCAL/MOL
REMARK 927      BINDING AFFINITY PREDICTED BY RF-SCORE:    0.00 PKD
ROOT
HETATM    1  C   UNL     1      -7.181  14.542  69.923  1.00  0.00     0.049 C  
HETATM    2  C   UNL     1      -7.663  14.152  68.532  1.00  0.00    -0.138 C  
ENDROOT
BRANCH   2   3
HETATM    3  C   UNL     1      -8.576  15.193  67.918  1.00  0.00    -0.154 A  
HETATM    4  F   UNL     1     -10.495  14.712  64.127  1.00  0.00    -0.121 F  
HETATM    5  F   UNL     1     -11.479  16.638  64.327  1.00  0.00    -0.512 F  
HETATM    6  C   UNL     1      -8.342  16.535  68.242  1.00  0.00    -0.190 A  
HETATM    7  C   UNL     1      -8.898  17.565  67.487  1.00  0.00    -0.229 A  
HETATM    8  F   UNL     1     -12.187  14.933  65.477  1.00  0.00    -0.277 F  
HETATM    9  C   UNL     1      -8.434  18.987  67.709  1.00  0.00    -0.293 C  
HETATM   10  C   UNL     1      -9.787  17.243  66.450  1.00  0.00    -0.310 A  
HETATM   11  C   UNL     1     -11.058  15.552  65.036  1.00  0.00    -0.401 C  
HETATM   12  C   UNL     1     -10.112  15.904  66.163  1.00  0.00    -0.334 A  
HETATM   13  F   UNL     1      -7.657  19.134  68.818  1.00  0.00    -0.331 F  
HETATM   14  F   UNL     1      -7.685  19.438  66.669  1.00  0.00    -0.233 F  
HETATM   15  C   UNL     1      -9.492  14.883  66.900  1.00  0.00    -0.251 A  
HETATM   16  F   UNL     1      -9.463  19.862  67.849  1.00  0.00    -0.392 F  
ENDBRANCH   2   3
BRANCH   2  17
HETATM   17  O   UNL     1      -8.308  12.868  68.560  1.00  0.00    -0.137 OA 
BRANCH  17  18
HETATM   18  C   UNL     1      -7.624  11.854  67.784  1.00  0.00    -0.130 C  
HETATM   19  N   UNL     1      -9.043   9.907  68.541  1.00  0.00    -0.123 NA 
HETATM   20  C   UNL     1      -8.571  10.653  67.344  1.00  0.00    -0.122 C  
HETATM   21  O   UNL     1      -6.486  11.327  68.487  1.00  0.00    -0.049 OA 
HETATM   22  C   UNL     1      -6.909  10.627  69.664  1.00  0.00    -0.124 C  
HETATM   23  C   UNL     1      -7.863   9.475  69.328  1.00  0.00    -0.088 C  
BRANCH  19  24
HETATM   24  C   UNL     1     -10.004   8.808  68.340  1.00  0.00    -0.179 C  
BRANCH  24  25
HETATM   25  C   UNL     1     -10.642   8.283  69.612  1.00  0.00    -0.222 C  
HETATM   26  O   UNL     1      -9.318   5.402  72.210  1.00  0.00    -0.142 OA 
HETATM   27  O   UNL     1     -10.175   7.095  73.773  1.00  0.00    -0.331 OA 
HETATM   28  N   UNL     1     -11.451   9.004  70.349  1.00  0.00    -0.220 NA 
HETATM   29  O   UNL     1     -11.680   5.091  73.143  1.00  0.00    -0.313 OA 
HETATM   30  C   UNL     1     -11.700   8.237  71.465  1.00  0.00    -0.292 C  
HETATM   31  O   UNL     1     -12.212   8.632  72.504  1.00  0.00    -0.381 OA 
HETATM   32  P   UNL     1     -10.707   6.098  72.639  1.00  0.00    -0.257 P  
HETATM   33  N   UNL     1     -11.121   7.006  71.302  1.00  0.00    -0.246 N  
HETATM   34  N   UNL     1     -10.413   7.010  70.081  1.00  0.00    -0.208 NA 
ENDBRANCH  24  25
ENDBRANCH  19  24
BRANCH  20  35
HETATM   35  C   UNL     1      -9.649  11.175  66.397  1.00  0.00    -0.227 A  
HETATM   36  C   UNL     1     -11.900  12.065  66.070  1.00  0.00    -0.223 A  
HETATM   37  F   UNL     1     -12.798  12.148  63.890  1.00  0.00    -0.554 F  
HETATM   38  C   UNL     1     -10.843  11.719  66.918  1.00  0.00    -0.312 A  
HETATM   39  C   UNL     1     -10.600  11.343  64.162  1.00  0.00    -0.430 A  
HETATM   40  C   UNL     1      -9.537  11.012  65.007  1.00  0.00    -0.291 A  
HETATM   41  C   UNL     1     -11.772  11.857  64.699  1.00  0.00    -0.232 A  
ENDBRANCH  20  35
ENDBRANCH  17  18
ENDBRANCH   2  17
TORSDOF 6
ENDMDL
MODEL       33
REMARK 921   NORMALIZED FREE ENERGY PREDICTED BY IDOCK:   -8.27 KCAL/MOL
REMARK 922        TOTAL FREE ENERGY PREDICTED BY IDOCK:  -12.07 KCAL/MOL
REMARK 923 INTER-LIGAND FREE ENERGY PREDICTED BY IDOCK:  -10.93 KCAL/MOL
REMARK 924 INTRA-LIGAND FREE ENERGY PREDICTED BY IDOCK:   -1.14 KCAL/MOL
REMARK 927      BINDING AFFINITY PREDICTED BY RF-SCORE:    0.00 PKD
ROOT
HETATM    1  C   UNL     1     -12.149  15.365  69.911  1.00  0.00    -0.382 C  
HETATM    2  C   UNL     1     -10.675  15.023  69.740  1.00  0.00    -0.244 C  
ENDROOT
BRANCH   2   3
HETATM    3  C   UNL     1      -9.844  16.218  69.320  1.00  0.00    -0.252 A  
HETATM    4  F   UNL     1     -11.387  19.478  67.022  1.00  0.00    -0.515 F  
HETATM    5  F   UNL     1      -9.469  20.495  67.090  1.00  0.00    -0.488 F  
HETATM    6  C   UNL     1      -8.471  16.020  69.128  1.00  0.00    -0.247 A  
HETATM    7  C   UNL     1      -7.700  16.951  68.436  1.00  0.00    -0.219 A  
HETATM    8  F   UNL     1     -10.743  20.466  68.852  1.00  0.00    -0.441 F  
HETATM    9  C   UNL     1      -6.285  16.597  68.035  1.00  0.00    -0.130 C  
HETATM   10  C   UNL     1      -8.297  18.150  68.017  1.00  0.00    -0.268 A  
HETATM   11  C   UNL     1     -10.305  19.700  67.816  1.00  0.00    -0.454 C  
HETATM   12  C   UNL     1      -9.654  18.415  68.279  1.00  0.00    -0.355 A  
HETATM   13  F   UNL     1      -5.833  15.450  68.613  1.00  0.00    -0.089 F  
HETATM   14  F   UNL     1      -6.177  16.406  66.695  1.00  0.00    -0.206 F  
HETATM   15  C   UNL     1     -10.424  17.435  68.926  1.00  0.00    -0.312 A  
HETATM   16  F   UNL     1      -5.388  17.563  68.359  1.00  0.00    -0.134 F  
ENDBRANCH   2   3
BRANCH   2  17
HETATM   17  O   UNL     1     -10.510  13.941  68.808  1.00  0.00    -0.237 OA 
BRANCH  17  18
HETATM   18  C   UNL     1     -11.760  13.412  68.302  1.00  0.00    -0.356 C  
HETATM   19  N   UNL     1     -10.746  11.564  66.911  1.00  0.00    -0.250 NA 
HETATM   20  C   UNL     1     -11.708  11.848  68.009  1.00  0.00    -0.312 C  
HETATM   21  O   UNL     1     -12.186  14.102  67.116  1.00  0.00    -0.421 OA 
HETATM   22  C   UNL     1     -11.261  13.870  66.047  1.00  0.00    -0.300 C  
HETATM   23  C   UNL     1     -11.121  12.377  65.730  1.00  0.00    -0.315 C  
BRANCH  19  24
HETATM   24  C   UNL     1     -10.496  10.156  66.555  1.00  0.00    -0.166 C  
BRANCH  24  25
HETATM   25  C   UNL     1      -9.106   9.877  66.014  1.00  0.00    -0.158 C  
HETATM   26  O   UNL     1      -7.964   8.396  62.366  1.00  0.00    -0.137 OA 
HETATM   27  O   UNL     1      -6.291  10.164  62.707  1.00  0.00    -0.119 OA 
HETATM   28  N   UNL     1      -8.044  10.526  66.421  1.00  0.00    -0.129 NA 
HETATM   29  O   UNL     1      -5.679   7.725  63.302  1.00  0.00    -0.052 OA 
HETATM   30  C   UNL     1      -7.022  10.089  65.608  1.00  0.00    -0.115 C  
HETATM   31  O   UNL     1      -5.922  10.615  65.498  1.00  0.00    -0.124 OA 
HETATM   32  P   UNL     1      -6.740   8.768  63.348  1.00  0.00    -0.088 P  
HETATM   33  N   UNL     1      -7.486   9.081  64.806  1.00  0.00    -0.100 N  
HETATM   34  N   UNL     1      -8.866   8.920  65.055  1.00  0.00    -0.174 NA 
ENDBRANCH  24  25
ENDBRANCH  19  24
BRANCH  20  35
HETATM   35  C   UNL     1     -11.491  11.091  69.318  1.00  0.00    -0.370 A  
HETATM   36  C   UNL     1     -10.099   9.621  70.683  1.00  0.00    -0.324 A  
HETATM   37  F   UNL     1     -11.024   8.626  72.612  1.00  0.00    -0.407 F  
HETATM   38  C   UNL     1     -10.263  10.440  69.561  1.00  0.00    -0.258 A  
HETATM   39  C   UNL     1     -12.375  10.090  71.353  1.00  0.00    -0.512 A  
HETATM   40  C   UNL     1     -12.535  10.920  70.240  1.00  0.00    -0.383 A  
HETATM   41  C   UNL     1     -11.165   9.443  71.561  1.00  0.00    -0.386 A  
ENDBRANCH  20  35
ENDBRANCH  17  18
ENDBRANCH   2  17
TORSDOF 6
ENDMDL
MODEL       34
REMARK 921   NORMALIZED FREE ENERGY PREDICTED BY IDOCK:   -8.24 KCAL/MOL
REMARK 922        TOTAL FREE ENERGY PREDICTED BY IDOCK:  -12.04 KCAL/MOL
REMARK 923 INTER-LIGAND FREE ENERGY PREDICTED BY IDOCK:  -10.00 KCAL/MOL
REMARK 924 INTRA-LIGAND FREE ENERGY PREDICTED BY IDOCK:   -2.04 KCAL/MOL
REMARK 927      BINDING AFFINITY PREDICTED BY RF-SCORE:    0.00 PKD
ROOT
HETATM    1  C   UNL     1     -11.567  10.901  70.746  1.00  0.00    -0.249 C  
HETATM    2  C   UNL     1     -11.365  11.332  69.299  1.00  0.00    -0.287 C  
ENDROOT
BRANCH   2   3
HETATM    3  C   UNL     1     -10.311  10.510  68.587  1.00  0.00    -0.201 A  
HETATM    4  F   UNL     1     -10.249   9.903  64.355  1.00  0.00    -0.310 F  
HETATM    5  F   UNL     1      -8.428   8.728  64.502  1.00  0.00    -0.154 F  
HETATM    6  C   UNL     1      -9.719   9.457  69.296  1.00  0.00    -0.173 A  
HETATM    7  C   UNL     1      -9.003   8.460  68.638  1.00  0.00    -0.140 A  
HETATM    8  F   UNL     1      -8.342  10.890  64.708  1.00  0.00    -0.152 F  
HETATM    9  C   UNL     1      -8.589   7.217  69.393  1.00  0.00    -0.134 C  
HETATM   10  C   UNL     1      -8.790   8.577  67.256  1.00  0.00    -0.137 A  
HETATM   11  C   UNL     1      -9.079   9.797  65.042  1.00  0.00    -0.231 C  
HETATM   12  C   UNL     1      -9.295   9.674  66.534  1.00  0.00    -0.212 A  
HETATM   13  F   UNL     1      -8.777   7.316  70.738  1.00  0.00    -0.138 F  
HETATM   14  F   UNL     1      -9.302   6.129  68.997  1.00  0.00    -0.128 F  
HETATM   15  C   UNL     1     -10.063  10.635  67.211  1.00  0.00    -0.238 A  
HETATM   16  F   UNL     1      -7.280   6.903  69.216  1.00  0.00    -0.077 F  
ENDBRANCH   2   3
BRANCH   2  17
HETATM   17  O   UNL     1     -11.048  12.732  69.227  1.00  0.00    -0.217 OA 
BRANCH  17  18
HETATM   18  C   UNL     1     -12.212  13.591  69.154  1.00  0.00    -0.194 C  
HETATM   19  N   UNL     1     -10.959  15.733  68.683  1.00  0.00    -0.288 NA 
HETATM   20  C   UNL     1     -12.021  14.827  68.169  1.00  0.00    -0.230 C  
HETATM   21  O   UNL     1     -12.596  14.074  70.453  1.00  0.00    -0.336 OA 
HETATM   22  C   UNL     1     -11.577  14.928  70.986  1.00  0.00    -0.298 C  
HETATM   23  C   UNL     1     -11.301  16.126  70.071  1.00  0.00    -0.328 C  
BRANCH  19  24
HETATM   24  C   UNL     1     -10.578  16.893  67.859  1.00  0.00    -0.361 C  
BRANCH  24  25
HETATM   25  C   UNL     1      -9.127  17.318  67.995  1.00  0.00    -0.249 C  
HETATM   26  O   UNL     1      -7.459  21.053  67.739  1.00  0.00    -0.199 OA 
HETATM   27  O   UNL     1      -6.226  20.111  69.645  1.00  0.00    -0.321 OA 
HETATM   28  N   UNL     1      -8.257  16.648  68.708  1.00  0.00    -0.242 NA 
HETATM   29  O   UNL     1      -5.150  20.043  67.297  1.00  0.00    -0.162 OA 
HETATM   30  C   UNL     1      -7.114  17.416  68.695  1.00  0.00    -0.237 C  
HETATM   31  O   UNL     1      -6.147  17.270  69.430  1.00  0.00    -0.210 OA 
HETATM   32  P   UNL     1      -6.410  19.876  68.072  1.00  0.00    -0.249 P  
HETATM   33  N   UNL     1      -7.300  18.483  67.855  1.00  0.00    -0.232 N  
HETATM   34  N   UNL     1      -8.628  18.441  67.378  1.00  0.00    -0.255 NA 
ENDBRANCH  24  25
ENDBRANCH  19  24
BRANCH  20  35
HETATM   35  C   UNL     1     -11.849  14.318  66.740  1.00  0.00    -0.449 A  
HETATM   36  C   UNL     1     -12.817  13.269  64.758  1.00  0.00    -0.259 A  
HETATM   37  F   UNL     1     -11.383  12.475  63.061  1.00  0.00    -0.481 F  
HETATM   38  C   UNL     1     -12.972  13.875  66.009  1.00  0.00    -0.139 A  
HETATM   39  C   UNL     1     -10.419  13.539  64.930  1.00  0.00    -0.417 A  
HETATM   40  C   UNL     1     -10.575  14.159  66.173  1.00  0.00    -0.293 A  
HETATM   41  C   UNL     1     -11.537  13.094  64.238  1.00  0.00    -0.392 A  
ENDBRANCH  20  35
ENDBRANCH  17  18
ENDBRANCH   2  17
TORSDOF 6
ENDMDL
MODEL       35
REMARK 921   NORMALIZED FREE ENERGY PREDICTED BY IDOCK:   -8.24 KCAL/MOL
REMARK 922        TOTAL FREE ENERGY PREDICTED BY IDOCK:  -12.04 KCAL/MOL
REMARK 923 INTER-LIGAND FREE ENERGY PREDICTED BY IDOCK:  -10.68 KCAL/MOL
REMARK 924 INTRA-LIGAND FREE ENERGY PREDICTED BY IDOCK:   -1.36 KCAL/MOL
REMARK 927      BINDING AFFINITY PREDICTED BY RF-SCORE:    0.00 PKD
ROOT
HETATM    1  C   UNL     1      -9.352  14.829  68.796  1.00  0.00    -0.198 C  
HETATM    2  C   UNL     1     -10.126  13.586  68.375  1.00  0.00    -0.240 C  
ENDROOT
BRANCH   2   3
HETATM    3  C   UNL     1     -11.291  13.283  69.295  1.00  0.00    -0.311 A  
HETATM    4  F   UNL     1     -12.528  15.869  72.468  1.00  0.00    -0.409 F  
HETATM    5  F   UNL     1     -14.158  14.531  72.986  1.00  0.00    -0.378 F  
HETATM    6  C   UNL     1     -11.592  11.938  69.541  1.00  0.00    -0.394 A  
HETATM    7  C   UNL     1     -12.408  11.567  70.608  1.00  0.00    -0.457 A  
HETATM    8  F   UNL     1     -14.307  15.787  71.218  1.00  0.00    -0.464 F  
HETATM    9  C   UNL     1     -12.515  10.109  70.993  1.00  0.00    -0.375 C  
HETATM   10  C   UNL     1     -13.015  12.570  71.379  1.00  0.00    -0.347 A  
HETATM   11  C   UNL     1     -13.443  15.016  71.932  1.00  0.00    -0.402 C  
HETATM   12  C   UNL     1     -12.802  13.932  71.095  1.00  0.00    -0.423 A  
HETATM   13  F   UNL     1     -11.955   9.268  70.079  1.00  0.00    -0.107 F  
HETATM   14  F   UNL     1     -11.884   9.853  72.169  1.00  0.00    -0.365 F  
HETATM   15  C   UNL     1     -11.929  14.279  70.051  1.00  0.00    -0.396 A  
HETATM   16  F   UNL     1     -13.799   9.697  71.149  1.00  0.00    -0.401 F  
ENDBRANCH   2   3
BRANCH   2  17
HETATM   17  O   UNL     1      -9.249  12.451  68.281  1.00  0.00    -0.200 OA 
BRANCH  17  18
HETATM   18  C   UNL     1      -8.212  12.596  67.279  1.00  0.00    -0.184 C  
HETATM   19  N   UNL     1      -7.858  10.129  66.873  1.00  0.00    -0.106 NA 
HETATM   20  C   UNL     1      -8.200  11.416  66.211  1.00  0.00    -0.088 C  
HETATM   21  O   UNL     1      -6.910  12.708  67.877  1.00  0.00    -0.085 OA 
HETATM   22  C   UNL     1      -6.565  11.490  68.549  1.00  0.00    -0.063 C  
HETATM   23  C   UNL     1      -6.572  10.292  67.593  1.00  0.00    -0.066 C  
BRANCH  19  24
HETATM   24  C   UNL     1      -7.882   8.901  66.059  1.00  0.00    -0.102 C  
BRANCH  24  25
HETATM   25  C   UNL     1      -8.514   7.701  66.739  1.00  0.00    -0.127 C  
HETATM   26  O   UNL     1      -9.644   7.201  70.648  1.00  0.00    -0.166 OA 
HETATM   27  O   UNL     1     -11.529   6.152  69.469  1.00  0.00    -0.429 OA 
HETATM   28  N   UNL     1      -9.255   6.832  66.098  1.00  0.00    -0.127 NA 
HETATM   29  O   UNL     1      -9.627   4.657  70.376  1.00  0.00    -0.164 OA 
HETATM   30  C   UNL     1      -9.746   5.991  67.072  1.00  0.00    -0.138 C  
HETATM   31  O   UNL     1     -10.662   5.191  66.930  1.00  0.00    -0.230 OA 
HETATM   32  P   UNL     1      -9.959   5.938  69.696  1.00  0.00    -0.215 P  
HETATM   33  N   UNL     1      -9.172   6.312  68.274  1.00  0.00    -0.113 N  
HETATM   34  N   UNL     1      -8.351   7.444  68.081  1.00  0.00    -0.124 NA 
ENDBRANCH  24  25
ENDBRANCH  19  24
BRANCH  20  35
HETATM   35  C   UNL     1      -9.497  11.444  65.405  1.00  0.00    -0.240 A  
HETATM   36  C   UNL     1     -10.616  11.544  63.237  1.00  0.00    -0.405 A  
HETATM   37  F   UNL     1     -12.928  12.011  63.156  1.00  0.00    -0.646 F  
HETATM   38  C   UNL     1      -9.455  11.371  63.997  1.00  0.00    -0.159 A  
HETATM   39  C   UNL     1     -11.892  11.858  65.268  1.00  0.00    -0.160 A  
HETATM   40  C   UNL     1     -10.734  11.669  66.029  1.00  0.00    -0.328 A  
HETATM   41  C   UNL     1     -11.823  11.802  63.884  1.00  0.00    -0.349 A  
ENDBRANCH  20  35
ENDBRANCH  17  18
ENDBRANCH   2  17
TORSDOF 6
ENDMDL
MODEL       36
REMARK 921   NORMALIZED FREE ENERGY PREDICTED BY IDOCK:   -8.21 KCAL/MOL
REMARK 922        TOTAL FREE ENERGY PREDICTED BY IDOCK:  -11.99 KCAL/MOL
REMARK 923 INTER-LIGAND FREE ENERGY PREDICTED BY IDOCK:  -10.06 KCAL/MOL
REMARK 924 INTRA-LIGAND FREE ENERGY PREDICTED BY IDOCK:   -1.92 KCAL/MOL
REMARK 927      BINDING AFFINITY PREDICTED BY RF-SCORE:    0.00 PKD
ROOT
HETATM    1  C   UNL     1      -9.053  15.101  69.113  1.00  0.00    -0.215 C  
HETATM    2  C   UNL     1      -9.712  13.854  68.537  1.00  0.00    -0.202 C  
ENDROOT
BRANCH   2   3
HETATM    3  C   UNL     1     -10.949  13.440  69.306  1.00  0.00    -0.159 A  
HETATM    4  F   UNL     1     -12.691  15.791  72.424  1.00  0.00    -0.393 F  
HETATM    5  F   UNL     1     -14.280  14.336  72.698  1.00  0.00    -0.520 F  
HETATM    6  C   UNL     1     -11.189  12.068  69.460  1.00  0.00    -0.220 A  
HETATM    7  C   UNL     1     -12.093  11.599  70.411  1.00  0.00    -0.462 A  
HETATM    8  F   UNL     1     -14.312  15.666  70.978  1.00  0.00    -0.481 F  
HETATM    9  C   UNL     1     -12.148  10.120  70.721  1.00  0.00    -0.343 C  
HETATM   10  C   UNL     1     -12.843  12.526  71.150  1.00  0.00    -0.303 A  
HETATM   11  C   UNL     1     -13.485  14.913  71.753  1.00  0.00    -0.388 C  
HETATM   12  C   UNL     1     -12.688  13.911  70.949  1.00  0.00    -0.410 A  
HETATM   13  F   UNL     1     -11.439   9.358  69.842  1.00  0.00    -0.236 F  
HETATM   14  F   UNL     1     -11.636   9.845  71.949  1.00  0.00    -0.425 F  
HETATM   15  C   UNL     1     -11.729  14.358  70.026  1.00  0.00    -0.360 A  
HETATM   16  F   UNL     1     -13.413   9.627  70.713  1.00  0.00    -0.348 F  
ENDBRANCH   2   3
BRANCH   2  17
HETATM   17  O   UNL     1      -8.771  12.769  68.470  1.00  0.00    -0.146 OA 
BRANCH  17  18
HETATM   18  C   UNL     1      -7.989  12.749  67.251  1.00  0.00    -0.156 C  
HETATM   19  N   UNL     1      -8.676  10.435  66.507  1.00  0.00    -0.134 NA 
HETATM   20  C   UNL     1      -8.642  11.865  66.099  1.00  0.00     0.052 C  
HETATM   21  O   UNL     1      -6.645  12.298  67.491  1.00  0.00    -0.110 OA 
HETATM   22  C   UNL     1      -6.649  10.930  67.915  1.00  0.00    -0.063 C  
HETATM   23  C   UNL     1      -7.303  10.013  66.874  1.00  0.00    -0.092 C  
BRANCH  19  24
HETATM   24  C   UNL     1      -9.326   9.470  65.603  1.00  0.00    -0.241 C  
BRANCH  24  25
HETATM   25  C   UNL     1      -9.738   8.165  66.259  1.00  0.00    -0.153 C  
HETATM   26  O   UNL     1      -7.465   4.900  67.247  1.00  0.00    -0.080 OA 
HETATM   27  O   UNL     1      -8.913   5.088  69.224  1.00  0.00    -0.093 OA 
HETATM   28  N   UNL     1     -10.766   8.071  67.065  1.00  0.00    -0.286 NA 
HETATM   29  O   UNL     1      -9.550   3.422  67.355  1.00  0.00    -0.208 OA 
HETATM   30  C   UNL     1     -10.724   6.783  67.551  1.00  0.00    -0.311 C  
HETATM   31  O   UNL     1     -11.361   6.360  68.507  1.00  0.00    -0.303 OA 
HETATM   32  P   UNL     1      -9.019   4.779  67.657  1.00  0.00    -0.119 P  
HETATM   33  N   UNL     1      -9.725   6.095  66.915  1.00  0.00    -0.143 N  
HETATM   34  N   UNL     1      -9.055   6.989  66.053  1.00  0.00    -0.117 NA 
ENDBRANCH  24  25
ENDBRANCH  19  24
BRANCH  20  35
HETATM   35  C   UNL     1      -9.971  12.484  65.673  1.00  0.00    -0.259 A  
HETATM   36  C   UNL     1     -11.213  14.412  64.834  1.00  0.00    -0.392 A  
HETATM   37  F   UNL     1     -13.569  14.405  64.957  1.00  0.00     0.046 F  
HETATM   38  C   UNL     1      -9.998  13.770  65.093  1.00  0.00    -0.240 A  
HETATM   39  C   UNL     1     -12.406  12.502  65.717  1.00  0.00    -0.227 A  
HETATM   40  C   UNL     1     -11.192  11.853  65.962  1.00  0.00    -0.377 A  
HETATM   41  C   UNL     1     -12.406  13.774  65.164  1.00  0.00    -0.448 A  
ENDBRANCH  20  35
ENDBRANCH  17  18
ENDBRANCH   2  17
TORSDOF 6
ENDMDL
MODEL       37
REMARK 921   NORMALIZED FREE ENERGY PREDICTED BY IDOCK:   -8.21 KCAL/MOL
REMARK 922        TOTAL FREE ENERGY PREDICTED BY IDOCK:  -11.99 KCAL/MOL
REMARK 923 INTER-LIGAND FREE ENERGY PREDICTED BY IDOCK:  -10.16 KCAL/MOL
REMARK 924 INTRA-LIGAND FREE ENERGY PREDICTED BY IDOCK:   -1.83 KCAL/MOL
REMARK 927      BINDING AFFINITY PREDICTED BY RF-SCORE:    0.00 PKD
ROOT
HETATM    1  C   UNL     1     -12.793  11.443  71.465  1.00  0.00    -0.508 C  
HETATM    2  C   UNL     1     -12.154  10.861  70.210  1.00  0.00    -0.355 C  
ENDROOT
BRANCH   2   3
HETATM    3  C   UNL     1     -11.556   9.489  70.443  1.00  0.00    -0.268 A  
HETATM    4  F   UNL     1      -8.890   8.589  73.663  1.00  0.00    -0.290 F  
HETATM    5  F   UNL     1      -8.768   6.511  73.043  1.00  0.00    -0.125 F  
HETATM    6  C   UNL     1     -11.354   8.670  69.325  1.00  0.00     0.391 A  
HETATM    7  C   UNL     1     -10.523   7.554  69.391  1.00  0.00    -0.222 A  
HETATM    8  F   UNL     1     -10.553   7.239  74.048  1.00  0.00    -0.404 F  
HETATM    9  C   UNL     1     -10.133   6.837  68.118  1.00  0.00    -0.164 C  
HETATM   10  C   UNL     1      -9.965   7.196  70.628  1.00  0.00    -0.195 A  
HETATM   11  C   UNL     1      -9.616   7.574  73.120  1.00  0.00    -0.233 C  
HETATM   12  C   UNL     1     -10.227   7.949  71.788  1.00  0.00    -0.247 A  
HETATM   13  F   UNL     1     -10.845   7.245  67.031  1.00  0.00    -0.367 F  
HETATM   14  F   UNL     1      -8.827   7.044  67.806  1.00  0.00    -0.123 F  
HETATM   15  C   UNL     1     -11.020   9.102  71.682  1.00  0.00    -0.445 A  
HETATM   16  F   UNL     1     -10.300   5.492  68.197  1.00  0.00    -0.193 F  
ENDBRANCH   2   3
BRANCH   2  17
HETATM   17  O   UNL     1     -11.165  11.760  69.681  1.00  0.00    -0.232 OA 
BRANCH  17  18
HETATM   18  C   UNL     1     -11.665  12.626  68.634  1.00  0.00    -0.325 C  
HETATM   19  N   UNL     1      -9.547  13.967  68.334  1.00  0.00    -0.220 NA 
HETATM   20  C   UNL     1     -10.534  13.112  67.624  1.00  0.00    -0.221 C  
HETATM   21  O   UNL     1     -12.343  13.774  69.174  1.00  0.00    -0.303 OA 
HETATM   22  C   UNL     1     -11.420  14.603  69.890  1.00  0.00    -0.274 C  
HETATM   23  C   UNL     1     -10.270  15.080  68.995  1.00  0.00    -0.242 C  
BRANCH  19  24
HETATM   24  C   UNL     1      -8.372  14.443  67.582  1.00  0.00    -0.179 C  
BRANCH  24  25
HETATM   25  C   UNL     1      -8.229  15.953  67.517  1.00  0.00    -0.159 C  
HETATM   26  O   UNL     1     -10.632  18.734  65.703  1.00  0.00    -0.596 OA 
HETATM   27  O   UNL     1     -10.107  19.867  67.820  1.00  0.00    -0.385 OA 
HETATM   28  N   UNL     1      -7.610  16.645  68.440  1.00  0.00    -0.187 NA 
HETATM   29  O   UNL     1      -8.732  20.449  65.711  1.00  0.00    -0.029 OA 
HETATM   30  C   UNL     1      -7.815  17.963  68.097  1.00  0.00    -0.266 C  
HETATM   31  O   UNL     1      -7.607  18.929  68.819  1.00  0.00    -0.323 OA 
HETATM   32  P   UNL     1      -9.371  19.356  66.493  1.00  0.00    -0.383 P  
HETATM   33  N   UNL     1      -8.457  18.018  66.888  1.00  0.00    -0.241 N  
HETATM   34  N   UNL     1      -8.744  16.698  66.482  1.00  0.00    -0.255 NA 
ENDBRANCH  24  25
ENDBRANCH  19  24
BRANCH  20  35
HETATM   35  C   UNL     1      -9.974  11.908  66.870  1.00  0.00    -0.219 A  
HETATM   36  C   UNL     1     -10.154  10.327  65.017  1.00  0.00    -0.353 A  
HETATM   37  F   UNL     1      -8.825   8.377  65.036  1.00  0.00    -0.193 F  
HETATM   38  C   UNL     1     -10.554  11.510  65.646  1.00  0.00    -0.326 A  
HETATM   39  C   UNL     1      -8.580   9.913  66.807  1.00  0.00    -0.133 A  
HETATM   40  C   UNL     1      -8.969  11.103  67.429  1.00  0.00    -0.139 A  
HETATM   41  C   UNL     1      -9.179   9.532  65.615  1.00  0.00    -0.223 A  
ENDBRANCH  20  35
ENDBRANCH  17  18
ENDBRANCH   2  17
TORSDOF 6
ENDMDL
MODEL       38
REMARK 921   NORMALIZED FREE ENERGY PREDICTED BY IDOCK:   -8.19 KCAL/MOL
REMARK 922        TOTAL FREE ENERGY PREDICTED BY IDOCK:  -11.96 KCAL/MOL
REMARK 923 INTER-LIGAND FREE ENERGY PREDICTED BY IDOCK:  -10.43 KCAL/MOL
REMARK 924 INTRA-LIGAND FREE ENERGY PREDICTED BY IDOCK:   -1.54 KCAL/MOL
REMARK 927      BINDING AFFINITY PREDICTED BY RF-SCORE:    0.00 PKD
ROOT
HETATM    1  C   UNL     1     -10.892  11.792  64.862  1.00  0.00    -0.353 C  
HETATM    2  C   UNL     1     -11.408  11.830  66.295  1.00  0.00    -0.287 C  
ENDROOT
BRANCH   2   3
HETATM    3  C   UNL     1     -11.538  13.241  66.831  1.00  0.00    -0.408 A  
HETATM    4  F   UNL     1      -9.016  16.473  65.616  1.00  0.00    -0.287 F  
HETATM    5  F   UNL     1     -10.092  17.857  66.897  1.00  0.00    -0.293 F  
HETATM    6  C   UNL     1     -12.035  13.398  68.131  1.00  0.00    -0.356 A  
HETATM    7  C   UNL     1     -11.881  14.600  68.819  1.00  0.00    -0.348 A  
HETATM    8  F   UNL     1     -10.989  17.182  65.035  1.00  0.00    -0.400 F  
HETATM    9  C   UNL     1     -12.207  14.661  70.295  1.00  0.00    -0.331 C  
HETATM   10  C   UNL     1     -11.309  15.694  68.154  1.00  0.00    -0.340 A  
HETATM   11  C   UNL     1     -10.254  16.763  66.100  1.00  0.00    -0.351 C  
HETATM   12  C   UNL     1     -10.885  15.590  66.816  1.00  0.00    -0.291 A  
HETATM   13  F   UNL     1     -12.850  13.550  70.751  1.00  0.00    -0.366 F  
HETATM   14  F   UNL     1     -11.084  14.778  71.051  1.00  0.00    -0.279 F  
HETATM   15  C   UNL     1     -10.997  14.351  66.164  1.00  0.00    -0.320 A  
HETATM   16  F   UNL     1     -12.999  15.716  70.617  1.00  0.00    -0.469 F  
ENDBRANCH   2   3
BRANCH   2  17
HETATM   17  O   UNL     1     -10.572  11.038  67.155  1.00  0.00    -0.223 OA 
BRANCH  17  18
HETATM   18  C   UNL     1      -9.219  10.871  66.663  1.00  0.00    -0.168 C  
HETATM   19  N   UNL     1      -8.263   9.879  68.779  1.00  0.00    -0.109 NA 
HETATM   20  C   UNL     1      -8.456   9.641  67.323  1.00  0.00    -0.132 C  
HETATM   21  O   UNL     1      -8.439  12.066  66.843  1.00  0.00    -0.174 OA 
HETATM   22  C   UNL     1      -8.262  12.337  68.239  1.00  0.00    -0.167 C  
HETATM   23  C   UNL     1      -7.568  11.175  68.960  1.00  0.00    -0.119 C  
BRANCH  19  24
HETATM   24  C   UNL     1      -7.650   8.807  69.582  1.00  0.00    -0.076 C  
BRANCH  24  25
HETATM   25  C   UNL     1      -8.527   8.268  70.697  1.00  0.00    -0.130 C  
HETATM   26  O   UNL     1      -9.977   4.480  71.288  1.00  0.00    -0.187 OA 
HETATM   27  O   UNL     1      -9.332   5.105  73.576  1.00  0.00    -0.133 OA 
HETATM   28  N   UNL     1      -8.544   8.788  71.899  1.00  0.00    -0.348 NA 
HETATM   29  O   UNL     1     -11.797   5.370  72.850  1.00  0.00    -0.263 OA 
HETATM   30  C   UNL     1      -9.343   7.948  72.642  1.00  0.00    -0.213 C  
HETATM   31  O   UNL     1      -9.430   7.939  73.863  1.00  0.00    -0.218 OA 
HETATM   32  P   UNL     1     -10.376   5.534  72.441  1.00  0.00    -0.223 P  
HETATM   33  N   UNL     1      -9.891   7.002  71.816  1.00  0.00    -0.163 N  
HETATM   34  N   UNL     1      -9.365   7.192  70.520  1.00  0.00    -0.159 NA 
ENDBRANCH  24  25
ENDBRANCH  19  24
BRANCH  20  35
HETATM   35  C   UNL     1      -9.153   8.340  66.932  1.00  0.00    -0.181 A  
HETATM   36  C   UNL     1     -11.063   6.835  67.156  1.00  0.00    -0.404 A  
HETATM   37  F   UNL     1     -10.899   4.636  66.317  1.00  0.00    -0.314 F  
HETATM   38  C   UNL     1     -10.466   8.079  67.379  1.00  0.00    -0.357 A  
HETATM   39  C   UNL     1      -9.061   6.081  66.027  1.00  0.00    -0.143 A  
HETATM   40  C   UNL     1      -8.469   7.331  66.236  1.00  0.00    -0.135 A  
HETATM   41  C   UNL     1     -10.345   5.842  66.494  1.00  0.00    -0.209 A  
ENDBRANCH  20  35
ENDBRANCH  17  18
ENDBRANCH   2  17
TORSDOF 6
ENDMDL
MODEL       39
REMARK 921   NORMALIZED FREE ENERGY PREDICTED BY IDOCK:   -8.18 KCAL/MOL
REMARK 922        TOTAL FREE ENERGY PREDICTED BY IDOCK:  -11.96 KCAL/MOL
REMARK 923 INTER-LIGAND FREE ENERGY PREDICTED BY IDOCK:   -9.14 KCAL/MOL
REMARK 924 INTRA-LIGAND FREE ENERGY PREDICTED BY IDOCK:   -2.82 KCAL/MOL
REMARK 927      BINDING AFFINITY PREDICTED BY RF-SCORE:    0.00 PKD
ROOT
HETATM    1  C   UNL     1     -12.951  10.834  70.748  1.00  0.00    -0.348 C  
HETATM    2  C   UNL     1     -12.002  10.999  69.568  1.00  0.00    -0.342 C  
ENDROOT
BRANCH   2   3
HETATM    3  C   UNL     1     -11.017   9.855  69.447  1.00  0.00    -0.263 A  
HETATM    4  F   UNL     1     -11.515   6.587  66.733  1.00  0.00    -0.446 F  
HETATM    5  F   UNL     1      -9.635   5.708  67.373  1.00  0.00    -0.113 F  
HETATM    6  C   UNL     1     -10.281   9.507  70.587  1.00  0.00    -0.364 A  
HETATM    7  C   UNL     1      -9.614   8.287  70.668  1.00  0.00    -0.190 A  
HETATM    8  F   UNL     1      -9.630   7.452  66.075  1.00  0.00    -0.183 F  
HETATM    9  C   UNL     1      -9.037   7.839  71.992  1.00  0.00    -0.137 C  
HETATM   10  C   UNL     1      -9.601   7.444  69.546  1.00  0.00    -0.155 A  
HETATM   11  C   UNL     1     -10.258   6.899  67.149  1.00  0.00    -0.240 C  
HETATM   12  C   UNL     1     -10.256   7.811  68.355  1.00  0.00    -0.230 A  
HETATM   13  F   UNL     1      -9.040   8.817  72.940  1.00  0.00    -0.296 F  
HETATM   14  F   UNL     1      -9.742   6.805  72.522  1.00  0.00    -0.154 F  
HETATM   15  C   UNL     1     -10.970   9.020  68.319  1.00  0.00     0.025 A  
HETATM   16  F   UNL     1      -7.751   7.414  71.891  1.00  0.00    -0.081 F  
ENDBRANCH   2   3
BRANCH   2  17
HETATM   17  O   UNL     1     -11.308  12.256  69.648  1.00  0.00    -0.225 OA 
BRANCH  17  18
HETATM   18  C   UNL     1     -11.382  13.042  68.434  1.00  0.00    -0.291 C  
HETATM   19  N   UNL     1      -9.395  14.520  68.926  1.00  0.00    -0.176 NA 
HETATM   20  C   UNL     1      -9.964  13.567  67.936  1.00  0.00    -0.245 C  
HETATM   21  O   UNL     1     -12.277  14.158  68.579  1.00  0.00    -0.311 OA 
HETATM   22  C   UNL     1     -11.768  15.079  69.550  1.00  0.00    -0.322 C  
HETATM   23  C   UNL     1     -10.379  15.602  69.164  1.00  0.00    -0.241 C  
BRANCH  19  24
HETATM   24  C   UNL     1      -8.042  15.049  68.681  1.00  0.00    -0.153 C  
BRANCH  24  25
HETATM   25  C   UNL     1      -7.995  16.514  68.286  1.00  0.00    -0.177 C  
HETATM   26  O   UNL     1     -10.381  18.603  65.690  1.00  0.00    -0.572 OA 
HETATM   27  O   UNL     1     -10.154  20.216  67.530  1.00  0.00    -0.401 OA 
HETATM   28  N   UNL     1      -7.523  17.445  69.077  1.00  0.00    -0.225 NA 
HETATM   29  O   UNL     1      -8.613  20.439  65.469  1.00  0.00     0.124 OA 
HETATM   30  C   UNL     1      -7.779  18.632  68.427  1.00  0.00    -0.306 C  
HETATM   31  O   UNL     1      -7.713  19.748  68.925  1.00  0.00    -0.315 OA 
HETATM   32  P   UNL     1      -9.254  19.493  66.422  1.00  0.00    -0.350 P  
HETATM   33  N   UNL     1      -8.296  18.362  67.187  1.00  0.00    -0.242 N  
HETATM   34  N   UNL     1      -8.450  16.964  67.069  1.00  0.00    -0.193 NA 
ENDBRANCH  24  25
ENDBRANCH  19  24
BRANCH  20  35
HETATM   35  C   UNL     1      -9.087  12.378  67.552  1.00  0.00    -0.185 A  
HETATM   36  C   UNL     1      -8.609  10.532  66.027  1.00  0.00    -0.166 A  
HETATM   37  F   UNL     1      -7.076   8.864  66.685  1.00  0.00    -0.078 F  
HETATM   38  C   UNL     1      -9.301  11.709  66.328  1.00  0.00    -0.228 A  
HETATM   39  C   UNL     1      -7.465  10.665  68.154  1.00  0.00    -0.090 A  
HETATM   40  C   UNL     1      -8.145  11.850  68.449  1.00  0.00    -0.155 A  
HETATM   41  C   UNL     1      -7.708  10.013  66.953  1.00  0.00    -0.096 A  
ENDBRANCH  20  35
ENDBRANCH  17  18
ENDBRANCH   2  17
TORSDOF 6
ENDMDL
MODEL       40
REMARK 921   NORMALIZED FREE ENERGY PREDICTED BY IDOCK:   -8.18 KCAL/MOL
REMARK 922        TOTAL FREE ENERGY PREDICTED BY IDOCK:  -11.96 KCAL/MOL
REMARK 923 INTER-LIGAND FREE ENERGY PREDICTED BY IDOCK:   -8.55 KCAL/MOL
REMARK 924 INTRA-LIGAND FREE ENERGY PREDICTED BY IDOCK:   -3.41 KCAL/MOL
REMARK 927      BINDING AFFINITY PREDICTED BY RF-SCORE:    0.00 PKD
ROOT
HETATM    1  C   UNL     1     -10.805   5.238  66.358  1.00  0.00    -0.198 C  
HETATM    2  C   UNL     1      -9.842   5.832  67.378  1.00  0.00    -0.138 C  
ENDROOT
BRANCH   2   3
HETATM    3  C   UNL     1     -10.339   5.691  68.802  1.00  0.00    -0.288 A  
HETATM    4  F   UNL     1     -12.475   8.761  70.875  1.00  0.00    -0.278 F  
HETATM    5  F   UNL     1     -12.678   7.499  72.631  1.00  0.00    -0.084 F  
HETATM    6  C   UNL     1      -9.616   4.855  69.662  1.00  0.00    -0.243 A  
HETATM    7  C   UNL     1      -9.792   4.919  71.043  1.00  0.00    -0.266 A  
HETATM    8  F   UNL     1     -13.905   7.120  70.877  1.00  0.00    -0.405 F  
HETATM    9  C   UNL     1      -8.831   4.187  71.952  1.00  0.00    -0.114 C  
HETATM   10  C   UNL     1     -10.785   5.765  71.562  1.00  0.00    -0.319 A  
HETATM   11  C   UNL     1     -12.650   7.470  71.269  1.00  0.00    -0.314 C  
HETATM   12  C   UNL     1     -11.589   6.547  70.712  1.00  0.00    -0.437 A  
HETATM   13  F   UNL     1      -8.004   3.334  71.286  1.00  0.00    -0.054 F  
HETATM   14  F   UNL     1      -8.018   5.047  72.620  1.00  0.00    -0.092 F  
HETATM   15  C   UNL     1     -11.352   6.508  69.329  1.00  0.00    -0.359 A  
HETATM   16  F   UNL     1      -9.461   3.443  72.897  1.00  0.00    -0.112 F  
ENDBRANCH   2   3
BRANCH   2  17
HETATM   17  O   UNL     1      -9.568   7.211  67.073  1.00  0.00    -0.144 OA 
BRANCH  17  18
HETATM   18  C   UNL     1      -8.158   7.505  66.920  1.00  0.00    -0.116 C  
HETATM   19  N   UNL     1      -8.394  10.018  66.861  1.00  0.00    -0.124 NA 
HETATM   20  C   UNL     1      -7.730   8.893  67.571  1.00  0.00    -0.100 C  
HETATM   21  O   UNL     1      -7.761   7.487  65.538  1.00  0.00    -0.091 OA 
HETATM   22  C   UNL     1      -8.410   8.545  64.821  1.00  0.00    -0.153 C  
HETATM   23  C   UNL     1      -8.081   9.919  65.416  1.00  0.00    -0.137 C  
BRANCH  19  24
HETATM   24  C   UNL     1      -8.188  11.383  67.378  1.00  0.00    -0.145 C  
BRANCH  24  25
HETATM   25  C   UNL     1      -9.464  12.163  67.637  1.00  0.00    -0.187 C  
HETATM   26  O   UNL     1     -10.107  15.398  70.069  1.00  0.00    -0.287 OA 
HETATM   27  O   UNL     1     -11.417  16.025  68.086  1.00  0.00    -0.338 OA 
HETATM   28  N   UNL     1     -10.431  12.249  66.758  1.00  0.00    -0.216 NA 
HETATM   29  O   UNL     1     -12.624  14.937  70.095  1.00  0.00    -0.317 OA 
HETATM   30  C   UNL     1     -11.331  13.139  67.301  1.00  0.00    -0.306 C  
HETATM   31  O   UNL     1     -12.253  13.678  66.703  1.00  0.00    -0.415 OA 
HETATM   32  P   UNL     1     -11.405  14.918  69.242  1.00  0.00    -0.336 P  
HETATM   33  N   UNL     1     -10.927  13.469  68.568  1.00  0.00    -0.258 N  
HETATM   34  N   UNL     1      -9.691  12.834  68.815  1.00  0.00    -0.016 NA 
ENDBRANCH  24  25
ENDBRANCH  19  24
BRANCH  20  35
HETATM   35  C   UNL     1      -7.929   8.828  69.083  1.00  0.00    -0.109 A  
HETATM   36  C   UNL     1      -7.304   7.871  71.241  1.00  0.00    -0.068 A  
HETATM   37  F   UNL     1      -8.708   8.221  73.105  1.00  0.00    -0.241 F  
HETATM   38  C   UNL     1      -7.051   8.062  69.879  1.00  0.00    -0.057 A  
HETATM   39  C   UNL     1      -9.309   9.212  71.053  1.00  0.00    -0.333 A  
HETATM   40  C   UNL     1      -9.048   9.416  69.694  1.00  0.00    -0.190 A  
HETATM   41  C   UNL     1      -8.442   8.437  71.811  1.00  0.00    -0.165 A  
ENDBRANCH  20  35
ENDBRANCH  17  18
ENDBRANCH   2  17
TORSDOF 6
ENDMDL
MODEL       41
REMARK 921   NORMALIZED FREE ENERGY PREDICTED BY IDOCK:   -8.13 KCAL/MOL
REMARK 922        TOTAL FREE ENERGY PREDICTED BY IDOCK:  -11.88 KCAL/MOL
REMARK 923 INTER-LIGAND FREE ENERGY PREDICTED BY IDOCK:  -10.66 KCAL/MOL
REMARK 924 INTRA-LIGAND FREE ENERGY PREDICTED BY IDOCK:   -1.22 KCAL/MOL
REMARK 927      BINDING AFFINITY PREDICTED BY RF-SCORE:    0.00 PKD
ROOT
HETATM    1  C   UNL     1     -10.465   7.987  66.817  1.00  0.00    -0.319 C  
HETATM    2  C   UNL     1      -9.566   8.447  67.958  1.00  0.00    -0.149 C  
ENDROOT
BRANCH   2   3
HETATM    3  C   UNL     1      -9.671   7.556  69.178  1.00  0.00    -0.166 A  
HETATM    4  F   UNL     1      -9.862   3.288  68.979  1.00  0.00    -0.215 F  
HETATM    5  F   UNL     1      -9.931   3.143  71.145  1.00  0.00    -0.241 F  
HETATM    6  C   UNL     1     -10.311   8.076  70.310  1.00  0.00    -0.212 A  
HETATM    7  C   UNL     1     -10.744   7.243  71.339  1.00  0.00    -0.247 A  
HETATM    8  F   UNL     1      -8.057   3.616  70.148  1.00  0.00    -0.047 F  
HETATM    9  C   UNL     1     -11.641   7.799  72.422  1.00  0.00    -0.356 C  
HETATM   10  C   UNL     1     -10.438   5.875  71.278  1.00  0.00    -0.289 A  
HETATM   11  C   UNL     1      -9.395   3.864  70.120  1.00  0.00    -0.171 C  
HETATM   12  C   UNL     1      -9.714   5.340  70.196  1.00  0.00    -0.262 A  
HETATM   13  F   UNL     1     -11.747   9.156  72.389  1.00  0.00    -0.400 F  
HETATM   14  F   UNL     1     -12.910   7.324  72.314  1.00  0.00    -0.250 F  
HETATM   15  C   UNL     1      -9.341   6.191  69.143  1.00  0.00    -0.132 A  
HETATM   16  F   UNL     1     -11.217   7.482  73.672  1.00  0.00    -0.360 F  
ENDBRANCH   2   3
BRANCH   2  17
HETATM   17  O   UNL     1      -9.847   9.813  68.305  1.00  0.00    -0.144 OA 
BRANCH  17  18
HETATM   18  C   UNL     1     -10.670  10.504  67.333  1.00  0.00    -0.281 C  
HETATM   19  N   UNL     1      -9.485  12.729  67.484  1.00  0.00    -0.182 NA 
HETATM   20  C   UNL     1      -9.890  11.648  66.547  1.00  0.00    -0.204 C  
HETATM   21  O   UNL     1     -11.848  11.064  67.939  1.00  0.00    -0.600 OA 
HETATM   22  C   UNL     1     -11.486  12.091  68.871  1.00  0.00    -0.301 C  
HETATM   23  C   UNL     1     -10.691  13.215  68.198  1.00  0.00    -0.242 C  
BRANCH  19  24
HETATM   24  C   UNL     1      -8.673  13.839  66.955  1.00  0.00    -0.154 C  
BRANCH  24  25
HETATM   25  C   UNL     1      -9.449  15.110  66.664  1.00  0.00    -0.263 C  
HETATM   26  O   UNL     1      -8.710  18.960  67.861  1.00  0.00    -0.286 OA 
HETATM   27  O   UNL     1      -9.384  19.310  65.523  1.00  0.00    -0.167 OA 
HETATM   28  N   UNL     1     -10.177  15.265  65.586  1.00  0.00    -0.341 NA 
HETATM   29  O   UNL     1     -11.137  19.621  67.395  1.00  0.00    -0.398 OA 
HETATM   30  C   UNL     1     -10.596  16.576  65.621  1.00  0.00    -0.304 C  
HETATM   31  O   UNL     1     -11.097  17.190  64.689  1.00  0.00    -1.036 OA 
HETATM   32  P   UNL     1      -9.999  18.794  66.908  1.00  0.00    -0.400 P  
HETATM   33  N   UNL     1     -10.202  17.142  66.804  1.00  0.00    -0.304 N  
HETATM   34  N   UNL     1      -9.438  16.191  67.514  1.00  0.00    -0.222 NA 
ENDBRANCH  24  25
ENDBRANCH  19  24
BRANCH  20  35
HETATM   35  C   UNL     1      -8.778  11.022  65.709  1.00  0.00    -0.179 A  
HETATM   36  C   UNL     1      -8.104   9.745  63.739  1.00  0.00    -0.149 A  
HETATM   37  F   UNL     1      -5.910   8.883  63.622  1.00  0.00    -0.072 F  
HETATM   38  C   UNL     1      -9.077  10.452  64.452  1.00  0.00    -0.267 A  
HETATM   39  C   UNL     1      -6.508  10.165  65.508  1.00  0.00    -0.107 A  
HETATM   40  C   UNL     1      -7.476  10.885  66.215  1.00  0.00    -0.129 A  
HETATM   41  C   UNL     1      -6.831   9.596  64.284  1.00  0.00    -0.112 A  
ENDBRANCH  20  35
ENDBRANCH  17  18
ENDBRANCH   2  17
TORSDOF 6
ENDMDL
MODEL       42
REMARK 921   NORMALIZED FREE ENERGY PREDICTED BY IDOCK:   -8.09 KCAL/MOL
REMARK 922        TOTAL FREE ENERGY PREDICTED BY IDOCK:  -11.83 KCAL/MOL
REMARK 923 INTER-LIGAND FREE ENERGY PREDICTED BY IDOCK:  -10.21 KCAL/MOL
REMARK 924 INTRA-LIGAND FREE ENERGY PREDICTED BY IDOCK:   -1.62 KCAL/MOL
REMARK 927      BINDING AFFINITY PREDICTED BY RF-SCORE:    0.00 PKD
ROOT
HETATM    1  C   UNL     1      -8.767   7.420  66.746  1.00  0.00    -0.136 C  
HETATM    2  C   UNL     1      -9.007   8.230  68.013  1.00  0.00    -0.138 C  
ENDROOT
BRANCH   2   3
HETATM    3  C   UNL     1      -9.487   7.376  69.169  1.00  0.00    -0.149 A  
HETATM    4  F   UNL     1      -9.370   8.645  73.251  1.00  0.00    -0.262 F  
HETATM    5  F   UNL     1     -10.278   6.783  73.905  1.00  0.00    -0.252 F  
HETATM    6  C   UNL     1      -9.400   5.985  69.029  1.00  0.00    -0.134 A  
HETATM    7  C   UNL     1      -9.499   5.144  70.135  1.00  0.00    -0.229 A  
HETATM    8  F   UNL     1     -11.495   8.301  72.934  1.00  0.00    -0.443 F  
HETATM    9  C   UNL     1      -9.159   3.678  69.989  1.00  0.00    -0.127 C  
HETATM   10  C   UNL     1      -9.792   5.702  71.389  1.00  0.00    -0.221 A  
HETATM   11  C   UNL     1     -10.277   7.696  72.893  1.00  0.00    -0.298 C  
HETATM   12  C   UNL     1      -9.976   7.089  71.541  1.00  0.00    -0.187 A  
HETATM   13  F   UNL     1      -9.004   3.287  68.694  1.00  0.00    -0.117 F  
HETATM   14  F   UNL     1      -7.992   3.369  70.613  1.00  0.00    -0.051 F  
HETATM   15  C   UNL     1      -9.813   7.921  70.421  1.00  0.00    -0.183 A  
HETATM   16  F   UNL     1     -10.105   2.861  70.520  1.00  0.00    -0.125 F  
ENDBRANCH   2   3
BRANCH   2  17
HETATM   17  O   UNL     1      -9.930   9.303  67.761  1.00  0.00    -0.170 OA 
BRANCH  17  18
HETATM   18  C   UNL     1      -9.377  10.619  68.012  1.00  0.00    -0.147 C  
HETATM   19  N   UNL     1     -11.049  11.902  66.621  1.00  0.00    -0.295 NA 
HETATM   20  C   UNL     1     -10.469  11.776  67.985  1.00  0.00    -0.199 C  
HETATM   21  O   UNL     1      -8.326  10.937  67.083  1.00  0.00    -0.121 OA 
HETATM   22  C   UNL     1      -8.851  11.036  65.754  1.00  0.00    -0.191 C  
HETATM   23  C   UNL     1      -9.945  12.105  65.653  1.00  0.00    -0.249 C  
BRANCH  19  24
HETATM   24  C   UNL     1     -12.144  12.867  66.419  1.00  0.00    -0.329 C  
BRANCH  24  25
HETATM   25  C   UNL     1     -11.694  14.295  66.169  1.00  0.00    -0.390 C  
HETATM   26  O   UNL     1      -8.833  16.513  68.091  1.00  0.00    -0.194 OA 
HETATM   27  O   UNL     1      -8.413  17.124  65.747  1.00  0.00    -0.522 OA 
HETATM   28  N   UNL     1     -11.782  14.869  64.995  1.00  0.00    -0.353 NA 
HETATM   29  O   UNL     1      -9.860  18.686  67.211  1.00  0.00    -0.300 OA 
HETATM   30  C   UNL     1     -11.154  16.086  65.142  1.00  0.00    -0.283 C  
HETATM   31  O   UNL     1     -10.809  16.827  64.232  1.00  0.00    -0.668 OA 
HETATM   32  P   UNL     1      -9.551  17.272  66.863  1.00  0.00    -0.292 P  
HETATM   33  N   UNL     1     -10.812  16.258  66.458  1.00  0.00    -0.180 N  
HETATM   34  N   UNL     1     -11.158  15.084  67.160  1.00  0.00    -0.327 NA 
ENDBRANCH  24  25
ENDBRANCH  19  24
BRANCH  20  35
HETATM   35  C   UNL     1     -11.458  11.569  69.130  1.00  0.00    -0.362 A  
HETATM   36  C   UNL     1     -12.487  12.394  71.185  1.00  0.00    -0.323 A  
HETATM   37  F   UNL     1     -13.742  10.906  72.520  1.00  0.00    -0.340 F  
HETATM   38  C   UNL     1     -11.702  12.612  70.049  1.00  0.00    -0.289 A  
HETATM   39  C   UNL     1     -12.816  10.094  70.511  1.00  0.00    -0.248 A  
HETATM   40  C   UNL     1     -12.043  10.315  69.367  1.00  0.00     0.023 A  
HETATM   41  C   UNL     1     -13.024  11.129  71.411  1.00  0.00    -0.403 A  
ENDBRANCH  20  35
ENDBRANCH  17  18
ENDBRANCH   2  17
TORSDOF 6
ENDMDL
MODEL       43
REMARK 921   NORMALIZED FREE ENERGY PREDICTED BY IDOCK:   -8.08 KCAL/MOL
REMARK 922        TOTAL FREE ENERGY PREDICTED BY IDOCK:  -11.82 KCAL/MOL
REMARK 923 INTER-LIGAND FREE ENERGY PREDICTED BY IDOCK:  -10.68 KCAL/MOL
REMARK 924 INTRA-LIGAND FREE ENERGY PREDICTED BY IDOCK:   -1.14 KCAL/MOL
REMARK 927      BINDING AFFINITY PREDICTED BY RF-SCORE:    0.00 PKD
ROOT
HETATM    1  C   UNL     1     -10.629   7.767  66.969  1.00  0.00    -0.396 C  
HETATM    2  C   UNL     1      -9.806   8.150  68.192  1.00  0.00    -0.168 C  
ENDROOT
BRANCH   2   3
HETATM    3  C   UNL     1     -10.118   7.288  69.398  1.00  0.00    -0.183 A  
HETATM    4  F   UNL     1      -9.747   8.648  73.435  1.00  0.00    -0.168 F  
HETATM    5  F   UNL     1     -10.451   6.738  74.193  1.00  0.00    -0.349 F  
HETATM    6  C   UNL     1      -9.938   5.904  69.272  1.00  0.00    -0.224 A  
HETATM    7  C   UNL     1      -9.877   5.082  70.394  1.00  0.00    -0.301 A  
HETATM    8  F   UNL     1     -11.859   8.140  73.311  1.00  0.00    -0.328 F  
HETATM    9  C   UNL     1      -9.441   3.642  70.241  1.00  0.00    -0.187 C  
HETATM   10  C   UNL     1     -10.103   5.643  71.660  1.00  0.00    -0.245 A  
HETATM   11  C   UNL     1     -10.607   7.627  73.172  1.00  0.00    -0.379 C  
HETATM   12  C   UNL     1     -10.378   7.015  71.807  1.00  0.00    -0.216 A  
HETATM   13  F   UNL     1      -9.368   3.236  68.942  1.00  0.00    -0.180 F  
HETATM   14  F   UNL     1      -8.204   3.434  70.764  1.00  0.00    -0.055 F  
HETATM   15  C   UNL     1     -10.376   7.833  70.666  1.00  0.00    -0.202 A  
HETATM   16  F   UNL     1     -10.273   2.769  70.864  1.00  0.00    -0.084 F  
ENDBRANCH   2   3
BRANCH   2  17
HETATM   17  O   UNL     1      -9.984   9.541  68.507  1.00  0.00    -0.158 OA 
BRANCH  17  18
HETATM   18  C   UNL     1     -10.813  10.253  67.556  1.00  0.00    -0.298 C  
HETATM   19  N   UNL     1      -9.532  12.429  67.631  1.00  0.00    -0.185 NA 
HETATM   20  C   UNL     1     -10.016  11.353  66.726  1.00  0.00    -0.208 C  
HETATM   21  O   UNL     1     -11.943  10.870  68.197  1.00  0.00    -0.581 OA 
HETATM   22  C   UNL     1     -11.505  11.893  69.099  1.00  0.00    -0.296 C  
HETATM   23  C   UNL     1     -10.689  12.974  68.381  1.00  0.00    -0.256 C  
BRANCH  19  24
HETATM   24  C   UNL     1      -8.695  13.496  67.056  1.00  0.00    -0.187 C  
BRANCH  24  25
HETATM   25  C   UNL     1      -9.439  14.775  66.722  1.00  0.00    -0.254 C  
HETATM   26  O   UNL     1      -8.865  18.583  68.127  1.00  0.00    -0.290 OA 
HETATM   27  O   UNL     1      -9.268  19.012  65.741  1.00  0.00    -0.385 OA 
HETATM   28  N   UNL     1     -10.040  14.966  65.573  1.00  0.00    -0.353 NA 
HETATM   29  O   UNL     1     -11.226  19.255  67.408  1.00  0.00    -0.344 OA 
HETATM   30  C   UNL     1     -10.468  16.274  65.604  1.00  0.00    -0.368 C  
HETATM   31  O   UNL     1     -10.862  16.920  64.643  1.00  0.00    -0.864 OA 
HETATM   32  P   UNL     1     -10.036  18.448  67.027  1.00  0.00    -0.386 P  
HETATM   33  N   UNL     1     -10.215  16.800  66.844  1.00  0.00    -0.285 N  
HETATM   34  N   UNL     1      -9.533  15.826  67.604  1.00  0.00    -0.217 NA 
ENDBRANCH  24  25
ENDBRANCH  19  24
BRANCH  20  35
HETATM   35  C   UNL     1      -8.963  10.669  65.856  1.00  0.00    -0.192 A  
HETATM   36  C   UNL     1      -8.398   9.451  63.817  1.00  0.00    -0.183 A  
HETATM   37  F   UNL     1      -6.300   8.383  63.659  1.00  0.00    -0.070 F  
HETATM   38  C   UNL     1      -9.303  10.208  64.566  1.00  0.00    -0.345 A  
HETATM   39  C   UNL     1      -6.787   9.603  65.615  1.00  0.00    -0.091 A  
HETATM   40  C   UNL     1      -7.686  10.373  66.359  1.00  0.00    -0.125 A  
HETATM   41  C   UNL     1      -7.152   9.143  64.358  1.00  0.00    -0.091 A  
ENDBRANCH  20  35
ENDBRANCH  17  18
ENDBRANCH   2  17
TORSDOF 6
ENDMDL
MODEL       44
REMARK 921   NORMALIZED FREE ENERGY PREDICTED BY IDOCK:   -8.02 KCAL/MOL
REMARK 922        TOTAL FREE ENERGY PREDICTED BY IDOCK:  -11.74 KCAL/MOL
REMARK 923 INTER-LIGAND FREE ENERGY PREDICTED BY IDOCK:   -9.76 KCAL/MOL
REMARK 924 INTRA-LIGAND FREE ENERGY PREDICTED BY IDOCK:   -1.98 KCAL/MOL
REMARK 927      BINDING AFFINITY PREDICTED BY RF-SCORE:    0.00 PKD
ROOT
HETATM    1  C   UNL     1      -6.134   7.264  68.813  1.00  0.00    -0.027 C  
HETATM    2  C   UNL     1      -7.550   7.286  69.375  1.00  0.00    -0.097 C  
ENDROOT
BRANCH   2   3
HETATM    3  C   UNL     1      -8.332   6.033  69.036  1.00  0.00    -0.111 A  
HETATM    4  F   UNL     1      -8.167   2.446  71.357  1.00  0.00    -0.051 F  
HETATM    5  F   UNL     1      -9.603   1.476  70.046  1.00  0.00    -0.163 F  
HETATM    6  C   UNL     1      -8.625   5.796  67.687  1.00  0.00    -0.101 A  
HETATM    7  C   UNL     1      -9.035   4.538  67.252  1.00  0.00    -0.125 A  
HETATM    8  F   UNL     1     -10.275   2.975  71.472  1.00  0.00    -0.227 F  
HETATM    9  C   UNL     1      -9.107   4.249  65.769  1.00  0.00    -0.135 C  
HETATM   10  C   UNL     1      -9.253   3.528  68.202  1.00  0.00    -0.228 A  
HETATM   11  C   UNL     1      -9.273   2.678  70.599  1.00  0.00    -0.135 C  
HETATM   12  C   UNL     1      -9.054   3.768  69.574  1.00  0.00    -0.200 A  
HETATM   13  F   UNL     1      -8.972   5.362  64.996  1.00  0.00    -0.159 F  
HETATM   14  F   UNL     1      -8.121   3.401  65.375  1.00  0.00    -0.087 F  
HETATM   15  C   UNL     1      -8.584   5.026  69.981  1.00  0.00    -0.111 A  
HETATM   16  F   UNL     1     -10.280   3.672  65.400  1.00  0.00    -0.135 F  
ENDBRANCH   2   3
BRANCH   2  17
HETATM   17  O   UNL     1      -8.254   8.457  68.929  1.00  0.00    -0.112 OA 
BRANCH  17  18
HETATM   18  C   UNL     1      -8.354   9.495  69.934  1.00  0.00    -0.170 C  
HETATM   19  N   UNL     1     -10.599  10.390  69.200  1.00  0.00    -0.213 NA 
HETATM   20  C   UNL     1      -9.854   9.821  70.355  1.00  0.00    -0.209 C  
HETATM   21  O   UNL     1      -7.707  10.707  69.510  1.00  0.00    -0.149 OA 
HETATM   22  C   UNL     1      -8.386  11.263  68.378  1.00  0.00    -0.152 C  
HETATM   23  C   UNL     1      -9.856  11.567  68.689  1.00  0.00    -0.177 C  
BRANCH  19  24
HETATM   24  C   UNL     1     -12.034  10.675  69.371  1.00  0.00    -0.226 C  
BRANCH  24  25
HETATM   25  C   UNL     1     -12.347  11.777  70.367  1.00  0.00    -0.277 C  
HETATM   26  O   UNL     1     -12.350  15.844  69.856  1.00  0.00    -0.290 OA 
HETATM   27  O   UNL     1     -14.373  15.534  71.218  1.00  0.00    -0.536 OA 
HETATM   28  N   UNL     1     -13.146  11.602  71.389  1.00  0.00    -0.328 NA 
HETATM   29  O   UNL     1     -12.167  16.209  72.382  1.00  0.00    -0.469 OA 
HETATM   30  C   UNL     1     -13.280  12.848  71.959  1.00  0.00    -0.448 C  
HETATM   31  O   UNL     1     -14.122  13.168  72.788  1.00  0.00    -0.641 OA 
HETATM   32  P   UNL     1     -12.786  15.357  71.330  1.00  0.00    -0.486 P  
HETATM   33  N   UNL     1     -12.442  13.725  71.322  1.00  0.00    -0.357 N  
HETATM   34  N   UNL     1     -11.812  13.040  70.262  1.00  0.00    -0.273 NA 
ENDBRANCH  24  25
ENDBRANCH  19  24
BRANCH  20  35
HETATM   35  C   UNL     1     -10.472   8.597  71.028  1.00  0.00    -0.276 A  
HETATM   36  C   UNL     1     -10.542   7.059  72.923  1.00  0.00    -0.302 A  
HETATM   37  F   UNL     1     -11.732   5.032  72.716  1.00  0.00    -0.310 F  
HETATM   38  C   UNL     1     -10.102   8.254  72.346  1.00  0.00    -0.383 A  
HETATM   39  C   UNL     1     -11.738   6.522  70.890  1.00  0.00    -0.416 A  
HETATM   40  C   UNL     1     -11.311   7.725  70.318  1.00  0.00    -0.174 A  
HETATM   41  C   UNL     1     -11.345   6.197  72.180  1.00  0.00    -0.299 A  
ENDBRANCH  20  35
ENDBRANCH  17  18
ENDBRANCH   2  17
TORSDOF 6
ENDMDL
MODEL       45
REMARK 921   NORMALIZED FREE ENERGY PREDICTED BY IDOCK:   -8.01 KCAL/MOL
REMARK 922        TOTAL FREE ENERGY PREDICTED BY IDOCK:  -11.72 KCAL/MOL
REMARK 923 INTER-LIGAND FREE ENERGY PREDICTED BY IDOCK:  -10.68 KCAL/MOL
REMARK 924 INTRA-LIGAND FREE ENERGY PREDICTED BY IDOCK:   -1.03 KCAL/MOL
REMARK 927      BINDING AFFINITY PREDICTED BY RF-SCORE:    0.00 PKD
ROOT
HETATM    1  C   UNL     1     -10.859   6.636  66.881  1.00  0.00    -0.415 C  
HETATM    2  C   UNL     1     -10.074   7.781  67.508  1.00  0.00    -0.209 C  
ENDROOT
BRANCH   2   3
HETATM    3  C   UNL     1      -9.770   7.546  68.973  1.00  0.00    -0.162 A  
HETATM    4  F   UNL     1      -6.715   4.892  70.355  1.00  0.00    -0.031 F  
HETATM    5  F   UNL     1      -7.153   5.389  72.424  1.00  0.00    -0.072 F  
HETATM    6  C   UNL     1     -10.823   7.685  69.886  1.00  0.00    -0.241 A  
HETATM    7  C   UNL     1     -10.726   7.176  71.179  1.00  0.00    -0.252 A  
HETATM    8  F   UNL     1      -6.073   6.803  71.174  1.00  0.00    -0.033 F  
HETATM    9  C   UNL     1     -11.957   7.125  72.055  1.00  0.00    -0.295 C  
HETATM   10  C   UNL     1      -9.512   6.608  71.595  1.00  0.00    -0.160 A  
HETATM   11  C   UNL     1      -7.102   5.913  71.167  1.00  0.00    -0.073 C  
HETATM   12  C   UNL     1      -8.407   6.539  70.726  1.00  0.00    -0.130 A  
HETATM   13  F   UNL     1     -13.014   7.813  71.540  1.00  0.00    -0.319 F  
HETATM   14  F   UNL     1     -12.394   5.850  72.231  1.00  0.00    -0.369 F  
HETATM   15  C   UNL     1      -8.550   7.005  69.410  1.00  0.00    -0.134 A  
HETATM   16  F   UNL     1     -11.744   7.632  73.296  1.00  0.00    -0.293 F  
ENDBRANCH   2   3
BRANCH   2  17
HETATM   17  O   UNL     1     -10.768   9.028  67.330  1.00  0.00    -0.269 OA 
BRANCH  17  18
HETATM   18  C   UNL     1      -9.893  10.182  67.295  1.00  0.00    -0.183 C  
HETATM   19  N   UNL     1     -11.430  11.666  65.949  1.00  0.00    -0.294 NA 
HETATM   20  C   UNL     1     -10.678  11.565  67.228  1.00  0.00    -0.244 C  
HETATM   21  O   UNL     1      -8.965  10.110  66.198  1.00  0.00    -0.145 OA 
HETATM   22  C   UNL     1      -9.666  10.175  64.950  1.00  0.00    -0.324 C  
HETATM   23  C   UNL     1     -10.485  11.465  64.825  1.00  0.00    -0.308 C  
BRANCH  19  24
HETATM   24  C   UNL     1     -12.291  12.843  65.742  1.00  0.00    -0.375 C  
BRANCH  24  25
HETATM   25  C   UNL     1     -11.591  14.179  65.911  1.00  0.00    -0.348 C  
HETATM   26  O   UNL     1     -11.229  16.543  69.240  1.00  0.00    -0.296 OA 
HETATM   27  O   UNL     1      -8.969  16.712  68.288  1.00  0.00    -0.202 OA 
HETATM   28  N   UNL     1     -10.574  14.544  65.170  1.00  0.00    -0.383 NA 
HETATM   29  O   UNL     1     -10.683  18.580  67.791  1.00  0.00    -0.410 OA 
HETATM   30  C   UNL     1     -10.142  15.733  65.715  1.00  0.00    -0.371 C  
HETATM   31  O   UNL     1      -9.077  16.284  65.472  1.00  0.00    -0.374 OA 
HETATM   32  P   UNL     1     -10.477  17.113  67.932  1.00  0.00    -0.365 P  
HETATM   33  N   UNL     1     -11.006  16.113  66.707  1.00  0.00    -0.162 N  
HETATM   34  N   UNL     1     -11.977  15.099  66.858  1.00  0.00    -0.018 NA 
ENDBRANCH  24  25
ENDBRANCH  19  24
BRANCH  20  35
HETATM   35  C   UNL     1     -11.485  11.754  68.510  1.00  0.00    -0.353 A  
HETATM   36  C   UNL     1     -12.087  13.150  70.421  1.00  0.00    -0.392 A  
HETATM   37  F   UNL     1     -13.246  12.182  72.234  1.00  0.00    -0.586 F  
HETATM   38  C   UNL     1     -11.477  13.001  69.172  1.00  0.00    -0.353 A  
HETATM   39  C   UNL     1     -12.738  10.821  70.378  1.00  0.00    -0.346 A  
HETATM   40  C   UNL     1     -12.142  10.674  69.122  1.00  0.00    -0.152 A  
HETATM   41  C   UNL     1     -12.699  12.051  71.019  1.00  0.00    -0.241 A  
ENDBRANCH  20  35
ENDBRANCH  17  18
ENDBRANCH   2  17
TORSDOF 6
ENDMDL
MODEL       46
REMARK 921   NORMALIZED FREE ENERGY PREDICTED BY IDOCK:   -8.01 KCAL/MOL
REMARK 922        TOTAL FREE ENERGY PREDICTED BY IDOCK:  -11.72 KCAL/MOL
REMARK 923 INTER-LIGAND FREE ENERGY PREDICTED BY IDOCK:  -10.49 KCAL/MOL
REMARK 924 INTRA-LIGAND FREE ENERGY PREDICTED BY IDOCK:   -1.23 KCAL/MOL
REMARK 927      BINDING AFFINITY PREDICTED BY RF-SCORE:    0.00 PKD
ROOT
HETATM    1  C   UNL     1     -12.546  12.169  71.165  1.00  0.00    -0.360 C  
HETATM    2  C   UNL     1     -12.212  11.733  69.745  1.00  0.00    -0.203 C  
ENDROOT
BRANCH   2   3
HETATM    3  C   UNL     1     -11.830  10.269  69.659  1.00  0.00    -0.181 A  
HETATM    4  F   UNL     1     -11.438   7.725  73.073  1.00  0.00    -0.410 F  
HETATM    5  F   UNL     1     -10.956   6.025  71.810  1.00  0.00    -0.271 F  
HETATM    6  C   UNL     1     -11.019   9.872  68.588  1.00  0.00    -0.222 A  
HETATM    7  C   UNL     1     -10.354   8.647  68.606  1.00  0.00    -0.219 A  
HETATM    8  F   UNL     1     -13.007   6.735  71.936  1.00  0.00    -0.378 F  
HETATM    9  C   UNL     1      -9.302   8.355  67.560  1.00  0.00    -0.147 C  
HETATM   10  C   UNL     1     -10.588   7.763  69.670  1.00  0.00    -0.242 A  
HETATM   11  C   UNL     1     -11.715   7.156  71.869  1.00  0.00    -0.292 C  
HETATM   12  C   UNL     1     -11.471   8.100  70.713  1.00  0.00    -0.272 A  
HETATM   13  F   UNL     1      -9.280   9.266  66.548  1.00  0.00    -0.153 F  
HETATM   14  F   UNL     1      -8.051   8.361  68.091  1.00  0.00    -0.112 F  
HETATM   15  C   UNL     1     -12.083   9.364  70.701  1.00  0.00    -0.191 A  
HETATM   16  F   UNL     1      -9.464   7.142  66.973  1.00  0.00    -0.141 F  
ENDBRANCH   2   3
BRANCH   2  17
HETATM   17  O   UNL     1     -11.175  12.559  69.190  1.00  0.00    -0.252 OA 
BRANCH  17  18
HETATM   18  C   UNL     1     -11.634  13.867  68.769  1.00  0.00    -0.335 C  
HETATM   19  N   UNL     1      -9.364  14.778  68.140  1.00  0.00    -0.192 NA 
HETATM   20  C   UNL     1     -10.733  14.511  67.625  1.00  0.00    -0.254 C  
HETATM   21  O   UNL     1     -11.719  14.781  69.876  1.00  0.00    -0.272 OA 
HETATM   22  C   UNL     1     -10.415  15.034  70.412  1.00  0.00     0.022 C  
HETATM   23  C   UNL     1      -9.469  15.619  69.357  1.00  0.00    -0.279 C  
BRANCH  19  24
HETATM   24  C   UNL     1      -8.357  15.296  67.197  1.00  0.00    -0.216 C  
BRANCH  24  25
HETATM   25  C   UNL     1      -8.387  16.801  67.000  1.00  0.00    -0.191 C  
HETATM   26  O   UNL     1      -5.320  19.398  66.196  1.00  0.00    -0.152 OA 
HETATM   27  O   UNL     1      -7.078  20.264  64.712  1.00  0.00    -0.243 OA 
HETATM   28  N   UNL     1      -9.444  17.436  66.557  1.00  0.00    -0.265 NA 
HETATM   29  O   UNL     1      -6.719  21.378  67.015  1.00  0.00    -0.515 OA 
HETATM   30  C   UNL     1      -9.034  18.740  66.387  1.00  0.00    -0.292 C  
HETATM   31  O   UNL     1      -9.642  19.605  65.771  1.00  0.00    -0.377 OA 
HETATM   32  P   UNL     1      -6.775  20.089  66.274  1.00  0.00    -0.245 P  
HETATM   33  N   UNL     1      -7.756  18.874  66.861  1.00  0.00    -0.234 N  
HETATM   34  N   UNL     1      -7.303  17.602  67.273  1.00  0.00    -0.179 NA 
ENDBRANCH  24  25
ENDBRANCH  19  24
BRANCH  20  35
HETATM   35  C   UNL     1     -10.832  13.662  66.360  1.00  0.00    -0.290 A  
HETATM   36  C   UNL     1      -9.866  11.965  64.894  1.00  0.00    -0.224 A  
HETATM   37  F   UNL     1     -10.761  11.669  62.731  1.00  0.00    -0.218 F  
HETATM   38  C   UNL     1      -9.879  12.651  66.112  1.00  0.00    -0.265 A  
HETATM   39  C   UNL     1     -11.759  13.270  64.143  1.00  0.00    -0.470 A  
HETATM   40  C   UNL     1     -11.782  13.946  65.367  1.00  0.00    -0.347 A  
HETATM   41  C   UNL     1     -10.799  12.295  63.914  1.00  0.00    -0.412 A  
ENDBRANCH  20  35
ENDBRANCH  17  18
ENDBRANCH   2  17
TORSDOF 6
ENDMDL
MODEL       47
REMARK 921   NORMALIZED FREE ENERGY PREDICTED BY IDOCK:   -7.99 KCAL/MOL
REMARK 922        TOTAL FREE ENERGY PREDICTED BY IDOCK:  -11.69 KCAL/MOL
REMARK 923 INTER-LIGAND FREE ENERGY PREDICTED BY IDOCK:   -9.44 KCAL/MOL
REMARK 924 INTRA-LIGAND FREE ENERGY PREDICTED BY IDOCK:   -2.25 KCAL/MOL
REMARK 927      BINDING AFFINITY PREDICTED BY RF-SCORE:    0.00 PKD
ROOT
HETATM    1  C   UNL     1      -9.245   8.920  65.648  1.00  0.00    -0.268 C  
HETATM    2  C   UNL     1     -10.398   8.849  66.640  1.00  0.00    -0.223 C  
ENDROOT
BRANCH   2   3
HETATM    3  C   UNL     1     -10.735  10.198  67.240  1.00  0.00    -0.316 A  
HETATM    4  F   UNL     1     -13.399  10.715  70.545  1.00  0.00    -0.349 F  
HETATM    5  F   UNL     1     -13.074  12.862  70.533  1.00  0.00    -0.100 F  
HETATM    6  C   UNL     1     -10.695  11.314  66.395  1.00  0.00    -0.320 A  
HETATM    7  C   UNL     1     -11.298  12.515  66.760  1.00  0.00    -0.390 A  
HETATM    8  F   UNL     1     -11.539  11.537  71.318  1.00  0.00    -0.007 F  
HETATM    9  C   UNL     1     -11.450  13.616  65.734  1.00  0.00    -0.315 C  
HETATM   10  C   UNL     1     -11.862  12.630  68.040  1.00  0.00    -0.376 A  
HETATM   11  C   UNL     1     -12.454  11.667  70.319  1.00  0.00    -0.182 C  
HETATM   12  C   UNL     1     -11.834  11.552  68.945  1.00  0.00    -0.406 A  
HETATM   13  F   UNL     1     -10.755  13.382  64.586  1.00  0.00    -0.321 F  
HETATM   14  F   UNL     1     -12.746  13.774  65.358  1.00  0.00    -0.453 F  
HETATM   15  C   UNL     1     -11.273  10.334  68.530  1.00  0.00    -0.271 A  
HETATM   16  F   UNL     1     -11.033  14.824  66.190  1.00  0.00    -0.307 F  
ENDBRANCH   2   3
BRANCH   2  17
HETATM   17  O   UNL     1     -10.118   7.891  67.675  1.00  0.00    -0.175 OA 
BRANCH  17  18
HETATM   18  C   UNL     1     -11.005   6.746  67.666  1.00  0.00    -0.270 C  
HETATM   19  N   UNL     1      -9.573   5.262  69.123  1.00  0.00    -0.134 NA 
HETATM   20  C   UNL     1     -10.921   5.875  68.995  1.00  0.00    -0.289 C  
HETATM   21  O   UNL     1     -10.765   5.900  66.528  1.00  0.00    -0.260 OA 
HETATM   22  C   UNL     1      -9.459   5.318  66.609  1.00  0.00    -0.144 C  
HETATM   23  C   UNL     1      -9.282   4.493  67.889  1.00  0.00    -0.131 C  
BRANCH  19  24
HETATM   24  C   UNL     1      -9.274   4.486  70.339  1.00  0.00    -0.128 C  
BRANCH  24  25
HETATM   25  C   UNL     1      -8.374   5.191  71.337  1.00  0.00    -0.119 C  
HETATM   26  O   UNL     1      -7.208   9.118  71.491  1.00  0.00    -0.277 OA 
HETATM   27  O   UNL     1      -7.648   8.658  73.865  1.00  0.00    -0.387 OA 
HETATM   28  N   UNL     1      -8.235   4.787  72.575  1.00  0.00    -0.113 NA 
HETATM   29  O   UNL     1      -5.222   8.518  72.988  1.00  0.00    -0.043 OA 
HETATM   30  C   UNL     1      -7.462   5.750  73.183  1.00  0.00    -0.095 C  
HETATM   31  O   UNL     1      -7.297   5.878  74.388  1.00  0.00    -0.088 OA 
HETATM   32  P   UNL     1      -6.648   8.208  72.699  1.00  0.00    -0.089 P  
HETATM   33  N   UNL     1      -7.050   6.656  72.240  1.00  0.00    -0.072 N  
HETATM   34  N   UNL     1      -7.641   6.308  71.007  1.00  0.00    -0.088 NA 
ENDBRANCH  24  25
ENDBRANCH  19  24
BRANCH  20  35
HETATM   35  C   UNL     1     -11.407   6.706  70.181  1.00  0.00    -0.440 A  
HETATM   36  C   UNL     1     -13.251   7.488  71.578  1.00  0.00    -0.404 A  
HETATM   37  F   UNL     1     -12.890   9.290  73.057  1.00  0.00    -0.329 F  
HETATM   38  C   UNL     1     -12.754   6.627  70.594  1.00  0.00     0.211 A  
HETATM   39  C   UNL     1     -11.072   8.520  71.770  1.00  0.00    -0.378 A  
HETATM   40  C   UNL     1     -10.570   7.650  70.797  1.00  0.00    -0.224 A  
HETATM   41  C   UNL     1     -12.405   8.438  72.145  1.00  0.00    -0.370 A  
ENDBRANCH  20  35
ENDBRANCH  17  18
ENDBRANCH   2  17
TORSDOF 6
ENDMDL
MODEL       48
REMARK 921   NORMALIZED FREE ENERGY PREDICTED BY IDOCK:   -7.97 KCAL/MOL
REMARK 922        TOTAL FREE ENERGY PREDICTED BY IDOCK:  -11.66 KCAL/MOL
REMARK 923 INTER-LIGAND FREE ENERGY PREDICTED BY IDOCK:   -9.62 KCAL/MOL
REMARK 924 INTRA-LIGAND FREE ENERGY PREDICTED BY IDOCK:   -2.05 KCAL/MOL
REMARK 927      BINDING AFFINITY PREDICTED BY RF-SCORE:    0.00 PKD
ROOT
HETATM    1  C   UNL     1      -6.653  15.144  69.845  1.00  0.00    -0.172 C  
HETATM    2  C   UNL     1      -7.426  14.779  68.584  1.00  0.00    -0.126 C  
ENDROOT
BRANCH   2   3
HETATM    3  C   UNL     1      -8.761  15.489  68.493  1.00  0.00    -0.184 A  
HETATM    4  F   UNL     1      -9.239  19.428  66.899  1.00  0.00    -0.301 F  
HETATM    5  F   UNL     1     -11.386  19.347  67.216  1.00  0.00    -0.542 F  
HETATM    6  C   UNL     1      -9.735  15.166  69.447  1.00  0.00    -0.206 A  
HETATM    7  C   UNL     1     -10.844  15.985  69.647  1.00  0.00    -0.329 A  
HETATM    8  F   UNL     1     -10.490  18.238  65.575  1.00  0.00    -0.355 F  
HETATM    9  C   UNL     1     -11.742  15.745  70.840  1.00  0.00    -0.406 C  
HETATM   10  C   UNL     1     -11.032  17.091  68.805  1.00  0.00    -0.180 A  
HETATM   11  C   UNL     1     -10.308  18.586  66.877  1.00  0.00    -0.397 C  
HETATM   12  C   UNL     1     -10.116  17.385  67.777  1.00  0.00    -0.323 A  
HETATM   13  F   UNL     1     -11.482  14.573  71.484  1.00  0.00    -0.342 F  
HETATM   14  F   UNL     1     -11.605  16.721  71.775  1.00  0.00    -0.474 F  
HETATM   15  C   UNL     1      -8.976  16.579  67.635  1.00  0.00    -0.198 A  
HETATM   16  F   UNL     1     -13.059  15.711  70.511  1.00  0.00    -0.482 F  
ENDBRANCH   2   3
BRANCH   2  17
HETATM   17  O   UNL     1      -7.604  13.355  68.493  1.00  0.00    -0.124 OA 
BRANCH  17  18
HETATM   18  C   UNL     1      -7.300  12.813  67.184  1.00  0.00    -0.015 C  
HETATM   19  N   UNL     1      -8.508  10.617  67.496  1.00  0.00    -0.121 NA 
HETATM   20  C   UNL     1      -8.422  11.827  66.636  1.00  0.00    -0.153 C  
HETATM   21  O   UNL     1      -6.030  12.138  67.173  1.00  0.00    -0.142 OA 
HETATM   22  C   UNL     1      -6.073  10.983  68.019  1.00  0.00    -0.049 C  
HETATM   23  C   UNL     1      -7.164   9.998  67.581  1.00  0.00    -0.088 C  
BRANCH  19  24
HETATM   24  C   UNL     1      -9.555   9.624  67.197  1.00  0.00    -0.166 C  
BRANCH  24  25
HETATM   25  C   UNL     1      -9.040   8.304  66.654  1.00  0.00    -0.166 C  
HETATM   26  O   UNL     1      -9.983   4.472  67.762  1.00  0.00    -0.142 OA 
HETATM   27  O   UNL     1      -9.914   4.256  65.315  1.00  0.00    -0.196 OA 
HETATM   28  N   UNL     1      -8.604   8.164  65.427  1.00  0.00    -0.154 NA 
HETATM   29  O   UNL     1      -7.835   3.584  66.693  1.00  0.00    -0.080 OA 
HETATM   30  C   UNL     1      -8.364   6.816  65.283  1.00  0.00    -0.105 C  
HETATM   31  O   UNL     1      -8.174   6.233  64.224  1.00  0.00    -0.106 OA 
HETATM   32  P   UNL     1      -8.935   4.574  66.541  1.00  0.00    -0.127 P  
HETATM   33  N   UNL     1      -8.548   6.195  66.490  1.00  0.00    -0.122 N  
HETATM   34  N   UNL     1      -8.997   7.160  67.417  1.00  0.00    -0.121 NA 
ENDBRANCH  24  25
ENDBRANCH  19  24
BRANCH  20  35
HETATM   35  C   UNL     1      -9.720  12.603  66.420  1.00  0.00    -0.259 A  
HETATM   36  C   UNL     1     -12.032  13.042  67.069  1.00  0.00    -0.409 A  
HETATM   37  F   UNL     1     -13.417  14.289  65.621  1.00  0.00    -0.474 F  
HETATM   38  C   UNL     1     -10.789  12.458  67.329  1.00  0.00    -0.279 A  
HETATM   39  C   UNL     1     -11.173  13.938  64.993  1.00  0.00    -0.342 A  
HETATM   40  C   UNL     1      -9.924  13.367  65.260  1.00  0.00    -0.195 A  
HETATM   41  C   UNL     1     -12.215  13.765  65.892  1.00  0.00    -0.466 A  
ENDBRANCH  20  35
ENDBRANCH  17  18
ENDBRANCH   2  17
TORSDOF 6
ENDMDL
MODEL       49
REMARK 921   NORMALIZED FREE ENERGY PREDICTED BY IDOCK:   -7.95 KCAL/MOL
REMARK 922        TOTAL FREE ENERGY PREDICTED BY IDOCK:  -11.65 KCAL/MOL
REMARK 923 INTER-LIGAND FREE ENERGY PREDICTED BY IDOCK:   -9.87 KCAL/MOL
REMARK 924 INTRA-LIGAND FREE ENERGY PREDICTED BY IDOCK:   -1.78 KCAL/MOL
REMARK 927      BINDING AFFINITY PREDICTED BY RF-SCORE:    0.00 PKD
ROOT
HETATM    1  C   UNL     1     -13.242  12.207  71.460  1.00  0.00    -0.270 C  
HETATM    2  C   UNL     1     -12.075  11.427  70.869  1.00  0.00    -0.277 C  
ENDROOT
BRANCH   2   3
HETATM    3  C   UNL     1     -11.681  11.920  69.492  1.00  0.00    -0.410 A  
HETATM    4  F   UNL     1      -8.837   9.931  66.994  1.00  0.00    -0.131 F  
HETATM    5  F   UNL     1      -9.123  11.400  65.419  1.00  0.00    -0.206 F  
HETATM    6  C   UNL     1     -11.744  13.299  69.253  1.00  0.00    -0.380 A  
HETATM    7  C   UNL     1     -11.101  13.869  68.157  1.00  0.00    -0.278 A  
HETATM    8  F   UNL     1     -10.639   9.882  65.774  1.00  0.00    -0.257 F  
HETATM    9  C   UNL     1     -10.982  15.374  68.062  1.00  0.00    -0.307 C  
HETATM   10  C   UNL     1     -10.468  13.029  67.229  1.00  0.00    -0.238 A  
HETATM   11  C   UNL     1      -9.775  10.723  66.406  1.00  0.00    -0.199 C  
HETATM   12  C   UNL     1     -10.469  11.631  67.396  1.00  0.00    -0.239 A  
HETATM   13  F   UNL     1     -11.741  16.034  68.980  1.00  0.00    -0.339 F  
HETATM   14  F   UNL     1      -9.705  15.790  68.268  1.00  0.00    -0.196 F  
HETATM   15  C   UNL     1     -11.074  11.086  68.540  1.00  0.00    -0.297 A  
HETATM   16  F   UNL     1     -11.352  15.856  66.848  1.00  0.00    -0.228 F  
ENDBRANCH   2   3
BRANCH   2  17
HETATM   17  O   UNL     1     -12.369  10.020  70.837  1.00  0.00    -0.307 OA 
BRANCH  17  18
HETATM   18  C   UNL     1     -12.451   9.412  72.149  1.00  0.00    -0.323 C  
HETATM   19  N   UNL     1     -12.095   7.032  71.383  1.00  0.00    -0.334 NA 
HETATM   20  C   UNL     1     -11.573   8.091  72.286  1.00  0.00    -0.366 C  
HETATM   21  O   UNL     1     -13.811   9.116  72.511  1.00  0.00    -0.475 OA 
HETATM   22  C   UNL     1     -14.352   8.117  71.637  1.00  0.00    -0.469 C  
HETATM   23  C   UNL     1     -13.533   6.822  71.679  1.00  0.00    -0.097 C  
BRANCH  19  24
HETATM   24  C   UNL     1     -11.357   5.759  71.306  1.00  0.00    -0.084 C  
BRANCH  24  25
HETATM   25  C   UNL     1     -10.643   5.519  69.989  1.00  0.00    -0.314 C  
HETATM   26  O   UNL     1      -8.353   2.336  68.794  1.00  0.00    -0.055 OA 
HETATM   27  O   UNL     1      -9.657   2.776  66.757  1.00  0.00    -0.024 OA 
HETATM   28  N   UNL     1     -11.051   6.038  68.857  1.00  0.00    -0.335 NA 
HETATM   29  O   UNL     1      -7.270   3.746  66.954  1.00  0.00    -0.062 OA 
HETATM   30  C   UNL     1     -10.239   5.482  67.894  1.00  0.00    -0.181 C  
HETATM   31  O   UNL     1     -10.437   5.516  66.687  1.00  0.00    -0.243 OA 
HETATM   32  P   UNL     1      -8.546   3.477  67.672  1.00  0.00    -0.118 P  
HETATM   33  N   UNL     1      -9.271   4.728  68.503  1.00  0.00    -0.117 N  
HETATM   34  N   UNL     1      -9.517   4.736  69.893  1.00  0.00    -0.144 NA 
ENDBRANCH  24  25
ENDBRANCH  19  24
BRANCH  20  35
HETATM   35  C   UNL     1     -10.095   8.446  72.138  1.00  0.00    -0.376 A  
HETATM   36  C   UNL     1      -8.265   9.260  70.741  1.00  0.00    -0.210 A  
HETATM   37  F   UNL     1      -6.041   8.977  71.479  1.00  0.00    -0.049 F  
HETATM   38  C   UNL     1      -9.632   9.063  70.956  1.00  0.00    -0.348 A  
HETATM   39  C   UNL     1      -7.786   8.238  72.881  1.00  0.00    -0.171 A  
HETATM   40  C   UNL     1      -9.154   8.055  73.103  1.00  0.00    -0.341 A  
HETATM   41  C   UNL     1      -7.353   8.829  71.702  1.00  0.00    -0.069 A  
ENDBRANCH  20  35
ENDBRANCH  17  18
ENDBRANCH   2  17
TORSDOF 6
ENDMDL
MODEL       50
REMARK 921   NORMALIZED FREE ENERGY PREDICTED BY IDOCK:   -7.94 KCAL/MOL
REMARK 922        TOTAL FREE ENERGY PREDICTED BY IDOCK:  -11.63 KCAL/MOL
REMARK 923 INTER-LIGAND FREE ENERGY PREDICTED BY IDOCK:  -10.14 KCAL/MOL
REMARK 924 INTRA-LIGAND FREE ENERGY PREDICTED BY IDOCK:   -1.49 KCAL/MOL
REMARK 927      BINDING AFFINITY PREDICTED BY RF-SCORE:    0.00 PKD
ROOT
HETATM    1  C   UNL     1      -6.782  14.424  67.479  1.00  0.00    -0.132 C  
HETATM    2  C   UNL     1      -8.253  14.039  67.388  1.00  0.00    -0.190 C  
ENDROOT
BRANCH   2   3
HETATM    3  C   UNL     1      -9.156  15.011  68.120  1.00  0.00    -0.178 A  
HETATM    4  F   UNL     1     -12.952  13.928  69.764  1.00  0.00    -0.215 F  
HETATM    5  F   UNL     1     -13.248  15.939  70.529  1.00  0.00    -0.446 F  
HETATM    6  C   UNL     1      -9.086  16.362  67.757  1.00  0.00    -0.199 A  
HETATM    7  C   UNL     1     -10.088  17.258  68.124  1.00  0.00    -0.325 A  
HETATM    8  F   UNL     1     -11.859  14.594  71.524  1.00  0.00    -0.351 F  
HETATM    9  C   UNL     1     -10.110  18.642  67.516  1.00  0.00    -0.360 C  
HETATM   10  C   UNL     1     -11.125  16.812  68.957  1.00  0.00    -0.171 A  
HETATM   11  C   UNL     1     -12.294  14.993  70.298  1.00  0.00    -0.342 C  
HETATM   12  C   UNL     1     -11.169  15.481  69.412  1.00  0.00    -0.302 A  
HETATM   13  F   UNL     1      -8.978  18.944  66.821  1.00  0.00    -0.274 F  
HETATM   14  F   UNL     1     -11.135  18.787  66.637  1.00  0.00    -0.338 F  
HETATM   15  C   UNL     1     -10.180  14.583  68.979  1.00  0.00    -0.210 A  
HETATM   16  F   UNL     1     -10.257  19.624  68.443  1.00  0.00    -0.457 F  
ENDBRANCH   2   3
BRANCH   2  17
HETATM   17  O   UNL     1      -8.457  12.700  67.869  1.00  0.00    -0.152 OA 
BRANCH  17  18
HETATM   18  C   UNL     1      -7.857  11.682  67.031  1.00  0.00    -0.164 C  
HETATM   19  N   UNL     1      -9.382   9.796  67.736  1.00  0.00    -0.134 NA 
HETATM   20  C   UNL     1      -8.890  10.565  66.562  1.00  0.00    -0.144 C  
HETATM   21  O   UNL     1      -6.740  11.052  67.681  1.00  0.00    -0.069 OA 
HETATM   22  C   UNL     1      -7.181  10.327  68.835  1.00  0.00    -0.086 C  
HETATM   23  C   UNL     1      -8.215   9.254  68.472  1.00  0.00    -0.114 C  
BRANCH  19  24
HETATM   24  C   UNL     1     -10.416   8.771  67.510  1.00  0.00    -0.271 C  
BRANCH  24  25
HETATM   25  C   UNL     1     -10.474   7.685  68.570  1.00  0.00    -0.174 C  
HETATM   26  O   UNL     1      -7.781   4.718  69.430  1.00  0.00    -0.062 OA 
HETATM   27  O   UNL     1      -8.432   5.439  71.688  1.00  0.00    -0.123 OA 
HETATM   28  N   UNL     1     -11.137   7.826  69.691  1.00  0.00    -0.116 NA 
HETATM   29  O   UNL     1      -9.583   3.372  70.649  1.00  0.00    -0.170 OA 
HETATM   30  C   UNL     1     -10.835   6.703  70.429  1.00  0.00    -0.266 C  
HETATM   31  O   UNL     1     -11.056   6.552  71.623  1.00  0.00    -0.240 OA 
HETATM   32  P   UNL     1      -9.073   4.746  70.395  1.00  0.00    -0.137 P  
HETATM   33  N   UNL     1     -10.086   5.849  69.662  1.00  0.00    -0.184 N  
HETATM   34  N   UNL     1      -9.833   6.478  68.424  1.00  0.00    -0.135 NA 
ENDBRANCH  24  25
ENDBRANCH  19  24
BRANCH  20  35
HETATM   35  C   UNL     1      -9.953  11.198  65.667  1.00  0.00    -0.297 A  
HETATM   36  C   UNL     1     -10.712  11.818  63.431  1.00  0.00    -0.468 A  
HETATM   37  F   UNL     1     -12.528  13.307  63.204  1.00  0.00    -0.569 F  
HETATM   38  C   UNL     1      -9.832  11.120  64.263  1.00  0.00    -0.335 A  
HETATM   39  C   UNL     1     -11.863  12.680  65.376  1.00  0.00    -0.473 A  
HETATM   40  C   UNL     1     -10.992  11.970  66.209  1.00  0.00    -0.340 A  
HETATM   41  C   UNL     1     -11.711  12.605  63.999  1.00  0.00    -0.424 A  
ENDBRANCH  20  35
ENDBRANCH  17  18
ENDBRANCH   2  17
TORSDOF 6
ENDMDL
MODEL       51
REMARK 921   NORMALIZED FREE ENERGY PREDICTED BY IDOCK:   -7.93 KCAL/MOL
REMARK 922        TOTAL FREE ENERGY PREDICTED BY IDOCK:  -11.61 KCAL/MOL
REMARK 923 INTER-LIGAND FREE ENERGY PREDICTED BY IDOCK:   -9.66 KCAL/MOL
REMARK 924 INTRA-LIGAND FREE ENERGY PREDICTED BY IDOCK:   -1.95 KCAL/MOL
REMARK 927      BINDING AFFINITY PREDICTED BY RF-SCORE:    0.00 PKD
ROOT
HETATM    1  C   UNL     1     -10.219  16.802  69.015  1.00  0.00    -0.310 C  
HETATM    2  C   UNL     1     -10.471  15.337  68.682  1.00  0.00    -0.235 C  
ENDROOT
BRANCH   2   3
HETATM    3  C   UNL     1     -11.423  14.672  69.655  1.00  0.00    -0.329 A  
HETATM    4  F   UNL     1     -11.960  15.972  73.694  1.00  0.00    -0.498 F  
HETATM    5  F   UNL     1     -13.456  14.436  74.039  1.00  0.00     0.536 F  
HETATM    6  C   UNL     1     -11.675  13.305  69.486  1.00  0.00    -0.384 A  
HETATM    7  C   UNL     1     -12.256  12.550  70.503  1.00  0.00    -0.382 A  
HETATM    8  F   UNL     1     -13.959  16.197  72.866  1.00  0.00    -0.640 F  
HETATM    9  C   UNL     1     -12.291  11.043  70.385  1.00  0.00    -0.356 C  
HETATM   10  C   UNL     1     -12.683  13.199  71.671  1.00  0.00    -0.320 A  
HETATM   11  C   UNL     1     -12.971  15.289  73.093  1.00  0.00    -0.514 C  
HETATM   12  C   UNL     1     -12.525  14.588  71.829  1.00  0.00    -0.420 A  
HETATM   13  F   UNL     1     -11.937  10.590  69.149  1.00  0.00    -0.316 F  
HETATM   14  F   UNL     1     -11.432  10.452  71.256  1.00  0.00    -0.403 F  
HETATM   15  C   UNL     1     -11.884  15.317  70.814  1.00  0.00    -0.381 A  
HETATM   16  F   UNL     1     -13.518  10.521  70.642  1.00  0.00    -0.370 F  
ENDBRANCH   2   3
BRANCH   2  17
HETATM   17  O   UNL     1      -9.232  14.612  68.613  1.00  0.00    -0.189 OA 
BRANCH  17  18
HETATM   18  C   UNL     1      -8.476  14.863  67.402  1.00  0.00    -0.195 C  
HETATM   19  N   UNL     1      -7.727  12.480  67.033  1.00  0.00    -0.096 NA 
HETATM   20  C   UNL     1      -8.449  13.619  66.409  1.00  0.00     0.519 C  
HETATM   21  O   UNL     1      -7.128  15.267  67.693  1.00  0.00    -0.147 OA 
HETATM   22  C   UNL     1      -6.414  14.196  68.324  1.00  0.00    -0.116 C  
HETATM   23  C   UNL     1      -6.379  12.940  67.445  1.00  0.00    -0.113 C  
BRANCH  19  24
HETATM   24  C   UNL     1      -7.672  11.205  66.297  1.00  0.00    -0.097 C  
BRANCH  24  25
HETATM   25  C   UNL     1      -8.005   9.978  67.127  1.00  0.00    -0.109 C  
HETATM   26  O   UNL     1      -8.101   9.520  71.199  1.00  0.00    -0.308 OA 
HETATM   27  O   UNL     1     -10.109   8.269  70.532  1.00  0.00    -0.192 OA 
HETATM   28  N   UNL     1      -8.795   9.026  66.698  1.00  0.00    -0.129 NA 
HETATM   29  O   UNL     1      -7.912   6.980  70.965  1.00  0.00    -0.099 OA 
HETATM   30  C   UNL     1      -8.953   8.180  67.773  1.00  0.00    -0.132 C  
HETATM   31  O   UNL     1      -9.797   7.299  67.870  1.00  0.00    -0.137 OA 
HETATM   32  P   UNL     1      -8.518   8.202  70.370  1.00  0.00    -0.136 P  
HETATM   33  N   UNL     1      -8.138   8.593  68.794  1.00  0.00    -0.114 N  
HETATM   34  N   UNL     1      -7.498   9.784  68.391  1.00  0.00    -0.082 NA 
ENDBRANCH  24  25
ENDBRANCH  19  24
BRANCH  20  35
HETATM   35  C   UNL     1      -9.864  13.337  65.908  1.00  0.00    -0.241 A  
HETATM   36  C   UNL     1     -11.886  11.970  65.998  1.00  0.00    -0.223 A  
HETATM   37  F   UNL     1     -13.500  12.190  64.291  1.00  0.00    -0.412 F  
HETATM   38  C   UNL     1     -10.649  12.345  66.533  1.00  0.00    -0.261 A  
HETATM   39  C   UNL     1     -11.591  13.570  64.208  1.00  0.00    -0.433 A  
HETATM   40  C   UNL     1     -10.362  13.957  64.751  1.00  0.00    -0.419 A  
HETATM   41  C   UNL     1     -12.337  12.578  64.829  1.00  0.00    -0.474 A  
ENDBRANCH  20  35
ENDBRANCH  17  18
ENDBRANCH   2  17
TORSDOF 6
ENDMDL
MODEL       52
REMARK 921   NORMALIZED FREE ENERGY PREDICTED BY IDOCK:   -7.93 KCAL/MOL
REMARK 922        TOTAL FREE ENERGY PREDICTED BY IDOCK:  -11.61 KCAL/MOL
REMARK 923 INTER-LIGAND FREE ENERGY PREDICTED BY IDOCK:   -9.81 KCAL/MOL
REMARK 924 INTRA-LIGAND FREE ENERGY PREDICTED BY IDOCK:   -1.80 KCAL/MOL
REMARK 927      BINDING AFFINITY PREDICTED BY RF-SCORE:    0.00 PKD
ROOT
HETATM    1  C   UNL     1      -9.308   9.581  70.167  1.00  0.00    -0.286 C  
HETATM    2  C   UNL     1     -10.257   9.683  68.980  1.00  0.00    -0.199 C  
ENDROOT
BRANCH   2   3
HETATM    3  C   UNL     1      -9.797   8.861  67.793  1.00  0.00    -0.208 A  
HETATM    4  F   UNL     1      -9.992   4.592  67.656  1.00  0.00    -0.203 F  
HETATM    5  F   UNL     1      -9.184   4.572  65.640  1.00  0.00    -0.126 F  
HETATM    6  C   UNL     1      -8.768   9.384  67.001  1.00  0.00    -0.135 A  
HETATM    7  C   UNL     1      -8.064   8.576  66.110  1.00  0.00    -0.105 A  
HETATM    8  F   UNL     1     -11.248   5.166  65.975  1.00  0.00    -0.276 F  
HETATM    9  C   UNL     1      -6.809   9.106  65.455  1.00  0.00    -0.073 C  
HETATM   10  C   UNL     1      -8.469   7.244  65.938  1.00  0.00    -0.148 A  
HETATM   11  C   UNL     1      -9.991   5.279  66.482  1.00  0.00    -0.204 C  
HETATM   12  C   UNL     1      -9.561   6.718  66.654  1.00  0.00    -0.211 A  
HETATM   13  F   UNL     1      -6.624  10.442  65.645  1.00  0.00    -0.101 F  
HETATM   14  F   UNL     1      -5.694   8.503  65.946  1.00  0.00    -0.042 F  
HETATM   15  C   UNL     1     -10.215   7.537  67.588  1.00  0.00    -0.275 A  
HETATM   16  F   UNL     1      -6.791   8.909  64.112  1.00  0.00    -0.081 F  
ENDBRANCH   2   3
BRANCH   2  17
HETATM   17  O   UNL     1     -10.448  11.056  68.600  1.00  0.00    -0.175 OA 
BRANCH  17  18
HETATM   18  C   UNL     1     -11.837  11.419  68.407  1.00  0.00    -0.274 C  
HETATM   19  N   UNL     1     -11.460  13.910  68.235  1.00  0.00    -0.291 NA 
HETATM   20  C   UNL     1     -12.027  12.732  67.527  1.00  0.00    -0.281 C  
HETATM   21  O   UNL     1     -12.520  11.586  69.662  1.00  0.00    -0.165 OA 
HETATM   22  C   UNL     1     -11.974  12.699  70.380  1.00  0.00    -0.248 C  
HETATM   23  C   UNL     1     -12.080  14.002  69.578  1.00  0.00    -0.347 C  
BRANCH  19  24
HETATM   24  C   UNL     1     -11.465  15.208  67.536  1.00  0.00    -0.298 C  
BRANCH  24  25
HETATM   25  C   UNL     1     -10.439  16.205  68.043  1.00  0.00    -0.281 C  
HETATM   26  O   UNL     1      -6.345  16.041  67.919  1.00  0.00    -0.116 OA 
HETATM   27  O   UNL     1      -6.745  18.397  67.345  1.00  0.00    -0.194 OA 
HETATM   28  N   UNL     1     -10.686  17.487  68.142  1.00  0.00    -0.368 NA 
HETATM   29  O   UNL     1      -6.172  17.780  69.787  1.00  0.00    -0.243 OA 
HETATM   30  C   UNL     1      -9.485  18.058  68.499  1.00  0.00    -0.319 C  
HETATM   31  O   UNL     1      -9.223  19.253  68.463  1.00  0.00    -0.353 OA 
HETATM   32  P   UNL     1      -6.939  17.389  68.573  1.00  0.00    -0.234 P  
HETATM   33  N   UNL     1      -8.567  17.067  68.729  1.00  0.00    -0.257 N  
HETATM   34  N   UNL     1      -9.175  15.827  68.434  1.00  0.00    -0.188 NA 
ENDBRANCH  24  25
ENDBRANCH  19  24
BRANCH  20  35
HETATM   35  C   UNL     1     -11.515  12.475  66.112  1.00  0.00    -0.426 A  
HETATM   36  C   UNL     1     -11.989  12.118  63.743  1.00  0.00    -0.607 A  
HETATM   37  F   UNL     1     -10.277  11.305  62.337  1.00  0.00    -0.045 F  
HETATM   38  C   UNL     1     -12.411  12.496  65.022  1.00  0.00    -0.522 A  
HETATM   39  C   UNL     1      -9.767  11.698  64.605  1.00  0.00    -0.210 A  
HETATM   40  C   UNL     1     -10.184  12.091  65.880  1.00  0.00    -0.263 A  
HETATM   41  C   UNL     1     -10.671  11.707  63.552  1.00  0.00    -0.428 A  
ENDBRANCH  20  35
ENDBRANCH  17  18
ENDBRANCH   2  17
TORSDOF 6
ENDMDL
MODEL       53
REMARK 921   NORMALIZED FREE ENERGY PREDICTED BY IDOCK:   -7.87 KCAL/MOL
REMARK 922        TOTAL FREE ENERGY PREDICTED BY IDOCK:  -11.53 KCAL/MOL
REMARK 923 INTER-LIGAND FREE ENERGY PREDICTED BY IDOCK:  -10.79 KCAL/MOL
REMARK 924 INTRA-LIGAND FREE ENERGY PREDICTED BY IDOCK:   -0.74 KCAL/MOL
REMARK 927      BINDING AFFINITY PREDICTED BY RF-SCORE:    0.00 PKD
ROOT
HETATM    1  C   UNL     1     -10.247  14.452  65.124  1.00  0.00    -0.420 C  
HETATM    2  C   UNL     1     -10.926  15.308  66.186  1.00  0.00    -0.307 C  
ENDROOT
BRANCH   2   3
HETATM    3  C   UNL     1      -9.991  16.331  66.796  1.00  0.00    -0.268 A  
HETATM    4  F   UNL     1     -10.464  20.553  66.306  1.00  0.00    -0.441 F  
HETATM    5  F   UNL     1      -8.729  20.940  67.555  1.00  0.00    -0.390 F  
HETATM    6  C   UNL     1      -8.657  15.954  66.998  1.00  0.00    -0.245 A  
HETATM    7  C   UNL     1      -7.668  16.906  67.235  1.00  0.00    -0.196 A  
HETATM    8  F   UNL     1     -10.604  20.319  68.465  1.00  0.00    -0.515 F  
HETATM    9  C   UNL     1      -6.214  16.493  67.205  1.00  0.00    -0.177 C  
HETATM   10  C   UNL     1      -8.040  18.252  67.371  1.00  0.00    -0.232 A  
HETATM   11  C   UNL     1      -9.790  20.099  67.397  1.00  0.00    -0.434 C  
HETATM   12  C   UNL     1      -9.387  18.647  67.265  1.00  0.00    -0.299 A  
HETATM   13  F   UNL     1      -6.037  15.143  67.170  1.00  0.00    -0.082 F  
HETATM   14  F   UNL     1      -5.577  16.979  66.108  1.00  0.00    -0.206 F  
HETATM   15  C   UNL     1     -10.357  17.676  66.968  1.00  0.00    -0.330 A  
HETATM   16  F   UNL     1      -5.517  16.938  68.282  1.00  0.00    -0.111 F  
ENDBRANCH   2   3
BRANCH   2  17
HETATM   17  O   UNL     1     -11.507  14.481  67.209  1.00  0.00    -0.335 OA 
BRANCH  17  18
HETATM   18  C   UNL     1     -10.577  14.110  68.256  1.00  0.00    -0.251 C  
HETATM   19  N   UNL     1     -11.750  11.982  68.941  1.00  0.00    -0.308 NA 
HETATM   20  C   UNL     1     -10.456  12.537  68.462  1.00  0.00    -0.231 C  
HETATM   21  O   UNL     1     -10.917  14.728  69.509  1.00  0.00    -0.257 OA 
HETATM   22  C   UNL     1     -12.176  14.233  69.981  1.00  0.00    -0.359 C  
HETATM   23  C   UNL     1     -12.156  12.711  70.166  1.00  0.00    -0.294 C  
BRANCH  19  24
HETATM   24  C   UNL     1     -11.861  10.522  69.107  1.00  0.00    -0.146 C  
BRANCH  24  25
HETATM   25  C   UNL     1     -10.802   9.903  70.001  1.00  0.00    -0.294 C  
HETATM   26  O   UNL     1     -11.233   7.512  73.301  1.00  0.00    -0.346 OA 
HETATM   27  O   UNL     1      -9.356   6.411  72.159  1.00  0.00    -0.151 OA 
HETATM   28  N   UNL     1      -9.596   9.616  69.576  1.00  0.00    -0.185 NA 
HETATM   29  O   UNL     1      -8.860   8.071  74.075  1.00  0.00    -0.263 OA 
HETATM   30  C   UNL     1      -8.995   8.955  70.624  1.00  0.00    -0.199 C  
HETATM   31  O   UNL     1      -7.956   8.311  70.560  1.00  0.00    -0.092 OA 
HETATM   32  P   UNL     1      -9.703   7.797  72.880  1.00  0.00    -0.291 P  
HETATM   33  N   UNL     1      -9.832   8.976  71.708  1.00  0.00    -0.305 N  
HETATM   34  N   UNL     1     -11.038   9.599  71.321  1.00  0.00    -0.365 NA 
ENDBRANCH  24  25
ENDBRANCH  19  24
BRANCH  20  35
HETATM   35  C   UNL     1      -9.866  11.902  67.205  1.00  0.00    -0.206 A  
HETATM   36  C   UNL     1     -10.186  10.583  65.175  1.00  0.00    -0.358 A  
HETATM   37  F   UNL     1      -8.295   9.745  64.038  1.00  0.00    -0.131 F  
HETATM   38  C   UNL     1     -10.716  11.297  66.254  1.00  0.00    -0.312 A  
HETATM   39  C   UNL     1      -7.949  11.067  65.958  1.00  0.00    -0.094 A  
HETATM   40  C   UNL     1      -8.478  11.794  67.029  1.00  0.00    -0.175 A  
HETATM   41  C   UNL     1      -8.804  10.463  65.047  1.00  0.00    -0.191 A  
ENDBRANCH  20  35
ENDBRANCH  17  18
ENDBRANCH   2  17
TORSDOF 6
ENDMDL
MODEL       54
REMARK 921   NORMALIZED FREE ENERGY PREDICTED BY IDOCK:   -7.84 KCAL/MOL
REMARK 922        TOTAL FREE ENERGY PREDICTED BY IDOCK:  -11.49 KCAL/MOL
REMARK 923 INTER-LIGAND FREE ENERGY PREDICTED BY IDOCK:  -11.01 KCAL/MOL
REMARK 924 INTRA-LIGAND FREE ENERGY PREDICTED BY IDOCK:   -0.48 KCAL/MOL
REMARK 927      BINDING AFFINITY PREDICTED BY RF-SCORE:    0.00 PKD
ROOT
HETATM    1  C   UNL     1      -8.063  10.480  69.739  1.00  0.00     0.017 C  
HETATM    2  C   UNL     1      -9.570  10.671  69.614  1.00  0.00     0.062 C  
ENDROOT
BRANCH   2   3
HETATM    3  C   UNL     1     -10.326   9.358  69.617  1.00  0.00    -0.229 A  
HETATM    4  F   UNL     1     -11.405   7.259  73.183  1.00  0.00    -0.319 F  
HETATM    5  F   UNL     1     -12.397   5.711  72.027  1.00  0.00    -0.178 F  
HETATM    6  C   UNL     1     -10.157   8.509  68.516  1.00  0.00    -0.214 A  
HETATM    7  C   UNL     1     -10.535   7.169  68.576  1.00  0.00    -0.229 A  
HETATM    8  F   UNL     1     -13.343   7.653  72.274  1.00  0.00    -0.235 F  
HETATM    9  C   UNL     1     -10.119   6.227  67.470  1.00  0.00    -0.154 C  
HETATM   10  C   UNL     1     -11.187   6.700  69.726  1.00  0.00    -0.413 A  
HETATM   11  C   UNL     1     -12.142   7.049  72.059  1.00  0.00    -0.294 C  
HETATM   12  C   UNL     1     -11.453   7.556  70.811  1.00  0.00    -0.305 A  
HETATM   13  F   UNL     1      -9.593   6.865  66.387  1.00  0.00    -0.201 F  
HETATM   14  F   UNL     1      -9.165   5.354  67.887  1.00  0.00    -0.109 F  
HETATM   15  C   UNL     1     -11.009   8.887  70.749  1.00  0.00    -0.305 A  
HETATM   16  F   UNL     1     -11.149   5.475  67.002  1.00  0.00    -0.296 F  
ENDBRANCH   2   3
BRANCH   2  17
HETATM   17  O   UNL     1      -9.888  11.435  68.439  1.00  0.00    -0.192 OA 
BRANCH  17  18
HETATM   18  C   UNL     1     -11.310  11.545  68.182  1.00  0.00    -0.298 C  
HETATM   19  N   UNL     1     -11.252  13.889  67.244  1.00  0.00    -0.302 NA 
HETATM   20  C   UNL     1     -11.655  12.488  66.948  1.00  0.00    -0.370 C  
HETATM   21  O   UNL     1     -12.024  12.002  69.344  1.00  0.00    -0.301 OA 
HETATM   22  C   UNL     1     -11.633  13.341  69.671  1.00  0.00    -0.261 C  
HETATM   23  C   UNL     1     -11.894  14.310  68.512  1.00  0.00    -0.347 C  
BRANCH  19  24
HETATM   24  C   UNL     1     -11.413  14.897  66.182  1.00  0.00    -0.272 C  
BRANCH  24  25
HETATM   25  C   UNL     1     -10.374  16.003  66.195  1.00  0.00    -0.328 C  
HETATM   26  O   UNL     1     -10.105  19.315  68.594  1.00  0.00    -0.406 OA 
HETATM   27  O   UNL     1      -7.755  18.599  68.507  1.00  0.00    -0.298 OA 
HETATM   28  N   UNL     1      -9.141  15.821  65.794  1.00  0.00    -0.273 NA 
HETATM   29  O   UNL     1      -8.558  20.466  66.912  1.00  0.00    -0.307 OA 
HETATM   30  C   UNL     1      -8.490  16.998  66.087  1.00  0.00    -0.227 C  
HETATM   31  O   UNL     1      -7.277  17.162  66.092  1.00  0.00    -0.277 OA 
HETATM   32  P   UNL     1      -8.898  19.159  67.536  1.00  0.00    -0.307 P  
HETATM   33  N   UNL     1      -9.400  17.911  66.550  1.00  0.00    -0.281 N  
HETATM   34  N   UNL     1     -10.658  17.276  66.631  1.00  0.00    -0.236 NA 
ENDBRANCH  24  25
ENDBRANCH  19  24
BRANCH  20  35
HETATM   35  C   UNL     1     -11.096  11.875  65.666  1.00  0.00    -0.362 A  
HETATM   36  C   UNL     1      -9.803  10.113  64.576  1.00  0.00    -0.334 A  
HETATM   37  F   UNL     1      -9.137  10.398  62.330  1.00  0.00    -0.199 F  
HETATM   38  C   UNL     1     -10.450  10.621  65.707  1.00  0.00    -0.235 A  
HETATM   39  C   UNL     1     -10.438  12.089  63.332  1.00  0.00    -0.474 A  
HETATM   40  C   UNL     1     -11.098  12.590  64.458  1.00  0.00    -0.357 A  
HETATM   41  C   UNL     1      -9.792  10.863  63.402  1.00  0.00    -0.362 A  
ENDBRANCH  20  35
ENDBRANCH  17  18
ENDBRANCH   2  17
TORSDOF 6
ENDMDL
MODEL       55
REMARK 921   NORMALIZED FREE ENERGY PREDICTED BY IDOCK:   -7.83 KCAL/MOL
REMARK 922        TOTAL FREE ENERGY PREDICTED BY IDOCK:  -11.48 KCAL/MOL
REMARK 923 INTER-LIGAND FREE ENERGY PREDICTED BY IDOCK:   -8.24 KCAL/MOL
REMARK 924 INTRA-LIGAND FREE ENERGY PREDICTED BY IDOCK:   -3.24 KCAL/MOL
REMARK 927      BINDING AFFINITY PREDICTED BY RF-SCORE:    0.00 PKD
ROOT
HETATM    1  C   UNL     1      -5.325   5.774  67.863  1.00  0.00    -0.004 C  
HETATM    2  C   UNL     1      -6.075   6.829  68.666  1.00  0.00    -0.026 C  
ENDROOT
BRANCH   2   3
HETATM    3  C   UNL     1      -6.759   6.254  69.889  1.00  0.00    -0.056 A  
HETATM    4  F   UNL     1     -10.165   3.675  69.698  1.00  0.00    -0.081 F  
HETATM    5  F   UNL     1     -10.203   3.487  71.862  1.00  0.00    -0.245 F  
HETATM    6  C   UNL     1      -6.708   7.000  71.073  1.00  0.00    -0.053 A  
HETATM    7  C   UNL     1      -7.568   6.725  72.135  1.00  0.00    -0.094 A  
HETATM    8  F   UNL     1      -8.696   2.427  70.707  1.00  0.00    -0.077 F  
HETATM    9  C   UNL     1      -7.657   7.694  73.292  1.00  0.00    -0.104 C  
HETATM   10  C   UNL     1      -8.425   5.618  72.044  1.00  0.00    -0.126 A  
HETATM   11  C   UNL     1      -9.363   3.610  70.796  1.00  0.00    -0.155 C  
HETATM   12  C   UNL     1      -8.431   4.795  70.902  1.00  0.00    -0.114 A  
HETATM   13  F   UNL     1      -6.685   8.649  73.272  1.00  0.00    -0.121 F  
HETATM   14  F   UNL     1      -8.838   8.366  73.295  1.00  0.00    -0.283 F  
HETATM   15  C   UNL     1      -7.596   5.128  69.823  1.00  0.00    -0.061 A  
HETATM   16  F   UNL     1      -7.561   7.082  74.501  1.00  0.00    -0.108 F  
ENDBRANCH   2   3
BRANCH   2  17
HETATM   17  O   UNL     1      -7.023   7.519  67.835  1.00  0.00    -0.071 OA 
BRANCH  17  18
HETATM   18  C   UNL     1      -7.261   8.891  68.236  1.00  0.00    -0.079 C  
HETATM   19  N   UNL     1      -8.967   9.421  66.452  1.00  0.00    -0.146 NA 
HETATM   20  C   UNL     1      -8.738   9.392  67.921  1.00  0.00    -0.120 C  
HETATM   21  O   UNL     1      -6.316   9.790  67.633  1.00  0.00    -0.059 OA 
HETATM   22  C   UNL     1      -6.493   9.816  66.211  1.00  0.00    -0.072 C  
HETATM   23  C   UNL     1      -7.911  10.250  65.823  1.00  0.00    -0.144 C  
BRANCH  19  24
HETATM   24  C   UNL     1     -10.311   9.777  65.965  1.00  0.00    -0.114 C  
BRANCH  24  25
HETATM   25  C   UNL     1     -10.644  11.256  66.046  1.00  0.00    -0.258 C  
HETATM   26  O   UNL     1     -12.455  13.687  63.289  1.00  0.00    -0.801 OA 
HETATM   27  O   UNL     1     -13.524  14.446  65.367  1.00  0.00    -0.485 OA 
HETATM   28  N   UNL     1     -10.866  11.870  67.182  1.00  0.00    -0.242 NA 
HETATM   29  O   UNL     1     -11.511  15.770  64.436  1.00  0.00    -0.410 OA 
HETATM   30  C   UNL     1     -11.264  13.140  66.830  1.00  0.00    -0.296 C  
HETATM   31  O   UNL     1     -11.790  13.956  67.576  1.00  0.00    -0.356 OA 
HETATM   32  P   UNL     1     -12.081  14.417  64.677  1.00  0.00    -0.413 P  
HETATM   33  N   UNL     1     -11.146  13.289  65.474  1.00  0.00    -0.281 N  
HETATM   34  N   UNL     1     -10.737  12.053  64.930  1.00  0.00    -0.289 NA 
ENDBRANCH  24  25
ENDBRANCH  19  24
BRANCH  20  35
HETATM   35  C   UNL     1      -9.737   8.588  68.750  1.00  0.00    -0.168 A  
HETATM   36  C   UNL     1     -10.844   8.190  70.890  1.00  0.00    -0.254 A  
HETATM   37  F   UNL     1     -12.047   6.185  71.207  1.00  0.00    -0.342 F  
HETATM   38  C   UNL     1     -10.049   8.992  70.066  1.00  0.00    -0.215 A  
HETATM   39  C   UNL     1     -11.044   6.565  69.109  1.00  0.00    -0.387 A  
HETATM   40  C   UNL     1     -10.262   7.374  68.279  1.00  0.00    -0.213 A  
HETATM   41  C   UNL     1     -11.321   6.974  70.405  1.00  0.00    -0.310 A  
ENDBRANCH  20  35
ENDBRANCH  17  18
ENDBRANCH   2  17
TORSDOF 6
ENDMDL
MODEL       56
REMARK 921   NORMALIZED FREE ENERGY PREDICTED BY IDOCK:   -7.81 KCAL/MOL
REMARK 922        TOTAL FREE ENERGY PREDICTED BY IDOCK:  -11.45 KCAL/MOL
REMARK 923 INTER-LIGAND FREE ENERGY PREDICTED BY IDOCK:   -9.91 KCAL/MOL
REMARK 924 INTRA-LIGAND FREE ENERGY PREDICTED BY IDOCK:   -1.55 KCAL/MOL
REMARK 927      BINDING AFFINITY PREDICTED BY RF-SCORE:    0.00 PKD
ROOT
HETATM    1  C   UNL     1      -6.549  14.596  68.823  1.00  0.00    -0.090 C  
HETATM    2  C   UNL     1      -7.936  14.361  68.237  1.00  0.00    -0.140 C  
ENDROOT
BRANCH   2   3
HETATM    3  C   UNL     1      -8.986  15.269  68.842  1.00  0.00    -0.209 A  
HETATM    4  F   UNL     1     -12.896  13.945  69.957  1.00  0.00    -0.331 F  
HETATM    5  F   UNL     1     -13.413  15.927  70.678  1.00  0.00    -0.427 F  
HETATM    6  C   UNL     1      -8.950  16.626  68.494  1.00  0.00    -0.235 A  
HETATM    7  C   UNL     1     -10.044  17.457  68.725  1.00  0.00    -0.346 A  
HETATM    8  F   UNL     1     -12.092  14.658  71.849  1.00  0.00    -0.361 F  
HETATM    9  C   UNL     1     -10.068  18.843  68.123  1.00  0.00    -0.388 C  
HETATM   10  C   UNL     1     -11.155  16.941  69.409  1.00  0.00     0.031 A  
HETATM   11  C   UNL     1     -12.382  15.042  70.576  1.00  0.00    -0.356 C  
HETATM   12  C   UNL     1     -11.180  15.605  69.852  1.00  0.00    -0.335 A  
HETATM   13  F   UNL     1      -8.873  19.219  67.587  1.00  0.00    -0.303 F  
HETATM   14  F   UNL     1     -10.972  18.936  67.113  1.00  0.00    -0.480 F  
HETATM   15  C   UNL     1     -10.089  14.773  69.555  1.00  0.00    -0.065 A  
HETATM   16  F   UNL     1     -10.397  19.805  69.023  1.00  0.00    -0.496 F  
ENDBRANCH   2   3
BRANCH   2  17
HETATM   17  O   UNL     1      -8.319  12.982  68.378  1.00  0.00    -0.157 OA 
BRANCH  17  18
HETATM   18  C   UNL     1      -7.909  12.147  67.267  1.00  0.00    -0.176 C  
HETATM   19  N   UNL     1      -9.468  10.224  67.764  1.00  0.00    -0.147 NA 
HETATM   20  C   UNL     1      -9.073  11.209  66.722  1.00  0.00    -0.166 C  
HETATM   21  O   UNL     1      -6.768  11.339  67.605  1.00  0.00    -0.067 OA 
HETATM   22  C   UNL     1      -7.112  10.399  68.630  1.00  0.00    -0.076 C  
HETATM   23  C   UNL     1      -8.261   9.481  68.197  1.00  0.00    -0.114 C  
BRANCH  19  24
HETATM   24  C   UNL     1     -10.597   9.322  67.474  1.00  0.00    -0.262 C  
BRANCH  24  25
HETATM   25  C   UNL     1     -10.200   7.975  66.899  1.00  0.00    -0.315 C  
HETATM   26  O   UNL     1      -6.548   6.665  65.577  1.00  0.00    -0.047 OA 
HETATM   27  O   UNL     1      -7.352   4.686  66.793  1.00  0.00    -0.079 OA 
HETATM   28  N   UNL     1     -10.828   6.865  67.197  1.00  0.00    -0.365 NA 
HETATM   29  O   UNL     1      -7.656   4.792  64.229  1.00  0.00    -0.069 OA 
HETATM   30  C   UNL     1     -10.095   5.865  66.598  1.00  0.00    -0.183 C  
HETATM   31  O   UNL     1     -10.202   4.667  66.824  1.00  0.00    -0.227 OA 
HETATM   32  P   UNL     1      -7.720   5.559  65.503  1.00  0.00    -0.096 P  
HETATM   33  N   UNL     1      -9.102   6.429  65.841  1.00  0.00    -0.103 N  
HETATM   34  N   UNL     1      -9.150   7.827  66.024  1.00  0.00    -0.156 NA 
ENDBRANCH  24  25
ENDBRANCH  19  24
BRANCH  20  35
HETATM   35  C   UNL     1     -10.192  12.071  66.141  1.00  0.00    -0.255 A  
HETATM   36  C   UNL     1     -11.176  13.210  64.218  1.00  0.00    -0.422 A  
HETATM   37  F   UNL     1     -12.895  14.787  64.571  1.00  0.00    -0.403 F  
HETATM   38  C   UNL     1     -10.251  12.307  64.750  1.00  0.00    -0.308 A  
HETATM   39  C   UNL     1     -12.012  13.659  66.443  1.00  0.00    -0.466 A  
HETATM   40  C   UNL     1     -11.098  12.744  66.975  1.00  0.00    -0.316 A  
HETATM   41  C   UNL     1     -12.038  13.890  65.075  1.00  0.00    -0.406 A  
ENDBRANCH  20  35
ENDBRANCH  17  18
ENDBRANCH   2  17
TORSDOF 6
ENDMDL
MODEL       57
REMARK 921   NORMALIZED FREE ENERGY PREDICTED BY IDOCK:   -7.78 KCAL/MOL
REMARK 922        TOTAL FREE ENERGY PREDICTED BY IDOCK:  -11.41 KCAL/MOL
REMARK 923 INTER-LIGAND FREE ENERGY PREDICTED BY IDOCK:  -10.89 KCAL/MOL
REMARK 924 INTRA-LIGAND FREE ENERGY PREDICTED BY IDOCK:   -0.53 KCAL/MOL
REMARK 927      BINDING AFFINITY PREDICTED BY RF-SCORE:    0.00 PKD
ROOT
HETATM    1  C   UNL     1     -10.147  14.500  64.718  1.00  0.00    -0.109 C  
HETATM    2  C   UNL     1     -10.771  15.497  65.686  1.00  0.00    -0.366 C  
ENDROOT
BRANCH   2   3
HETATM    3  C   UNL     1      -9.809  16.593  66.096  1.00  0.00    -0.340 A  
HETATM    4  F   UNL     1      -5.917  15.842  67.701  1.00  0.00    -0.129 F  
HETATM    5  F   UNL     1      -5.511  17.971  67.837  1.00  0.00    -0.143 F  
HETATM    6  C   UNL     1     -10.355  17.805  66.537  1.00  0.00    -0.345 A  
HETATM    7  C   UNL     1      -9.581  18.730  67.235  1.00  0.00    -0.333 A  
HETATM    8  F   UNL     1      -5.464  16.980  65.903  1.00  0.00    -0.134 F  
HETATM    9  C   UNL     1     -10.252  19.908  67.906  1.00  0.00    -0.434 C  
HETATM   10  C   UNL     1      -8.211  18.480  67.403  1.00  0.00    -0.259 A  
HETATM   11  C   UNL     1      -6.144  17.031  67.080  1.00  0.00    -0.164 C  
HETATM   12  C   UNL     1      -7.618  17.312  66.888  1.00  0.00    -0.248 A  
HETATM   13  F   UNL     1     -11.558  20.058  67.552  1.00  0.00    -0.113 F  
HETATM   14  F   UNL     1     -10.245  19.784  69.259  1.00  0.00    -0.497 F  
HETATM   15  C   UNL     1      -8.431  16.368  66.241  1.00  0.00    -0.372 A  
HETATM   16  F   UNL     1      -9.646  21.090  67.626  1.00  0.00    -0.520 F  
ENDBRANCH   2   3
BRANCH   2  17
HETATM   17  O   UNL     1     -11.290  14.822  66.845  1.00  0.00    -0.344 OA 
BRANCH  17  18
HETATM   18  C   UNL     1     -10.266  14.241  67.688  1.00  0.00    -0.237 C  
HETATM   19  N   UNL     1     -11.732  12.478  68.747  1.00  0.00    -0.312 NA 
HETATM   20  C   UNL     1     -10.484  12.689  67.965  1.00  0.00    -0.224 C  
HETATM   21  O   UNL     1     -10.156  14.935  68.943  1.00  0.00    -0.224 OA 
HETATM   22  C   UNL     1     -11.358  14.774  69.706  1.00  0.00    -0.283 C  
HETATM   23  C   UNL     1     -11.664  13.297  69.980  1.00  0.00    -0.225 C  
BRANCH  19  24
HETATM   24  C   UNL     1     -12.150  11.093  69.027  1.00  0.00    -0.246 C  
BRANCH  24  25
HETATM   25  C   UNL     1     -11.169  10.291  69.862  1.00  0.00    -0.299 C  
HETATM   26  O   UNL     1     -11.866   7.767  73.016  1.00  0.00    -0.213 OA 
HETATM   27  O   UNL     1     -10.154   6.515  71.774  1.00  0.00    -0.184 OA 
HETATM   28  N   UNL     1     -10.014   9.883  69.399  1.00  0.00    -0.199 NA 
HETATM   29  O   UNL     1      -9.434   7.975  73.780  1.00  0.00    -0.218 OA 
HETATM   30  C   UNL     1      -9.490   9.086  70.393  1.00  0.00    -0.210 C  
HETATM   31  O   UNL     1      -8.541   8.323  70.271  1.00  0.00    -0.123 OA 
HETATM   32  P   UNL     1     -10.317   7.885  72.586  1.00  0.00    -0.345 P  
HETATM   33  N   UNL     1     -10.307   9.143  71.491  1.00  0.00    -0.343 N  
HETATM   34  N   UNL     1     -11.428   9.936  71.165  1.00  0.00    -0.375 NA 
ENDBRANCH  24  25
ENDBRANCH  19  24
BRANCH  20  35
HETATM   35  C   UNL     1     -10.363  11.915  66.654  1.00  0.00    -0.242 A  
HETATM   36  C   UNL     1      -8.953  10.801  65.001  1.00  0.00    -0.211 A  
HETATM   37  F   UNL     1      -9.866  10.246  62.897  1.00  0.00    -0.332 F  
HETATM   38  C   UNL     1      -9.116  11.382  66.262  1.00  0.00    -0.211 A  
HETATM   39  C   UNL     1     -11.273  11.262  64.492  1.00  0.00    -0.176 A  
HETATM   40  C   UNL     1     -11.441  11.828  65.760  1.00  0.00    -0.258 A  
HETATM   41  C   UNL     1     -10.032  10.762  64.121  1.00  0.00    -0.343 A  
ENDBRANCH  20  35
ENDBRANCH  17  18
ENDBRANCH   2  17
TORSDOF 6
ENDMDL
MODEL       58
REMARK 921   NORMALIZED FREE ENERGY PREDICTED BY IDOCK:   -7.77 KCAL/MOL
REMARK 922        TOTAL FREE ENERGY PREDICTED BY IDOCK:  -11.39 KCAL/MOL
REMARK 923 INTER-LIGAND FREE ENERGY PREDICTED BY IDOCK:   -8.26 KCAL/MOL
REMARK 924 INTRA-LIGAND FREE ENERGY PREDICTED BY IDOCK:   -3.13 KCAL/MOL
REMARK 927      BINDING AFFINITY PREDICTED BY RF-SCORE:    0.00 PKD
ROOT
HETATM    1  C   UNL     1     -12.025  10.411  70.986  1.00  0.00    -0.481 C  
HETATM    2  C   UNL     1     -11.389  10.240  69.613  1.00  0.00    -0.257 C  
ENDROOT
BRANCH   2   3
HETATM    3  C   UNL     1     -10.249   9.243  69.618  1.00  0.00    -0.219 A  
HETATM    4  F   UNL     1      -6.124  10.370  69.659  1.00  0.00    -0.040 F  
HETATM    5  F   UNL     1      -5.507   8.288  69.703  1.00  0.00    -0.025 F  
HETATM    6  C   UNL     1     -10.468   8.003  69.004  1.00  0.00    -0.212 A  
HETATM    7  C   UNL     1      -9.404   7.168  68.669  1.00  0.00    -0.134 A  
HETATM    8  F   UNL     1      -6.308   9.219  71.497  1.00  0.00    -0.076 F  
HETATM    9  C   UNL     1      -9.651   5.960  67.795  1.00  0.00    -0.115 C  
HETATM   10  C   UNL     1      -8.105   7.539  69.049  1.00  0.00    -0.127 A  
HETATM   11  C   UNL     1      -6.467   9.147  70.148  1.00  0.00    -0.046 C  
HETATM   12  C   UNL     1      -7.868   8.737  69.750  1.00  0.00    -0.090 A  
HETATM   13  F   UNL     1     -10.973   5.689  67.611  1.00  0.00    -0.296 F  
HETATM   14  F   UNL     1      -9.128   6.125  66.552  1.00  0.00    -0.129 F  
HETATM   15  C   UNL     1      -8.950   9.588  70.023  1.00  0.00    -0.249 A  
HETATM   16  F   UNL     1      -9.098   4.825  68.296  1.00  0.00    -0.110 F  
ENDBRANCH   2   3
BRANCH   2  17
HETATM   17  O   UNL     1     -10.949  11.508  69.096  1.00  0.00    -0.220 OA 
BRANCH  17  18
HETATM   18  C   UNL     1     -11.584  11.882  67.849  1.00  0.00    -0.323 C  
HETATM   19  N   UNL     1      -9.969  13.727  67.247  1.00  0.00    -0.237 NA 
HETATM   20  C   UNL     1     -10.563  12.450  66.769  1.00  0.00    -0.226 C  
HETATM   21  O   UNL     1     -12.636  12.840  68.058  1.00  0.00     0.191 OA 
HETATM   22  C   UNL     1     -12.095  14.073  68.547  1.00  0.00    -0.294 C  
HETATM   23  C   UNL     1     -11.066  14.667  67.579  1.00  0.00    -0.313 C  
BRANCH  19  24
HETATM   24  C   UNL     1      -8.930  14.363  66.417  1.00  0.00    -0.088 C  
BRANCH  24  25
HETATM   25  C   UNL     1      -8.662  15.820  66.744  1.00  0.00    -0.271 C  
HETATM   26  O   UNL     1      -5.917  17.467  69.304  1.00  0.00    -0.200 OA 
HETATM   27  O   UNL     1      -5.758  18.998  67.387  1.00  0.00    -0.167 OA 
HETATM   28  N   UNL     1      -8.908  16.792  65.900  1.00  0.00    -0.513 NA 
HETATM   29  O   UNL     1      -7.245  19.652  69.396  1.00  0.00    -0.352 OA 
HETATM   30  C   UNL     1      -8.408  17.925  66.502  1.00  0.00    -0.262 C  
HETATM   31  O   UNL     1      -8.222  19.002  65.953  1.00  0.00    -0.465 OA 
HETATM   32  P   UNL     1      -6.812  18.543  68.503  1.00  0.00    -0.280 P  
HETATM   33  N   UNL     1      -7.982  17.611  67.766  1.00  0.00    -0.215 N  
HETATM   34  N   UNL     1      -8.139  16.221  67.951  1.00  0.00    -0.145 NA 
ENDBRANCH  24  25
ENDBRANCH  19  24
BRANCH  20  35
HETATM   35  C   UNL     1      -9.583  11.351  66.367  1.00  0.00    -0.228 A  
HETATM   36  C   UNL     1      -9.190   9.148  65.388  1.00  0.00    -0.266 A  
HETATM   37  F   UNL     1      -7.087   8.119  65.679  1.00  0.00    -0.063 F  
HETATM   38  C   UNL     1     -10.038  10.232  65.636  1.00  0.00    -0.341 A  
HETATM   39  C   UNL     1      -7.411  10.272  66.582  1.00  0.00    -0.110 A  
HETATM   40  C   UNL     1      -8.253  11.362  66.817  1.00  0.00    -0.160 A  
HETATM   41  C   UNL     1      -7.887   9.174  65.879  1.00  0.00    -0.105 A  
ENDBRANCH  20  35
ENDBRANCH  17  18
ENDBRANCH   2  17
TORSDOF 6
ENDMDL
MODEL       59
REMARK 921   NORMALIZED FREE ENERGY PREDICTED BY IDOCK:   -7.75 KCAL/MOL
REMARK 922        TOTAL FREE ENERGY PREDICTED BY IDOCK:  -11.37 KCAL/MOL
REMARK 923 INTER-LIGAND FREE ENERGY PREDICTED BY IDOCK:  -10.12 KCAL/MOL
REMARK 924 INTRA-LIGAND FREE ENERGY PREDICTED BY IDOCK:   -1.25 KCAL/MOL
REMARK 927      BINDING AFFINITY PREDICTED BY RF-SCORE:    0.00 PKD
ROOT
HETATM    1  C   UNL     1      -8.532   7.033  65.364  1.00  0.00    -0.093 C  
HETATM    2  C   UNL     1      -8.877   7.565  66.749  1.00  0.00    -0.140 C  
ENDROOT
BRANCH   2   3
HETATM    3  C   UNL     1      -9.504   6.511  67.639  1.00  0.00    -0.126 A  
HETATM    4  F   UNL     1     -10.425   7.148  71.766  1.00  0.00    -0.198 F  
HETATM    5  F   UNL     1     -11.249   5.145  71.940  1.00  0.00    -0.240 F  
HETATM    6  C   UNL     1      -9.240   5.168  67.341  1.00  0.00    -0.121 A  
HETATM    7  C   UNL     1      -9.489   4.163  68.273  1.00  0.00    -0.213 A  
HETATM    8  F   UNL     1     -12.379   6.698  70.920  1.00  0.00    -0.415 F  
HETATM    9  C   UNL     1      -8.970   2.766  68.019  1.00  0.00    -0.156 C  
HETATM   10  C   UNL     1     -10.108   4.500  69.486  1.00  0.00    -0.139 A  
HETATM   11  C   UNL     1     -11.123   6.200  71.085  1.00  0.00    -0.298 C  
HETATM   12  C   UNL     1     -10.469   5.830  69.772  1.00  0.00    -0.363 A  
HETATM   13  F   UNL     1      -8.492   2.590  66.755  1.00  0.00    -0.085 F  
HETATM   14  F   UNL     1      -7.942   2.454  68.851  1.00  0.00    -0.052 F  
HETATM   15  C   UNL     1     -10.154   6.833  68.841  1.00  0.00    -0.170 A  
HETATM   16  F   UNL     1      -9.916   1.810  68.202  1.00  0.00    -0.217 F  
ENDBRANCH   2   3
BRANCH   2  17
HETATM   17  O   UNL     1      -9.731   8.717  66.652  1.00  0.00    -0.198 OA 
BRANCH  17  18
HETATM   18  C   UNL     1      -9.040   9.974  66.858  1.00  0.00    -0.139 C  
HETATM   19  N   UNL     1     -10.941  11.469  66.131  1.00  0.00    -0.286 NA 
HETATM   20  C   UNL     1     -10.014  11.169  67.254  1.00  0.00    -0.184 C  
HETATM   21  O   UNL     1      -8.271  10.351  65.704  1.00  0.00    -0.148 OA 
HETATM   22  C   UNL     1      -9.138  10.618  64.595  1.00  0.00    -0.211 C  
HETATM   23  C   UNL     1     -10.140  11.734  64.912  1.00  0.00    -0.259 C  
BRANCH  19  24
HETATM   24  C   UNL     1     -11.979  12.492  66.343  1.00  0.00    -0.318 C  
BRANCH  24  25
HETATM   25  C   UNL     1     -11.464  13.919  66.385  1.00  0.00    -0.344 C  
HETATM   26  O   UNL     1      -9.003  15.734  69.114  1.00  0.00    -0.224 OA 
HETATM   27  O   UNL     1      -8.118  16.632  67.005  1.00  0.00    -0.166 OA 
HETATM   28  N   UNL     1     -11.310  14.649  65.308  1.00  0.00    -0.341 NA 
HETATM   29  O   UNL     1      -9.799  18.047  68.364  1.00  0.00    -0.326 OA 
HETATM   30  C   UNL     1     -10.703  15.806  65.743  1.00  0.00    -0.327 C  
HETATM   31  O   UNL     1     -10.172  16.646  65.028  1.00  0.00    -0.561 OA 
HETATM   32  P   UNL     1      -9.452  16.680  67.889  1.00  0.00    -0.231 P  
HETATM   33  N   UNL     1     -10.624  15.786  67.110  1.00  0.00    -0.310 N  
HETATM   34  N   UNL     1     -11.123  14.545  67.561  1.00  0.00    -0.297 NA 
ENDBRANCH  24  25
ENDBRANCH  19  24
BRANCH  20  35
HETATM   35  C   UNL     1     -10.656  10.875  68.608  1.00  0.00    -0.224 A  
HETATM   36  C   UNL     1     -10.524   9.819  70.806  1.00  0.00    -0.339 A  
HETATM   37  F   UNL     1     -12.483   9.618  72.105  1.00  0.00    -0.433 F  
HETATM   38  C   UNL     1      -9.911  10.227  69.617  1.00  0.00    -0.240 A  
HETATM   39  C   UNL     1     -12.634  10.700  70.017  1.00  0.00    -0.232 A  
HETATM   40  C   UNL     1     -12.019  11.123  68.835  1.00  0.00    -0.367 A  
HETATM   41  C   UNL     1     -11.886  10.046  70.986  1.00  0.00    -0.386 A  
ENDBRANCH  20  35
ENDBRANCH  17  18
ENDBRANCH   2  17
TORSDOF 6
ENDMDL
MODEL       60
REMARK 921   NORMALIZED FREE ENERGY PREDICTED BY IDOCK:   -7.74 KCAL/MOL
REMARK 922        TOTAL FREE ENERGY PREDICTED BY IDOCK:  -11.35 KCAL/MOL
REMARK 923 INTER-LIGAND FREE ENERGY PREDICTED BY IDOCK:   -9.55 KCAL/MOL
REMARK 924 INTRA-LIGAND FREE ENERGY PREDICTED BY IDOCK:   -1.81 KCAL/MOL
REMARK 927      BINDING AFFINITY PREDICTED BY RF-SCORE:    0.00 PKD
ROOT
HETATM    1  C   UNL     1     -11.422   8.527  72.420  1.00  0.00    -0.419 C  
HETATM    2  C   UNL     1     -11.557   8.230  70.932  1.00  0.00    -0.262 C  
ENDROOT
BRANCH   2   3
HETATM    3  C   UNL     1     -11.158   6.812  70.582  1.00  0.00    -0.338 A  
HETATM    4  F   UNL     1      -9.015   4.235  73.237  1.00  0.00    -0.103 F  
HETATM    5  F   UNL     1      -9.070   2.618  71.788  1.00  0.00    -0.106 F  
HETATM    6  C   UNL     1     -10.926   6.517  69.232  1.00  0.00    -0.389 A  
HETATM    7  C   UNL     1     -10.247   5.360  68.856  1.00  0.00    -0.266 A  
HETATM    8  F   UNL     1     -10.861   3.130  72.910  1.00  0.00    -0.239 F  
HETATM    9  C   UNL     1      -9.799   5.192  67.421  1.00  0.00    -0.166 C  
HETATM   10  C   UNL     1      -9.886   4.433  69.845  1.00  0.00    -0.290 A  
HETATM   11  C   UNL     1      -9.789   3.671  72.270  1.00  0.00    -0.165 C  
HETATM   12  C   UNL     1     -10.190   4.661  71.200  1.00  0.00    -0.199 A  
HETATM   13  F   UNL     1     -10.325   6.125  66.579  1.00  0.00    -0.228 F  
HETATM   14  F   UNL     1      -8.450   5.301  67.301  1.00  0.00    -0.107 F  
HETATM   15  C   UNL     1     -10.822   5.862  71.560  1.00  0.00    -0.325 A  
HETATM   16  F   UNL     1     -10.134   3.983  66.902  1.00  0.00    -0.242 F  
ENDBRANCH   2   3
BRANCH   2  17
HETATM   17  O   UNL     1     -10.799   9.174  70.156  1.00  0.00    -0.228 OA 
BRANCH  17  18
HETATM   18  C   UNL     1     -11.537   9.742  69.047  1.00  0.00     0.243 C  
HETATM   19  N   UNL     1     -10.032  11.740  68.695  1.00  0.00    -0.202 NA 
HETATM   20  C   UNL     1     -10.618  10.547  68.026  1.00  0.00    -0.214 C  
HETATM   21  O   UNL     1     -12.602  10.595  69.500  1.00  0.00    -0.259 OA 
HETATM   22  C   UNL     1     -12.068  11.740  70.175  1.00  0.00    -0.317 C  
HETATM   23  C   UNL     1     -11.133  12.550  69.269  1.00  0.00    -0.142 C  
BRANCH  19  24
HETATM   24  C   UNL     1      -9.080  12.565  67.932  1.00  0.00    -0.199 C  
BRANCH  24  25
HETATM   25  C   UNL     1      -9.672  13.263  66.721  1.00  0.00    -0.258 C  
HETATM   26  O   UNL     1     -13.300  12.711  64.897  1.00  0.00    -0.741 OA 
HETATM   27  O   UNL     1     -13.116  15.161  64.857  1.00  0.00     0.077 OA 
HETATM   28  N   UNL     1      -9.344  14.483  66.376  1.00  0.00    -0.287 NA 
HETATM   29  O   UNL     1     -12.444  13.818  62.755  1.00  0.00    -0.424 OA 
HETATM   30  C   UNL     1     -10.184  14.799  65.332  1.00  0.00    -0.387 C  
HETATM   31  O   UNL     1     -10.368  15.920  64.877  1.00  0.00    -0.517 OA 
HETATM   32  P   UNL     1     -12.394  13.872  64.241  1.00  0.00    -0.184 P  
HETATM   33  N   UNL     1     -10.918  13.692  64.996  1.00  0.00    -0.328 N  
HETATM   34  N   UNL     1     -10.598  12.659  65.903  1.00  0.00    -0.268 NA 
ENDBRANCH  24  25
ENDBRANCH  19  24
BRANCH  20  35
HETATM   35  C   UNL     1      -9.634   9.587  67.361  1.00  0.00    -0.178 A  
HETATM   36  C   UNL     1      -7.606   8.235  67.501  1.00  0.00    -0.098 A  
HETATM   37  F   UNL     1      -6.656   7.377  65.519  1.00  0.00    -0.042 F  
HETATM   38  C   UNL     1      -8.601   8.996  68.121  1.00  0.00    -0.130 A  
HETATM   39  C   UNL     1      -8.649   8.625  65.354  1.00  0.00    -0.206 A  
HETATM   40  C   UNL     1      -9.653   9.373  65.974  1.00  0.00    -0.328 A  
HETATM   41  C   UNL     1      -7.632   8.070  66.118  1.00  0.00    -0.086 A  
ENDBRANCH  20  35
ENDBRANCH  17  18
ENDBRANCH   2  17
TORSDOF 6
ENDMDL
MODEL       61
REMARK 921   NORMALIZED FREE ENERGY PREDICTED BY IDOCK:   -7.72 KCAL/MOL
REMARK 922        TOTAL FREE ENERGY PREDICTED BY IDOCK:  -11.33 KCAL/MOL
REMARK 923 INTER-LIGAND FREE ENERGY PREDICTED BY IDOCK:  -10.92 KCAL/MOL
REMARK 924 INTRA-LIGAND FREE ENERGY PREDICTED BY IDOCK:   -0.41 KCAL/MOL
REMARK 927      BINDING AFFINITY PREDICTED BY RF-SCORE:    0.00 PKD
ROOT
HETATM    1  C   UNL     1      -9.809  15.396  69.919  1.00  0.00    -0.191 C  
HETATM    2  C   UNL     1      -8.816  15.371  68.764  1.00  0.00    -0.196 C  
ENDROOT
BRANCH   2   3
HETATM    3  C   UNL     1      -8.463  16.758  68.268  1.00  0.00    -0.222 A  
HETATM    4  F   UNL     1      -6.570  19.725  70.697  1.00  0.00    -0.271 F  
HETATM    5  F   UNL     1      -6.535  21.128  69.039  1.00  0.00    -0.185 F  
HETATM    6  C   UNL     1      -9.263  17.310  67.259  1.00  0.00    -0.233 A  
HETATM    7  C   UNL     1      -9.227  18.675  66.979  1.00  0.00    -0.295 A  
HETATM    8  F   UNL     1      -5.135  19.465  69.081  1.00  0.00    -0.181 F  
HETATM    9  C   UNL     1     -10.269  19.275  66.063  1.00  0.00    -0.435 C  
HETATM   10  C   UNL     1      -8.298  19.482  67.654  1.00  0.00    -0.340 A  
HETATM   11  C   UNL     1      -6.426  19.804  69.346  1.00  0.00    -0.346 C  
HETATM   12  C   UNL     1      -7.418  18.935  68.607  1.00  0.00    -0.355 A  
HETATM   13  F   UNL     1     -11.019  18.341  65.414  1.00  0.00    -0.428 F  
HETATM   14  F   UNL     1     -11.151  20.050  66.747  1.00  0.00    -0.518 F  
HETATM   15  C   UNL     1      -7.515  17.568  68.913  1.00  0.00    -0.234 A  
HETATM   16  F   UNL     1      -9.732  20.066  65.099  1.00  0.00    -0.041 F  
ENDBRANCH   2   3
BRANCH   2  17
HETATM   17  O   UNL     1      -9.313  14.560  67.686  1.00  0.00    -0.195 OA 
BRANCH  17  18
HETATM   18  C   UNL     1      -8.281  13.821  66.988  1.00  0.00    -0.034 C  
HETATM   19  N   UNL     1      -8.892  11.546  67.898  1.00  0.00    -0.146 NA 
HETATM   20  C   UNL     1      -8.701  12.325  66.646  1.00  0.00    -0.132 C  
HETATM   21  O   UNL     1      -7.047  13.810  67.726  1.00  0.00    -0.134 OA 
HETATM   22  C   UNL     1      -7.209  13.091  68.954  1.00  0.00    -0.047 C  
HETATM   23  C   UNL     1      -7.657  11.645  68.712  1.00  0.00    -0.119 C  
BRANCH  19  24
HETATM   24  C   UNL     1      -9.369  10.157  67.787  1.00  0.00    -0.141 C  
BRANCH  24  25
HETATM   25  C   UNL     1     -10.346   9.733  68.868  1.00  0.00    -0.210 C  
HETATM   26  O   UNL     1     -10.356   6.374  71.217  1.00  0.00    -0.201 OA 
HETATM   27  O   UNL     1     -10.983   8.100  72.851  1.00  0.00    -0.364 OA 
HETATM   28  N   UNL     1     -11.045  10.592  69.568  1.00  0.00    -0.249 NA 
HETATM   29  O   UNL     1     -12.840   6.690  71.740  1.00  0.00    -0.335 OA 
HETATM   30  C   UNL     1     -11.692   9.837  70.520  1.00  0.00    -0.268 C  
HETATM   31  O   UNL     1     -12.255  10.273  71.515  1.00  0.00    -0.374 OA 
HETATM   32  P   UNL     1     -11.554   7.407  71.526  1.00  0.00    -0.304 P  
HETATM   33  N   UNL     1     -11.454   8.510  70.279  1.00  0.00    -0.135 N  
HETATM   34  N   UNL     1     -10.564   8.413  69.188  1.00  0.00    -0.199 NA 
ENDBRANCH  24  25
ENDBRANCH  19  24
BRANCH  20  35
HETATM   35  C   UNL     1      -9.872  12.336  65.665  1.00  0.00    -0.247 A  
HETATM   36  C   UNL     1     -12.221  12.825  65.211  1.00  0.00    -0.535 A  
HETATM   37  F   UNL     1     -13.217  11.964  63.253  1.00  0.00    -0.595 F  
HETATM   38  C   UNL     1     -11.096  12.935  66.034  1.00  0.00    -0.308 A  
HETATM   39  C   UNL     1     -10.932  11.527  63.628  1.00  0.00    -0.482 A  
HETATM   40  C   UNL     1      -9.802  11.649  64.443  1.00  0.00    -0.253 A  
HETATM   41  C   UNL     1     -12.130  12.107  64.021  1.00  0.00    -0.443 A  
ENDBRANCH  20  35
ENDBRANCH  17  18
ENDBRANCH   2  17
TORSDOF 6
ENDMDL
MODEL       62
REMARK 921   NORMALIZED FREE ENERGY PREDICTED BY IDOCK:   -7.71 KCAL/MOL
REMARK 922        TOTAL FREE ENERGY PREDICTED BY IDOCK:  -11.32 KCAL/MOL
REMARK 923 INTER-LIGAND FREE ENERGY PREDICTED BY IDOCK:   -9.50 KCAL/MOL
REMARK 924 INTRA-LIGAND FREE ENERGY PREDICTED BY IDOCK:   -1.82 KCAL/MOL
REMARK 927      BINDING AFFINITY PREDICTED BY RF-SCORE:    0.00 PKD
ROOT
HETATM    1  C   UNL     1      -7.540  10.163  65.730  1.00  0.00    -0.134 C  
HETATM    2  C   UNL     1      -8.863  10.088  66.479  1.00  0.00    -0.139 C  
ENDROOT
BRANCH   2   3
HETATM    3  C   UNL     1      -9.710  11.331  66.296  1.00  0.00    -0.246 A  
HETATM    4  F   UNL     1     -11.593  13.405  69.526  1.00  0.00    -0.298 F  
HETATM    5  F   UNL     1     -12.395  14.895  68.164  1.00  0.00    -0.249 F  
HETATM    6  C   UNL     1     -10.394  11.477  65.083  1.00  0.00    -0.329 A  
HETATM    7  C   UNL     1     -11.435  12.394  64.951  1.00  0.00    -0.378 A  
HETATM    8  F   UNL     1     -10.287  14.933  68.695  1.00  0.00    -0.213 F  
HETATM    9  C   UNL     1     -12.309  12.357  63.717  1.00  0.00    -0.528 C  
HETATM   10  C   UNL     1     -11.727  13.249  66.024  1.00  0.00    -0.408 A  
HETATM   11  C   UNL     1     -11.314  14.096  68.387  1.00  0.00    -0.287 C  
HETATM   12  C   UNL     1     -10.993  13.185  67.223  1.00  0.00    -0.288 A  
HETATM   13  F   UNL     1     -11.822  11.547  62.735  1.00  0.00    -0.178 F  
HETATM   14  F   UNL     1     -13.554  11.892  63.998  1.00  0.00    -0.371 F  
HETATM   15  C   UNL     1      -9.987  12.214  67.352  1.00  0.00    -0.206 A  
HETATM   16  F   UNL     1     -12.474  13.580  63.151  1.00  0.00    -0.563 F  
ENDBRANCH   2   3
BRANCH   2  17
HETATM   17  O   UNL     1      -8.641   9.830  67.876  1.00  0.00    -0.124 OA 
BRANCH  17  18
HETATM   18  C   UNL     1      -7.464   9.028  68.141  1.00  0.00    -0.084 C  
HETATM   19  N   UNL     1      -8.267   8.054  70.328  1.00  0.00    -0.120 NA 
HETATM   20  C   UNL     1      -7.777   7.705  68.968  1.00  0.00    -0.117 C  
HETATM   21  O   UNL     1      -6.450   9.785  68.824  1.00  0.00    -0.046 OA 
HETATM   22  C   UNL     1      -6.907  10.161  70.129  1.00  0.00    -0.146 C  
HETATM   23  C   UNL     1      -7.272   8.939  70.979  1.00  0.00    -0.097 C  
BRANCH  19  24
HETATM   24  C   UNL     1      -8.693   6.957  71.215  1.00  0.00    -0.134 C  
BRANCH  24  25
HETATM   25  C   UNL     1     -10.124   7.061  71.709  1.00  0.00    -0.184 C  
HETATM   26  O   UNL     1     -12.915   9.990  71.053  1.00  0.00    -0.358 OA 
HETATM   27  O   UNL     1     -14.290   7.964  70.832  1.00  0.00    -0.121 OA 
HETATM   28  N   UNL     1     -10.852   6.010  71.997  1.00  0.00    -0.241 NA 
HETATM   29  O   UNL     1     -14.266   9.224  73.087  1.00  0.00    -0.275 OA 
HETATM   30  C   UNL     1     -12.107   6.507  72.269  1.00  0.00    -0.193 C  
HETATM   31  O   UNL     1     -13.135   5.847  72.350  1.00  0.00     0.175 OA 
HETATM   32  P   UNL     1     -13.444   8.752  71.939  1.00  0.00    -0.444 P  
HETATM   33  N   UNL     1     -12.061   7.876  72.257  1.00  0.00    -0.325 N  
HETATM   34  N   UNL     1     -10.757   8.269  71.888  1.00  0.00    -0.261 NA 
ENDBRANCH  24  25
ENDBRANCH  19  24
BRANCH  20  35
HETATM   35  C   UNL     1      -8.670   6.785  68.137  1.00  0.00    -0.122 A  
HETATM   36  C   UNL     1      -8.880   5.028  66.454  1.00  0.00    -0.115 A  
HETATM   37  F   UNL     1     -10.994   4.596  65.499  1.00  0.00    -0.342 F  
HETATM   38  C   UNL     1      -8.092   5.780  67.332  1.00  0.00    -0.102 A  
HETATM   39  C   UNL     1     -10.839   6.255  67.167  1.00  0.00    -0.460 A  
HETATM   40  C   UNL     1     -10.055   6.996  68.056  1.00  0.00    -0.199 A  
HETATM   41  C   UNL     1     -10.246   5.286  66.370  1.00  0.00    -0.249 A  
ENDBRANCH  20  35
ENDBRANCH  17  18
ENDBRANCH   2  17
TORSDOF 6
ENDMDL
MODEL       63
REMARK 921   NORMALIZED FREE ENERGY PREDICTED BY IDOCK:   -7.69 KCAL/MOL
REMARK 922        TOTAL FREE ENERGY PREDICTED BY IDOCK:  -11.29 KCAL/MOL
REMARK 923 INTER-LIGAND FREE ENERGY PREDICTED BY IDOCK:   -9.98 KCAL/MOL
REMARK 924 INTRA-LIGAND FREE ENERGY PREDICTED BY IDOCK:   -1.31 KCAL/MOL
REMARK 927      BINDING AFFINITY PREDICTED BY RF-SCORE:    0.00 PKD
ROOT
HETATM    1  C   UNL     1     -10.040  10.754  65.887  1.00  0.00    -0.314 C  
HETATM    2  C   UNL     1     -10.668  11.063  67.240  1.00  0.00    -0.265 C  
ENDROOT
BRANCH   2   3
HETATM    3  C   UNL     1     -11.067  12.517  67.379  1.00  0.00    -0.317 A  
HETATM    4  F   UNL     1      -9.043  15.722  65.400  1.00  0.00    -0.244 F  
HETATM    5  F   UNL     1     -10.418  17.176  66.245  1.00  0.00    -0.311 F  
HETATM    6  C   UNL     1     -11.669  12.914  68.580  1.00  0.00    -0.374 A  
HETATM    7  C   UNL     1     -11.764  14.260  68.927  1.00  0.00    -0.363 A  
HETATM    8  F   UNL     1     -11.064  15.894  64.611  1.00  0.00    -0.427 F  
HETATM    9  C   UNL     1     -12.193  14.641  70.326  1.00  0.00    -0.331 C  
HETATM   10  C   UNL     1     -11.338  15.229  68.006  1.00  0.00    -0.345 A  
HETATM   11  C   UNL     1     -10.341  15.902  65.764  1.00  0.00    -0.376 C  
HETATM   12  C   UNL     1     -10.815  14.860  66.753  1.00  0.00    -0.320 A  
HETATM   13  F   UNL     1     -12.670  13.589  71.048  1.00  0.00    -0.386 F  
HETATM   14  F   UNL     1     -11.158  15.147  71.047  1.00  0.00    -0.323 F  
HETATM   15  C   UNL     1     -10.675  13.496  66.452  1.00  0.00    -0.287 A  
HETATM   16  F   UNL     1     -13.169  15.584  70.340  1.00  0.00    -0.410 F  
ENDBRANCH   2   3
BRANCH   2  17
HETATM   17  O   UNL     1      -9.787  10.676  68.308  1.00  0.00    -0.155 OA 
BRANCH  17  18
HETATM   18  C   UNL     1      -9.436   9.271  68.295  1.00  0.00    -0.138 C  
HETATM   19  N   UNL     1      -8.044   9.303  70.401  1.00  0.00    -0.143 NA 
HETATM   20  C   UNL     1      -9.218   8.663  69.750  1.00  0.00    -0.154 C  
HETATM   21  O   UNL     1      -8.266   9.024  67.497  1.00  0.00    -0.108 OA 
HETATM   22  C   UNL     1      -7.122   9.654  68.086  1.00  0.00    -0.079 C  
HETATM   23  C   UNL     1      -6.867   9.153  69.512  1.00  0.00    -0.048 C  
BRANCH  19  24
HETATM   24  C   UNL     1      -7.734   8.932  71.793  1.00  0.00     0.034 C  
BRANCH  24  25
HETATM   25  C   UNL     1      -7.789   7.442  72.080  1.00  0.00    -0.090 C  
HETATM   26  O   UNL     1     -10.882   5.162  73.506  1.00  0.00    -0.258 OA 
HETATM   27  O   UNL     1      -9.967   3.688  71.765  1.00  0.00    -0.174 OA 
HETATM   28  N   UNL     1      -7.039   6.572  71.450  1.00  0.00    -0.075 NA 
HETATM   29  O   UNL     1      -9.256   3.321  74.222  1.00  0.00    -0.088 OA 
HETATM   30  C   UNL     1      -7.476   5.341  71.885  1.00  0.00    -0.096 C  
HETATM   31  O   UNL     1      -7.204   4.264  71.370  1.00  0.00    -0.041 OA 
HETATM   32  P   UNL     1      -9.542   4.331  73.168  1.00  0.00    -0.128 P  
HETATM   33  N   UNL     1      -8.408   5.518  72.873  1.00  0.00    -0.116 N  
HETATM   34  N   UNL     1      -8.634   6.903  73.021  1.00  0.00    -0.118 NA 
ENDBRANCH  24  25
ENDBRANCH  19  24
BRANCH  20  35
HETATM   35  C   UNL     1     -10.534   8.707  70.523  1.00  0.00    -0.237 A  
HETATM   36  C   UNL     1     -12.516   7.548  71.355  1.00  0.00    -0.382 A  
HETATM   37  F   UNL     1     -14.330   8.815  72.174  1.00  0.00    -0.444 F  
HETATM   38  C   UNL     1     -11.241   7.513  70.782  1.00  0.00    -0.287 A  
HETATM   39  C   UNL     1     -12.408   9.964  71.438  1.00  0.00    -0.498 A  
HETATM   40  C   UNL     1     -11.127   9.929  70.878  1.00  0.00    -0.418 A  
HETATM   41  C   UNL     1     -13.093   8.778  71.664  1.00  0.00    -0.352 A  
ENDBRANCH  20  35
ENDBRANCH  17  18
ENDBRANCH   2  17
TORSDOF 6
ENDMDL
MODEL       64
REMARK 921   NORMALIZED FREE ENERGY PREDICTED BY IDOCK:   -7.69 KCAL/MOL
REMARK 922        TOTAL FREE ENERGY PREDICTED BY IDOCK:  -11.29 KCAL/MOL
REMARK 923 INTER-LIGAND FREE ENERGY PREDICTED BY IDOCK:   -9.15 KCAL/MOL
REMARK 924 INTRA-LIGAND FREE ENERGY PREDICTED BY IDOCK:   -2.14 KCAL/MOL
REMARK 927      BINDING AFFINITY PREDICTED BY RF-SCORE:    0.00 PKD
ROOT
HETATM    1  C   UNL     1      -7.523   9.810  64.993  1.00  0.00    -0.127 C  
HETATM    2  C   UNL     1      -8.577   9.289  65.961  1.00  0.00    -0.144 C  
ENDROOT
BRANCH   2   3
HETATM    3  C   UNL     1      -9.786  10.198  66.051  1.00  0.00    -0.308 A  
HETATM    4  F   UNL     1     -11.058  12.758  62.871  1.00  0.00    -0.333 F  
HETATM    5  F   UNL     1     -12.751  13.450  64.042  1.00  0.00    -0.332 F  
HETATM    6  C   UNL     1     -10.142  10.684  67.315  1.00  0.00    -0.238 A  
HETATM    7  C   UNL     1     -11.011  11.764  67.452  1.00  0.00    -0.314 A  
HETATM    8  F   UNL     1     -12.789  11.469  63.147  1.00  0.00    -0.653 F  
HETATM    9  C   UNL     1     -11.182  12.416  68.806  1.00  0.00    -0.273 C  
HETATM   10  C   UNL     1     -11.613  12.301  66.304  1.00  0.00    -0.446 A  
HETATM   11  C   UNL     1     -11.980  12.356  63.787  1.00  0.00    -0.514 C  
HETATM   12  C   UNL     1     -11.344  11.771  65.028  1.00  0.00    -0.288 A  
HETATM   13  F   UNL     1     -10.615  11.707  69.822  1.00  0.00    -0.099 F  
HETATM   14  F   UNL     1     -10.606  13.646  68.846  1.00  0.00    -0.240 F  
HETATM   15  C   UNL     1     -10.420  10.720  64.912  1.00  0.00    -0.324 A  
HETATM   16  F   UNL     1     -12.484  12.591  69.147  1.00  0.00    -0.181 F  
ENDBRANCH   2   3
BRANCH   2  17
HETATM   17  O   UNL     1      -8.008   9.076  67.264  1.00  0.00    -0.099 OA 
BRANCH  17  18
HETATM   18  C   UNL     1      -6.939   8.099  67.281  1.00  0.00    -0.075 C  
HETATM   19  N   UNL     1      -7.482   7.118  69.543  1.00  0.00    -0.093 NA 
HETATM   20  C   UNL     1      -7.299   6.786  68.105  1.00  0.00    -0.097 C  
HETATM   21  O   UNL     1      -5.717   8.660  67.792  1.00  0.00    -0.038 OA 
HETATM   22  C   UNL     1      -5.874   9.017  69.171  1.00  0.00    -0.039 C  
HETATM   23  C   UNL     1      -6.265   7.809  70.030  1.00  0.00    -0.030 C  
BRANCH  19  24
HETATM   24  C   UNL     1      -7.907   6.041  70.455  1.00  0.00    -0.102 C  
BRANCH  24  25
HETATM   25  C   UNL     1      -9.187   6.325  71.220  1.00  0.00    -0.152 C  
HETATM   26  O   UNL     1     -12.104   9.113  70.497  1.00  0.00    -0.141 OA 
HETATM   27  O   UNL     1     -13.457   7.156  71.113  1.00  0.00    -0.316 OA 
HETATM   28  N   UNL     1      -9.810   5.411  71.921  1.00  0.00    -0.167 NA 
HETATM   29  O   UNL     1     -12.935   8.936  72.911  1.00  0.00    -0.330 OA 
HETATM   30  C   UNL     1     -10.978   6.012  72.336  1.00  0.00    -0.260 C  
HETATM   31  O   UNL     1     -11.947   5.437  72.813  1.00  0.00    -0.232 OA 
HETATM   32  P   UNL     1     -12.393   8.158  71.764  1.00  0.00    -0.349 P  
HETATM   33  N   UNL     1     -10.959   7.332  71.969  1.00  0.00    -0.233 N  
HETATM   34  N   UNL     1      -9.781   7.565  71.226  1.00  0.00    -0.165 NA 
ENDBRANCH  24  25
ENDBRANCH  19  24
BRANCH  20  35
HETATM   35  C   UNL     1      -8.453   6.056  67.422  1.00  0.00    -0.104 A  
HETATM   36  C   UNL     1      -9.228   4.517  65.692  1.00  0.00    -0.149 A  
HETATM   37  F   UNL     1     -11.533   4.410  65.197  1.00  0.00    -0.312 F  
HETATM   38  C   UNL     1      -8.187   5.087  66.431  1.00  0.00    -0.108 A  
HETATM   39  C   UNL     1     -10.826   5.859  66.916  1.00  0.00    -0.376 A  
HETATM   40  C   UNL     1      -9.787   6.418  67.666  1.00  0.00    -0.138 A  
HETATM   41  C   UNL     1     -10.539   4.923  65.933  1.00  0.00    -0.230 A  
ENDBRANCH  20  35
ENDBRANCH  17  18
ENDBRANCH   2  17
TORSDOF 6
ENDMDL
MODEL       65
REMARK 921   NORMALIZED FREE ENERGY PREDICTED BY IDOCK:   -7.68 KCAL/MOL
REMARK 922        TOTAL FREE ENERGY PREDICTED BY IDOCK:  -11.28 KCAL/MOL
REMARK 923 INTER-LIGAND FREE ENERGY PREDICTED BY IDOCK:   -8.80 KCAL/MOL
REMARK 924 INTRA-LIGAND FREE ENERGY PREDICTED BY IDOCK:   -2.48 KCAL/MOL
REMARK 927      BINDING AFFINITY PREDICTED BY RF-SCORE:    0.00 PKD
ROOT
HETATM    1  C   UNL     1     -13.052  10.831  70.715  1.00  0.00    -0.245 C  
HETATM    2  C   UNL     1     -11.685  11.225  70.169  1.00  0.00    -0.343 C  
ENDROOT
BRANCH   2   3
HETATM    3  C   UNL     1     -11.772  12.281  69.087  1.00  0.00    -0.377 A  
HETATM    4  F   UNL     1     -10.698  11.577  65.008  1.00  0.00    -0.314 F  
HETATM    5  F   UNL     1     -11.243  13.608  64.465  1.00  0.00    -0.334 F  
HETATM    6  C   UNL     1     -11.608  13.618  69.469  1.00  0.00    -0.361 A  
HETATM    7  C   UNL     1     -11.342  14.609  68.526  1.00  0.00    -0.305 A  
HETATM    8  F   UNL     1     -12.796  12.134  64.844  1.00  0.00    -0.460 F  
HETATM    9  C   UNL     1     -10.930  15.988  68.989  1.00  0.00    -0.296 C  
HETATM   10  C   UNL     1     -11.343  14.267  67.165  1.00  0.00    -0.352 A  
HETATM   11  C   UNL     1     -11.584  12.573  65.282  1.00  0.00    -0.364 C  
HETATM   12  C   UNL     1     -11.597  12.947  66.748  1.00  0.00    -0.416 A  
HETATM   13  F   UNL     1     -11.087  16.176  70.329  1.00  0.00    -0.296 F  
HETATM   14  F   UNL     1      -9.619  16.232  68.730  1.00  0.00    -0.205 F  
HETATM   15  C   UNL     1     -11.803  11.957  67.721  1.00  0.00    -0.289 A  
HETATM   16  F   UNL     1     -11.632  16.980  68.383  1.00  0.00    -0.186 F  
ENDBRANCH   2   3
BRANCH   2  17
HETATM   17  O   UNL     1     -10.978  10.068  69.691  1.00  0.00    -0.237 OA 
BRANCH  17  18
HETATM   18  C   UNL     1     -10.060   9.504  70.660  1.00  0.00    -0.286 C  
HETATM   19  N   UNL     1      -8.921   7.900  69.076  1.00  0.00    -0.145 NA 
HETATM   20  C   UNL     1      -8.684   9.026  70.018  1.00  0.00    -0.157 C  
HETATM   21  O   UNL     1     -10.655   8.410  71.377  1.00  0.00    -0.213 OA 
HETATM   22  C   UNL     1     -10.922   7.319  70.487  1.00  0.00    -0.260 C  
HETATM   23  C   UNL     1      -9.648   6.825  69.793  1.00  0.00    -0.150 C  
BRANCH  19  24
HETATM   24  C   UNL     1      -7.773   7.377  68.316  1.00  0.00    -0.120 C  
BRANCH  24  25
HETATM   25  C   UNL     1      -7.945   7.403  66.808  1.00  0.00    -0.115 C  
HETATM   26  O   UNL     1      -7.853  10.576  64.216  1.00  0.00    -0.099 OA 
HETATM   27  O   UNL     1      -6.589   8.891  62.950  1.00  0.00    -0.091 OA 
HETATM   28  N   UNL     1      -7.649   6.381  66.044  1.00  0.00    -0.085 NA 
HETATM   29  O   UNL     1      -9.100   9.221  62.439  1.00  0.00    -0.251 OA 
HETATM   30  C   UNL     1      -7.807   6.839  64.755  1.00  0.00    -0.119 C  
HETATM   31  O   UNL     1      -7.407   6.278  63.744  1.00  0.00    -0.057 OA 
HETATM   32  P   UNL     1      -8.068   9.143  63.508  1.00  0.00    -0.177 P  
HETATM   33  N   UNL     1      -8.324   8.107  64.789  1.00  0.00    -0.139 N  
HETATM   34  N   UNL     1      -8.425   8.505  66.140  1.00  0.00    -0.124 NA 
ENDBRANCH  24  25
ENDBRANCH  19  24
BRANCH  20  35
HETATM   35  C   UNL     1      -7.934  10.234  69.462  1.00  0.00    -0.171 A  
HETATM   36  C   UNL     1      -7.610  11.854  67.663  1.00  0.00    -0.136 A  
HETATM   37  F   UNL     1      -5.663  13.187  67.652  1.00  0.00    -0.108 F  
HETATM   38  C   UNL     1      -8.367  10.844  68.265  1.00  0.00    -0.129 A  
HETATM   39  C   UNL     1      -5.975  11.680  69.437  1.00  0.00    -0.079 A  
HETATM   40  C   UNL     1      -6.739  10.681  70.048  1.00  0.00    -0.156 A  
HETATM   41  C   UNL     1      -6.411  12.250  68.250  1.00  0.00    -0.055 A  
ENDBRANCH  20  35
ENDBRANCH  17  18
ENDBRANCH   2  17
TORSDOF 6
ENDMDL
MODEL       66
REMARK 921   NORMALIZED FREE ENERGY PREDICTED BY IDOCK:   -7.68 KCAL/MOL
REMARK 922        TOTAL FREE ENERGY PREDICTED BY IDOCK:  -11.28 KCAL/MOL
REMARK 923 INTER-LIGAND FREE ENERGY PREDICTED BY IDOCK:   -9.63 KCAL/MOL
REMARK 924 INTRA-LIGAND FREE ENERGY PREDICTED BY IDOCK:   -1.65 KCAL/MOL
REMARK 927      BINDING AFFINITY PREDICTED BY RF-SCORE:    0.00 PKD
ROOT
HETATM    1  C   UNL     1      -8.953   9.377  64.073  1.00  0.00    -0.174 C  
HETATM    2  C   UNL     1      -9.122   9.792  65.529  1.00  0.00    -0.196 C  
ENDROOT
BRANCH   2   3
HETATM    3  C   UNL     1      -9.241   8.605  66.463  1.00  0.00    -0.236 A  
HETATM    4  F   UNL     1     -10.374   4.688  65.177  1.00  0.00    -0.195 F  
HETATM    5  F   UNL     1     -10.162   3.913  67.195  1.00  0.00    -0.165 F  
HETATM    6  C   UNL     1      -9.585   8.861  67.797  1.00  0.00    -0.176 A  
HETATM    7  C   UNL     1     -10.035   7.840  68.631  1.00  0.00    -0.191 A  
HETATM    8  F   UNL     1      -8.392   4.346  66.007  1.00  0.00    -0.110 F  
HETATM    9  C   UNL     1     -10.627   8.185  69.979  1.00  0.00    -0.239 C  
HETATM   10  C   UNL     1     -10.043   6.523  68.149  1.00  0.00    -0.170 A  
HETATM   11  C   UNL     1      -9.635   4.809  66.313  1.00  0.00    -0.178 C  
HETATM   12  C   UNL     1      -9.614   6.226  66.841  1.00  0.00    -0.173 A  
HETATM   13  F   UNL     1     -10.441   9.488  70.332  1.00  0.00    -0.236 F  
HETATM   14  F   UNL     1     -11.970   7.982  70.004  1.00  0.00     0.034 F  
HETATM   15  C   UNL     1      -9.221   7.280  66.001  1.00  0.00    -0.079 A  
HETATM   16  F   UNL     1     -10.107   7.443  70.990  1.00  0.00    -0.189 F  
ENDBRANCH   2   3
BRANCH   2  17
HETATM   17  O   UNL     1     -10.253  10.667  65.678  1.00  0.00    -0.255 OA 
BRANCH  17  18
HETATM   18  C   UNL     1     -10.160  11.879  64.890  1.00  0.00    -0.263 C  
HETATM   19  N   UNL     1     -11.726  13.263  66.307  1.00  0.00    -0.351 NA 
HETATM   20  C   UNL     1     -10.348  13.205  65.751  1.00  0.00    -0.289 C  
HETATM   21  O   UNL     1     -11.104  11.879  63.806  1.00  0.00    -0.365 OA 
HETATM   22  C   UNL     1     -12.443  11.906  64.314  1.00  0.00    -0.188 C  
HETATM   23  C   UNL     1     -12.695  13.136  65.193  1.00  0.00    -0.405 C  
BRANCH  19  24
HETATM   24  C   UNL     1     -12.064  14.380  67.207  1.00  0.00    -0.323 C  
BRANCH  24  25
HETATM   25  C   UNL     1     -12.094  14.020  68.681  1.00  0.00    -0.297 C  
HETATM   26  O   UNL     1     -13.859  15.979  71.819  1.00  0.00    -0.270 OA 
HETATM   27  O   UNL     1     -14.397  13.642  72.355  1.00  0.00    -0.661 OA 
HETATM   28  N   UNL     1     -12.002  12.786  69.111  1.00  0.00    -0.277 NA 
HETATM   29  O   UNL     1     -12.359  14.751  73.490  1.00  0.00    -0.398 OA 
HETATM   30  C   UNL     1     -12.208  12.862  70.470  1.00  0.00    -0.314 C  
HETATM   31  O   UNL     1     -12.437  11.917  71.212  1.00  0.00    -0.312 OA 
HETATM   32  P   UNL     1     -13.124  14.602  72.222  1.00  0.00    -0.439 P  
HETATM   33  N   UNL     1     -12.296  14.179  70.837  1.00  0.00    -0.346 N  
HETATM   34  N   UNL     1     -12.224  14.968  69.669  1.00  0.00    -0.285 NA 
ENDBRANCH  24  25
ENDBRANCH  19  24
BRANCH  20  35
HETATM   35  C   UNL     1      -9.202  13.329  66.752  1.00  0.00    -0.237 A  
HETATM   36  C   UNL     1      -8.029  12.466  68.712  1.00  0.00     0.048 A  
HETATM   37  F   UNL     1      -6.438  13.832  69.794  1.00  0.00    -0.119 F  
HETATM   38  C   UNL     1      -8.975  12.304  67.696  1.00  0.00    -0.181 A  
HETATM   39  C   UNL     1      -7.505  14.672  67.868  1.00  0.00    -0.158 A  
HETATM   40  C   UNL     1      -8.440  14.504  66.842  1.00  0.00    -0.179 A  
HETATM   41  C   UNL     1      -7.313  13.658  68.796  1.00  0.00    -0.093 A  
ENDBRANCH  20  35
ENDBRANCH  17  18
ENDBRANCH   2  17
TORSDOF 6
ENDMDL
MODEL       67
REMARK 921   NORMALIZED FREE ENERGY PREDICTED BY IDOCK:   -7.68 KCAL/MOL
REMARK 922        TOTAL FREE ENERGY PREDICTED BY IDOCK:  -11.28 KCAL/MOL
REMARK 923 INTER-LIGAND FREE ENERGY PREDICTED BY IDOCK:   -9.74 KCAL/MOL
REMARK 924 INTRA-LIGAND FREE ENERGY PREDICTED BY IDOCK:   -1.54 KCAL/MOL
REMARK 927      BINDING AFFINITY PREDICTED BY RF-SCORE:    0.00 PKD
ROOT
HETATM    1  C   UNL     1     -12.769  12.740  70.392  1.00  0.00     0.003 C  
HETATM    2  C   UNL     1     -11.659  11.761  70.032  1.00  0.00    -0.236 C  
ENDROOT
BRANCH   2   3
HETATM    3  C   UNL     1     -11.175  11.927  68.606  1.00  0.00    -0.311 A  
HETATM    4  F   UNL     1     -13.405  13.960  65.575  1.00  0.00    -0.491 F  
HETATM    5  F   UNL     1     -11.825  13.626  64.123  1.00  0.00    -0.394 F  
HETATM    6  C   UNL     1     -10.329  10.938  68.087  1.00  0.00    -0.202 A  
HETATM    7  C   UNL     1     -10.107  10.829  66.717  1.00  0.00    -0.267 A  
HETATM    8  F   UNL     1     -11.575  15.134  65.670  1.00  0.00    -0.335 F  
HETATM    9  C   UNL     1      -9.392   9.612  66.172  1.00  0.00    -0.194 C  
HETATM   10  C   UNL     1     -10.662  11.791  65.860  1.00  0.00    -0.328 A  
HETATM   11  C   UNL     1     -12.053  13.880  65.442  1.00  0.00    -0.408 C  
HETATM   12  C   UNL     1     -11.441  12.849  66.364  1.00  0.00    -0.389 A  
HETATM   13  F   UNL     1      -8.828   8.840  67.142  1.00  0.00    -0.123 F  
HETATM   14  F   UNL     1     -10.238   8.796  65.492  1.00  0.00    -0.077 F  
HETATM   15  C   UNL     1     -11.699  12.904  67.743  1.00  0.00    -0.412 A  
HETATM   16  F   UNL     1      -8.391   9.930  65.312  1.00  0.00    -0.128 F  
ENDBRANCH   2   3
BRANCH   2  17
HETATM   17  O   UNL     1     -12.082  10.407  70.267  1.00  0.00    -0.277 OA 
BRANCH  17  18
HETATM   18  C   UNL     1     -12.320  10.105  71.663  1.00  0.00    -0.377 C  
HETATM   19  N   UNL     1     -12.358   7.592  71.411  1.00  0.00    -0.325 NA 
HETATM   20  C   UNL     1     -11.692   8.716  72.122  1.00  0.00    -0.371 C  
HETATM   21  O   UNL     1     -13.723  10.117  71.976  1.00  0.00    -0.284 OA 
HETATM   22  C   UNL     1     -14.397   9.062  71.280  1.00  0.00     0.012 C  
HETATM   23  C   UNL     1     -13.820   7.687  71.636  1.00  0.00    -0.389 C  
BRANCH  19  24
HETATM   24  C   UNL     1     -11.851   6.228  71.641  1.00  0.00    -0.256 C  
BRANCH  24  25
HETATM   25  C   UNL     1     -10.885   5.724  70.585  1.00  0.00    -0.267 C  
HETATM   26  O   UNL     1      -9.159   2.030  70.165  1.00  0.00    -0.082 OA 
HETATM   27  O   UNL     1      -9.728   2.557  67.833  1.00  0.00    -0.106 OA 
HETATM   28  N   UNL     1     -10.842   6.216  69.372  1.00  0.00    -0.315 NA 
HETATM   29  O   UNL     1      -7.325   3.005  68.671  1.00  0.00    -0.049 OA 
HETATM   30  C   UNL     1      -9.952   5.415  68.691  1.00  0.00    -0.170 C  
HETATM   31  O   UNL     1      -9.804   5.384  67.476  1.00  0.00    -0.133 OA 
HETATM   32  P   UNL     1      -8.773   3.082  69.006  1.00  0.00    -0.108 P  
HETATM   33  N   UNL     1      -9.385   4.528  69.567  1.00  0.00    -0.136 N  
HETATM   34  N   UNL     1      -9.987   4.711  70.830  1.00  0.00    -0.206 NA 
ENDBRANCH  24  25
ENDBRANCH  19  24
BRANCH  20  35
HETATM   35  C   UNL     1     -10.171   8.784  72.015  1.00  0.00    -0.401 A  
HETATM   36  C   UNL     1      -8.181   9.178  70.656  1.00  0.00    -0.220 A  
HETATM   37  F   UNL     1      -6.071   8.529  71.490  1.00  0.00    -0.035 F  
HETATM   38  C   UNL     1      -9.567   9.248  70.827  1.00  0.00    -0.341 A  
HETATM   39  C   UNL     1      -7.963   8.192  72.855  1.00  0.00    -0.211 A  
HETATM   40  C   UNL     1      -9.347   8.276  73.032  1.00  0.00    -0.310 A  
HETATM   41  C   UNL     1      -7.394   8.635  71.669  1.00  0.00    -0.093 A  
ENDBRANCH  20  35
ENDBRANCH  17  18
ENDBRANCH   2  17
TORSDOF 6
ENDMDL
MODEL       68
REMARK 921   NORMALIZED FREE ENERGY PREDICTED BY IDOCK:   -7.67 KCAL/MOL
REMARK 922        TOTAL FREE ENERGY PREDICTED BY IDOCK:  -11.27 KCAL/MOL
REMARK 923 INTER-LIGAND FREE ENERGY PREDICTED BY IDOCK:   -9.98 KCAL/MOL
REMARK 924 INTRA-LIGAND FREE ENERGY PREDICTED BY IDOCK:   -1.29 KCAL/MOL
REMARK 927      BINDING AFFINITY PREDICTED BY RF-SCORE:    0.00 PKD
ROOT
HETATM    1  C   UNL     1      -6.839  14.981  67.359  1.00  0.00    -0.144 C  
HETATM    2  C   UNL     1      -8.028  15.637  66.669  1.00  0.00    -0.150 C  
ENDROOT
BRANCH   2   3
HETATM    3  C   UNL     1      -7.997  17.148  66.766  1.00  0.00    -0.271 A  
HETATM    4  F   UNL     1     -11.469  19.541  67.480  1.00  0.00    -0.430 F  
HETATM    5  F   UNL     1     -10.279  21.357  67.463  1.00  0.00    -0.284 F  
HETATM    6  C   UNL     1      -7.010  17.826  66.040  1.00  0.00    -0.335 A  
HETATM    7  C   UNL     1      -7.104  19.196  65.803  1.00  0.00    -0.296 A  
HETATM    8  F   UNL     1     -10.210  20.032  69.186  1.00  0.00    -0.513 F  
HETATM    9  C   UNL     1      -6.161  19.848  64.818  1.00  0.00    -0.278 C  
HETATM   10  C   UNL     1      -8.156  19.915  66.391  1.00  0.00    -0.357 A  
HETATM   11  C   UNL     1     -10.253  20.044  67.826  1.00  0.00    -0.409 C  
HETATM   12  C   UNL     1      -9.110  19.274  67.202  1.00  0.00    -0.346 A  
HETATM   13  F   UNL     1      -5.142  19.034  64.426  1.00  0.00    -0.172 F  
HETATM   14  F   UNL     1      -6.802  20.215  63.677  1.00  0.00     0.120 F  
HETATM   15  C   UNL     1      -9.026  17.883  67.377  1.00  0.00    -0.245 A  
HETATM   16  F   UNL     1      -5.579  20.972  65.310  1.00  0.00    -0.230 F  
ENDBRANCH   2   3
BRANCH   2  17
HETATM   17  O   UNL     1      -9.265  15.122  67.191  1.00  0.00    -0.198 OA 
BRANCH  17  18
HETATM   18  C   UNL     1      -9.114  14.392  68.434  1.00  0.00    -0.193 C  
HETATM   19  N   UNL     1     -11.235  13.036  68.228  1.00  0.00    -0.258 NA 
HETATM   20  C   UNL     1      -9.760  12.938  68.391  1.00  0.00    -0.186 C  
HETATM   21  O   UNL     1      -9.661  15.121  69.546  1.00  0.00    -0.212 OA 
HETATM   22  C   UNL     1     -11.080  15.257  69.401  1.00  0.00    -0.280 C  
HETATM   23  C   UNL     1     -11.776  13.894  69.309  1.00  0.00    -0.334 C  
BRANCH  19  24
HETATM   24  C   UNL     1     -12.002  11.787  68.080  1.00  0.00    -0.125 C  
BRANCH  24  25
HETATM   25  C   UNL     1     -11.613  10.685  69.049  1.00  0.00    -0.261 C  
HETATM   26  O   UNL     1     -13.521   9.386  72.436  1.00  0.00    -0.457 OA 
HETATM   27  O   UNL     1     -12.827   7.253  71.433  1.00  0.00    -0.366 OA 
HETATM   28  N   UNL     1     -10.893   9.651  68.693  1.00  0.00    -0.200 NA 
HETATM   29  O   UNL     1     -11.367   8.301  73.289  1.00  0.00    -0.083 OA 
HETATM   30  C   UNL     1     -10.878   8.828  69.797  1.00  0.00    -0.193 C  
HETATM   31  O   UNL     1     -10.518   7.658  69.811  1.00  0.00    -0.222 OA 
HETATM   32  P   UNL     1     -12.179   8.570  72.072  1.00  0.00    -0.406 P  
HETATM   33  N   UNL     1     -11.497   9.464  70.840  1.00  0.00    -0.293 N  
HETATM   34  N   UNL     1     -11.995  10.698  70.370  1.00  0.00    -0.315 NA 
ENDBRANCH  24  25
ENDBRANCH  19  24
BRANCH  20  35
HETATM   35  C   UNL     1      -9.017  12.081  67.368  1.00  0.00    -0.176 A  
HETATM   36  C   UNL     1      -8.965  11.007  65.175  1.00  0.00    -0.159 A  
HETATM   37  F   UNL     1      -7.311   9.385  64.728  1.00  0.00    -0.097 F  
HETATM   38  C   UNL     1      -9.551  11.904  66.074  1.00  0.00    -0.251 A  
HETATM   39  C   UNL     1      -7.293  10.447  66.832  1.00  0.00    -0.106 A  
HETATM   40  C   UNL     1      -7.869  11.355  67.725  1.00  0.00    -0.117 A  
HETATM   41  C   UNL     1      -7.848  10.275  65.572  1.00  0.00    -0.152 A  
ENDBRANCH  20  35
ENDBRANCH  17  18
ENDBRANCH   2  17
TORSDOF 6
ENDMDL
MODEL       69
REMARK 921   NORMALIZED FREE ENERGY PREDICTED BY IDOCK:   -7.66 KCAL/MOL
REMARK 922        TOTAL FREE ENERGY PREDICTED BY IDOCK:  -11.24 KCAL/MOL
REMARK 923 INTER-LIGAND FREE ENERGY PREDICTED BY IDOCK:   -9.11 KCAL/MOL
REMARK 924 INTRA-LIGAND FREE ENERGY PREDICTED BY IDOCK:   -2.14 KCAL/MOL
REMARK 927      BINDING AFFINITY PREDICTED BY RF-SCORE:    0.00 PKD
ROOT
HETATM    1  C   UNL     1     -10.576  13.461  67.609  1.00  0.00    -0.249 C  
HETATM    2  C   UNL     1     -11.144  12.114  68.038  1.00  0.00    -0.244 C  
ENDROOT
BRANCH   2   3
HETATM    3  C   UNL     1     -11.925  12.196  69.333  1.00  0.00    -0.329 A  
HETATM    4  F   UNL     1     -11.205  15.145  72.344  1.00  0.00    -0.514 F  
HETATM    5  F   UNL     1     -12.814  14.355  73.570  1.00  0.00    -0.586 F  
HETATM    6  C   UNL     1     -12.448  11.005  69.853  1.00  0.00    -0.286 A  
HETATM    7  C   UNL     1     -12.880  10.926  71.175  1.00  0.00    -0.508 A  
HETATM    8  F   UNL     1     -13.276  15.534  71.802  1.00  0.00    -0.397 F  
HETATM    9  C   UNL     1     -13.207   9.576  71.773  1.00  0.00    -0.422 C  
HETATM   10  C   UNL     1     -12.883  12.089  71.958  1.00  0.00    -0.251 A  
HETATM   11  C   UNL     1     -12.438  14.574  72.278  1.00  0.00    -0.271 C  
HETATM   12  C   UNL     1     -12.450  13.321  71.432  1.00  0.00    -0.284 A  
HETATM   13  F   UNL     1     -13.257   8.575  70.850  1.00  0.00    -0.148 F  
HETATM   14  F   UNL     1     -12.276   9.193  72.685  1.00  0.00    -0.367 F  
HETATM   15  C   UNL     1     -11.963  13.361  70.116  1.00  0.00    -0.396 A  
HETATM   16  F   UNL     1     -14.404   9.559  72.414  1.00  0.00    -0.370 F  
ENDBRANCH   2   3
BRANCH   2  17
HETATM   17  O   UNL     1     -10.099  11.133  68.139  1.00  0.00    -0.169 OA 
BRANCH  17  18
HETATM   18  C   UNL     1     -10.278   9.997  67.258  1.00  0.00    -0.222 C  
HETATM   19  N   UNL     1      -7.849   9.314  67.172  1.00  0.00    -0.098 NA 
HETATM   20  C   UNL     1      -9.217   8.836  67.504  1.00  0.00    -0.136 C  
HETATM   21  O   UNL     1     -10.241  10.388  65.875  1.00  0.00    -0.254 OA 
HETATM   22  C   UNL     1      -8.940  10.881  65.533  1.00  0.00    -0.197 C  
HETATM   23  C   UNL     1      -7.850   9.832  65.783  1.00  0.00    -0.110 C  
BRANCH  19  24
HETATM   24  C   UNL     1      -6.716   8.404  67.419  1.00  0.00    -0.063 C  
BRANCH  24  25
HETATM   25  C   UNL     1      -6.997   6.944  67.112  1.00  0.00    -0.074 C  
HETATM   26  O   UNL     1      -8.591   4.024  69.505  1.00  0.00    -0.072 OA 
HETATM   27  O   UNL     1      -9.722   3.561  67.372  1.00  0.00    -0.180 OA 
HETATM   28  N   UNL     1      -7.246   6.511  65.901  1.00  0.00    -0.073 NA 
HETATM   29  O   UNL     1      -7.621   2.196  68.000  1.00  0.00    -0.054 OA 
HETATM   30  C   UNL     1      -7.580   5.184  66.056  1.00  0.00    -0.087 C  
HETATM   31  O   UNL     1      -8.108   4.477  65.209  1.00  0.00    -0.100 OA 
HETATM   32  P   UNL     1      -8.251   3.544  68.004  1.00  0.00    -0.086 P  
HETATM   33  N   UNL     1      -7.396   4.825  67.365  1.00  0.00    -0.073 N  
HETATM   34  N   UNL     1      -7.009   5.975  68.087  1.00  0.00    -0.073 NA 
ENDBRANCH  24  25
ENDBRANCH  19  24
BRANCH  20  35
HETATM   35  C   UNL     1      -9.415   8.253  68.901  1.00  0.00    -0.151 A  
HETATM   36  C   UNL     1     -10.514   6.632  70.360  1.00  0.00    -0.249 A  
HETATM   37  F   UNL     1     -10.388   6.917  72.699  1.00  0.00    -0.189 F  
HETATM   38  C   UNL     1     -10.200   7.093  69.078  1.00  0.00    -0.191 A  
HETATM   39  C   UNL     1      -9.262   8.464  71.322  1.00  0.00    -0.228 A  
HETATM   40  C   UNL     1      -8.935   8.918  70.041  1.00  0.00    -0.172 A  
HETATM   41  C   UNL     1     -10.053   7.334  71.471  1.00  0.00    -0.186 A  
ENDBRANCH  20  35
ENDBRANCH  17  18
ENDBRANCH   2  17
TORSDOF 6
ENDMDL
MODEL       70
REMARK 921   NORMALIZED FREE ENERGY PREDICTED BY IDOCK:   -7.65 KCAL/MOL
REMARK 922        TOTAL FREE ENERGY PREDICTED BY IDOCK:  -11.24 KCAL/MOL
REMARK 923 INTER-LIGAND FREE ENERGY PREDICTED BY IDOCK:  -10.83 KCAL/MOL
REMARK 924 INTRA-LIGAND FREE ENERGY PREDICTED BY IDOCK:   -0.41 KCAL/MOL
REMARK 927      BINDING AFFINITY PREDICTED BY RF-SCORE:    0.00 PKD
ROOT
HETATM    1  C   UNL     1     -10.130  15.430  70.057  1.00  0.00    -0.224 C  
HETATM    2  C   UNL     1      -9.186  15.582  68.870  1.00  0.00    -0.218 C  
ENDROOT
BRANCH   2   3
HETATM    3  C   UNL     1      -8.988  17.028  68.464  1.00  0.00    -0.263 A  
HETATM    4  F   UNL     1     -10.940  18.827  65.111  1.00  0.00    -0.421 F  
HETATM    5  F   UNL     1     -10.002  20.740  65.532  1.00  0.00    -0.230 F  
HETATM    6  C   UNL     1      -7.755  17.622  68.758  1.00  0.00    -0.246 A  
HETATM    7  C   UNL     1      -7.364  18.810  68.143  1.00  0.00    -0.281 A  
HETATM    8  F   UNL     1     -11.650  20.046  66.768  1.00  0.00    -0.115 F  
HETATM    9  C   UNL     1      -5.939  19.293  68.294  1.00  0.00    -0.221 C  
HETATM   10  C   UNL     1      -8.269  19.464  67.294  1.00  0.00    -0.311 A  
HETATM   11  C   UNL     1     -10.524  19.631  66.127  1.00  0.00    -0.524 C  
HETATM   12  C   UNL     1      -9.551  18.935  67.053  1.00  0.00    -0.348 A  
HETATM   13  F   UNL     1      -5.232  18.604  69.233  1.00  0.00    -0.183 F  
HETATM   14  F   UNL     1      -5.241  19.165  67.136  1.00  0.00    -0.149 F  
HETATM   15  C   UNL     1      -9.898  17.708  67.639  1.00  0.00    -0.294 A  
HETATM   16  F   UNL     1      -5.861  20.602  68.647  1.00  0.00    -0.285 F  
ENDBRANCH   2   3
BRANCH   2  17
HETATM   17  O   UNL     1      -9.646  14.801  67.754  1.00  0.00    -0.205 OA 
BRANCH  17  18
HETATM   18  C   UNL     1      -8.579  14.159  67.013  1.00  0.00    -0.184 C  
HETATM   19  N   UNL     1      -8.967  11.832  67.914  1.00  0.00    -0.172 NA 
HETATM   20  C   UNL     1      -8.884  12.636  66.666  1.00  0.00    -0.126 C  
HETATM   21  O   UNL     1      -7.324  14.245  67.710  1.00  0.00    -0.139 OA 
HETATM   22  C   UNL     1      -7.384  13.502  68.934  1.00  0.00    -0.045 C  
HETATM   23  C   UNL     1      -7.717  12.026  68.688  1.00  0.00    -0.099 C  
BRANCH  19  24
HETATM   24  C   UNL     1      -9.329  10.408  67.800  1.00  0.00    -0.145 C  
BRANCH  24  25
HETATM   25  C   UNL     1     -10.271   9.905  68.879  1.00  0.00    -0.196 C  
HETATM   26  O   UNL     1     -10.099   6.472  71.111  1.00  0.00    -0.183 OA 
HETATM   27  O   UNL     1     -10.777   8.112  72.812  1.00  0.00    -0.345 OA 
HETATM   28  N   UNL     1     -10.996  10.708  69.617  1.00  0.00    -0.261 NA 
HETATM   29  O   UNL     1     -12.587   6.660  71.677  1.00  0.00    -0.347 OA 
HETATM   30  C   UNL     1     -11.595   9.894  70.551  1.00  0.00    -0.309 C  
HETATM   31  O   UNL     1     -12.163  10.271  71.568  1.00  0.00    -0.374 OA 
HETATM   32  P   UNL     1     -11.337   7.440  71.471  1.00  0.00    -0.277 P  
HETATM   33  N   UNL     1     -11.304   8.587  70.261  1.00  0.00    -0.189 N  
HETATM   34  N   UNL     1     -10.426   8.567  69.156  1.00  0.00    -0.217 NA 
ENDBRANCH  24  25
ENDBRANCH  19  24
BRANCH  20  35
HETATM   35  C   UNL     1     -10.084  12.558  65.725  1.00  0.00    -0.278 A  
HETATM   36  C   UNL     1     -12.490  12.780  65.373  1.00  0.00    -0.478 A  
HETATM   37  F   UNL     1     -13.449  11.915  63.398  1.00  0.00    -0.414 F  
HETATM   38  C   UNL     1     -11.356  12.980  66.166  1.00  0.00    -0.349 A  
HETATM   39  C   UNL     1     -11.115  11.741  63.676  1.00  0.00    -0.518 A  
HETATM   40  C   UNL     1      -9.978  11.955  64.461  1.00  0.00    -0.255 A  
HETATM   41  C   UNL     1     -12.358  12.146  64.140  1.00  0.00    -0.409 A  
ENDBRANCH  20  35
ENDBRANCH  17  18
ENDBRANCH   2  17
TORSDOF 6
ENDMDL
MODEL       71
REMARK 921   NORMALIZED FREE ENERGY PREDICTED BY IDOCK:   -7.64 KCAL/MOL
REMARK 922        TOTAL FREE ENERGY PREDICTED BY IDOCK:  -11.22 KCAL/MOL
REMARK 923 INTER-LIGAND FREE ENERGY PREDICTED BY IDOCK:   -9.00 KCAL/MOL
REMARK 924 INTRA-LIGAND FREE ENERGY PREDICTED BY IDOCK:   -2.22 KCAL/MOL
REMARK 927      BINDING AFFINITY PREDICTED BY RF-SCORE:    0.00 PKD
ROOT
HETATM    1  C   UNL     1     -12.042  10.657  69.809  1.00  0.00    -0.343 C  
HETATM    2  C   UNL     1     -11.776  11.592  68.637  1.00  0.00    -0.325 C  
ENDROOT
BRANCH   2   3
HETATM    3  C   UNL     1     -10.972  10.933  67.535  1.00  0.00    -0.352 A  
HETATM    4  F   UNL     1     -11.743  11.521  63.370  1.00  0.00    -0.505 F  
HETATM    5  F   UNL     1     -10.079  10.233  62.832  1.00  0.00    -0.281 F  
HETATM    6  C   UNL     1     -10.393   9.688  67.810  1.00  0.00    -0.286 A  
HETATM    7  C   UNL     1      -9.929   8.867  66.784  1.00  0.00    -0.338 A  
HETATM    8  F   UNL     1      -9.701  12.244  63.569  1.00  0.00    -0.350 F  
HETATM    9  C   UNL     1      -9.538   7.439  67.090  1.00  0.00    -0.159 C  
HETATM   10  C   UNL     1      -9.956   9.349  65.466  1.00  0.00    -0.129 A  
HETATM   11  C   UNL     1     -10.491  11.151  63.752  1.00  0.00    -0.381 C  
HETATM   12  C   UNL     1     -10.448  10.635  65.173  1.00  0.00    -0.271 A  
HETATM   13  F   UNL     1      -9.468   7.174  68.424  1.00  0.00    -0.138 F  
HETATM   14  F   UNL     1     -10.434   6.554  66.581  1.00  0.00    -0.267 F  
HETATM   15  C   UNL     1     -10.963  11.418  66.218  1.00  0.00    -0.303 A  
HETATM   16  F   UNL     1      -8.328   7.102  66.573  1.00  0.00    -0.104 F  
ENDBRANCH   2   3
BRANCH   2  17
HETATM   17  O   UNL     1     -11.128  12.795  69.084  1.00  0.00    -0.242 OA 
BRANCH  17  18
HETATM   18  C   UNL     1     -10.773  13.700  68.010  1.00  0.00    -0.247 C  
HETATM   19  N   UNL     1      -9.081  15.045  69.316  1.00  0.00    -0.190 NA 
HETATM   20  C   UNL     1      -9.271  14.218  68.095  1.00  0.00    -0.202 C  
HETATM   21  O   UNL     1     -11.662  14.830  67.954  1.00  0.00    -0.342 OA 
HETATM   22  C   UNL     1     -11.522  15.630  69.134  1.00  0.00    -0.359 C  
HETATM   23  C   UNL     1     -10.086  16.135  69.312  1.00  0.00    -0.260 C  
BRANCH  19  24
HETATM   24  C   UNL     1      -7.727  15.544  69.613  1.00  0.00    -0.138 C  
BRANCH  24  25
HETATM   25  C   UNL     1      -7.373  16.857  68.941  1.00  0.00    -0.236 C  
HETATM   26  O   UNL     1      -9.130  18.717  65.739  1.00  0.00    -0.402 OA 
HETATM   27  O   UNL     1      -8.723  20.626  67.232  1.00  0.00    -0.334 OA 
HETATM   28  N   UNL     1      -6.784  17.841  69.575  1.00  0.00    -0.167 NA 
HETATM   29  O   UNL     1      -7.031  20.125  65.345  1.00  0.00    -0.304 OA 
HETATM   30  C   UNL     1      -6.763  18.885  68.677  1.00  0.00    -0.270 C  
HETATM   31  O   UNL     1      -6.517  20.053  68.945  1.00  0.00    -0.294 OA 
HETATM   32  P   UNL     1      -7.905  19.534  66.394  1.00  0.00    -0.326 P  
HETATM   33  N   UNL     1      -7.237  18.447  67.468  1.00  0.00    -0.208 N  
HETATM   34  N   UNL     1      -7.649  17.105  67.617  1.00  0.00    -0.165 NA 
ENDBRANCH  24  25
ENDBRANCH  19  24
BRANCH  20  35
HETATM   35  C   UNL     1      -8.315  13.041  67.914  1.00  0.00    -0.170 A  
HETATM   36  C   UNL     1      -7.129  11.514  66.422  1.00  0.00     0.064 A  
HETATM   37  F   UNL     1      -6.131   9.573  67.319  1.00  0.00    -0.053 F  
HETATM   38  C   UNL     1      -7.882  12.675  66.621  1.00  0.00     0.303 A  
HETATM   39  C   UNL     1      -7.213  11.057  68.796  1.00  0.00    -0.091 A  
HETATM   40  C   UNL     1      -7.952  12.227  68.998  1.00  0.00     0.238 A  
HETATM   41  C   UNL     1      -6.815  10.707  67.514  1.00  0.00    -0.078 A  
ENDBRANCH  20  35
ENDBRANCH  17  18
ENDBRANCH   2  17
TORSDOF 6
ENDMDL
MODEL       72
REMARK 921   NORMALIZED FREE ENERGY PREDICTED BY IDOCK:   -7.63 KCAL/MOL
REMARK 922        TOTAL FREE ENERGY PREDICTED BY IDOCK:  -11.22 KCAL/MOL
REMARK 923 INTER-LIGAND FREE ENERGY PREDICTED BY IDOCK:   -9.35 KCAL/MOL
REMARK 924 INTRA-LIGAND FREE ENERGY PREDICTED BY IDOCK:   -1.87 KCAL/MOL
REMARK 927      BINDING AFFINITY PREDICTED BY RF-SCORE:    0.00 PKD
ROOT
HETATM    1  C   UNL     1     -13.037  10.276  70.905  1.00  0.00    -0.423 C  
HETATM    2  C   UNL     1     -11.628  10.432  70.349  1.00  0.00    -0.337 C  
ENDROOT
BRANCH   2   3
HETATM    3  C   UNL     1     -11.470  11.676  69.499  1.00  0.00    -0.371 A  
HETATM    4  F   UNL     1     -13.161  15.467  70.524  1.00  0.00    -0.454 F  
HETATM    5  F   UNL     1     -12.298  16.384  68.754  1.00  0.00    -0.091 F  
HETATM    6  C   UNL     1     -11.318  11.504  68.118  1.00  0.00    -0.367 A  
HETATM    7  C   UNL     1     -11.498  12.568  67.236  1.00  0.00    -0.416 A  
HETATM    8  F   UNL     1     -11.033  15.913  70.458  1.00  0.00    -0.281 F  
HETATM    9  C   UNL     1     -11.569  12.301  65.750  1.00  0.00    -0.388 C  
HETATM   10  C   UNL     1     -11.734  13.849  67.758  1.00  0.00    -0.401 A  
HETATM   11  C   UNL     1     -12.069  15.443  69.713  1.00  0.00    -0.347 C  
HETATM   12  C   UNL     1     -11.800  14.066  69.147  1.00  0.00    -0.391 A  
HETATM   13  F   UNL     1     -11.212  11.030  65.413  1.00  0.00    -0.216 F  
HETATM   14  F   UNL     1     -12.828  12.473  65.269  1.00  0.00    -0.518 F  
HETATM   15  C   UNL     1     -11.674  12.967  70.012  1.00  0.00    -0.285 A  
HETATM   16  F   UNL     1     -10.766  13.123  65.027  1.00  0.00    -0.283 F  
ENDBRANCH   2   3
BRANCH   2  17
HETATM   17  O   UNL     1     -11.243   9.262  69.608  1.00  0.00    -0.170 OA 
BRANCH  17  18
HETATM   18  C   UNL     1     -10.140   8.532  70.200  1.00  0.00    -0.190 C  
HETATM   19  N   UNL     1      -9.592   7.140  68.166  1.00  0.00    -0.131 NA 
HETATM   20  C   UNL     1      -9.028   8.107  69.145  1.00  0.00    -0.144 C  
HETATM   21  O   UNL     1     -10.596   7.365  70.905  1.00  0.00    -0.220 OA 
HETATM   22  C   UNL     1     -11.173   6.426  69.990  1.00  0.00    -0.411 C  
HETATM   23  C   UNL     1     -10.173   5.996  68.910  1.00  0.00    -0.196 C  
BRANCH  19  24
HETATM   24  C   UNL     1      -8.733   6.695  67.055  1.00  0.00    -0.113 C  
BRANCH  24  25
HETATM   25  C   UNL     1      -9.118   5.357  66.451  1.00  0.00    -0.141 C  
HETATM   26  O   UNL     1     -10.348   4.461  62.645  1.00  0.00    -0.090 OA 
HETATM   27  O   UNL     1      -8.833   2.582  63.111  1.00  0.00    -0.085 OA 
HETATM   28  N   UNL     1      -8.643   4.219  66.890  1.00  0.00    -0.107 NA 
HETATM   29  O   UNL     1     -11.374   2.258  63.445  1.00  0.00    -0.319 OA 
HETATM   30  C   UNL     1      -9.113   3.270  66.010  1.00  0.00    -0.150 C  
HETATM   31  O   UNL     1      -8.712   2.117  65.920  1.00  0.00    -0.111 OA 
HETATM   32  P   UNL     1     -10.224   3.186  63.623  1.00  0.00    -0.227 P  
HETATM   33  N   UNL     1      -9.974   3.866  65.126  1.00  0.00    -0.188 N  
HETATM   34  N   UNL     1      -9.995   5.250  65.396  1.00  0.00     0.131 NA 
ENDBRANCH  24  25
ENDBRANCH  19  24
BRANCH  20  35
HETATM   35  C   UNL     1      -8.371   9.358  68.565  1.00  0.00    -0.118 A  
HETATM   36  C   UNL     1      -7.123  11.427  68.920  1.00  0.00    -0.109 A  
HETATM   37  F   UNL     1      -6.987  13.003  67.170  1.00  0.00    -0.154 F  
HETATM   38  C   UNL     1      -7.606  10.204  69.396  1.00  0.00    -0.133 A  
HETATM   39  C   UNL     1      -8.145  10.989  66.772  1.00  0.00    -0.151 A  
HETATM   40  C   UNL     1      -8.615   9.759  67.242  1.00  0.00    -0.128 A  
HETATM   41  C   UNL     1      -7.412  11.813  67.614  1.00  0.00    -0.123 A  
ENDBRANCH  20  35
ENDBRANCH  17  18
ENDBRANCH   2  17
TORSDOF 6
ENDMDL
MODEL       73
REMARK 921   NORMALIZED FREE ENERGY PREDICTED BY IDOCK:   -7.63 KCAL/MOL
REMARK 922        TOTAL FREE ENERGY PREDICTED BY IDOCK:  -11.21 KCAL/MOL
REMARK 923 INTER-LIGAND FREE ENERGY PREDICTED BY IDOCK:   -9.28 KCAL/MOL
REMARK 924 INTRA-LIGAND FREE ENERGY PREDICTED BY IDOCK:   -1.94 KCAL/MOL
REMARK 927      BINDING AFFINITY PREDICTED BY RF-SCORE:    0.00 PKD
ROOT
HETATM    1  C   UNL     1     -13.245  11.939  71.566  1.00  0.00    -0.283 C  
HETATM    2  C   UNL     1     -11.966  11.757  70.759  1.00  0.00    -0.127 C  
ENDROOT
BRANCH   2   3
HETATM    3  C   UNL     1     -11.897  12.679  69.559  1.00  0.00    -0.376 A  
HETATM    4  F   UNL     1     -10.697  11.398  65.660  1.00  0.00    -0.297 F  
HETATM    5  F   UNL     1     -11.016  13.390  64.856  1.00  0.00    -0.295 F  
HETATM    6  C   UNL     1     -11.624  14.032  69.795  1.00  0.00    -0.344 A  
HETATM    7  C   UNL     1     -11.218  14.875  68.762  1.00  0.00    -0.288 A  
HETATM    8  F   UNL     1     -12.720  12.118  65.308  1.00  0.00    -0.366 F  
HETATM    9  C   UNL     1     -10.698  16.257  69.088  1.00  0.00    -0.305 C  
HETATM   10  C   UNL     1     -11.185  14.374  67.452  1.00  0.00    -0.337 A  
HETATM   11  C   UNL     1     -11.495  12.495  65.765  1.00  0.00    -0.365 C  
HETATM   12  C   UNL     1     -11.544  13.042  67.174  1.00  0.00    -0.411 A  
HETATM   13  F   UNL     1     -10.902  16.617  70.386  1.00  0.00    -0.306 F  
HETATM   14  F   UNL     1      -9.358  16.349  68.883  1.00  0.00    -0.209 F  
HETATM   15  C   UNL     1     -11.893  12.198  68.241  1.00  0.00    -0.361 A  
HETATM   16  F   UNL     1     -11.271  17.228  68.331  1.00  0.00    -0.306 F  
ENDBRANCH   2   3
BRANCH   2  17
HETATM   17  O   UNL     1     -11.815  10.386  70.352  1.00  0.00    -0.278 OA 
BRANCH  17  18
HETATM   18  C   UNL     1     -11.109   9.566  71.315  1.00  0.00    -0.379 C  
HETATM   19  N   UNL     1     -10.844   7.542  69.829  1.00  0.00    -0.245 NA 
HETATM   20  C   UNL     1     -10.098   8.537  70.644  1.00  0.00    -0.192 C  
HETATM   21  O   UNL     1     -12.019   8.850  72.168  1.00  0.00    -0.357 OA 
HETATM   22  C   UNL     1     -12.774   7.903  71.403  1.00  0.00    -0.292 C  
HETATM   23  C   UNL     1     -11.867   6.896  70.687  1.00  0.00    -0.368 C  
BRANCH  19  24
HETATM   24  C   UNL     1     -10.069   6.555  69.058  1.00  0.00    -0.165 C  
BRANCH  24  25
HETATM   25  C   UNL     1      -9.571   5.368  69.863  1.00  0.00    -0.168 C  
HETATM   26  O   UNL     1      -8.474   5.156  73.806  1.00  0.00    -0.111 OA 
HETATM   27  O   UNL     1      -9.738   3.064  73.551  1.00  0.00    -0.097 OA 
HETATM   28  N   UNL     1      -9.890   4.132  69.572  1.00  0.00    -0.179 NA 
HETATM   29  O   UNL     1      -7.162   3.003  73.374  1.00  0.00    -0.042 OA 
HETATM   30  C   UNL     1      -9.368   3.376  70.598  1.00  0.00    -0.162 C  
HETATM   31  O   UNL     1      -9.641   2.207  70.835  1.00  0.00    -0.139 OA 
HETATM   32  P   UNL     1      -8.396   3.753  73.016  1.00  0.00    -0.092 P  
HETATM   33  N   UNL     1      -8.633   4.186  71.423  1.00  0.00    -0.099 N  
HETATM   34  N   UNL     1      -8.752   5.513  70.958  1.00  0.00    -0.128 NA 
ENDBRANCH  24  25
ENDBRANCH  19  24
BRANCH  20  35
HETATM   35  C   UNL     1      -8.987   9.305  69.932  1.00  0.00    -0.194 A  
HETATM   36  C   UNL     1      -6.872  10.522  70.049  1.00  0.00    -0.154 A  
HETATM   37  F   UNL     1      -6.179  11.804  68.193  1.00  0.00    -0.049 F  
HETATM   38  C   UNL     1      -7.830   9.693  70.642  1.00  0.00    -0.084 A  
HETATM   39  C   UNL     1      -8.193  10.591  68.023  1.00  0.00    -0.112 A  
HETATM   40  C   UNL     1      -9.143   9.750  68.610  1.00  0.00    -0.130 A  
HETATM   41  C   UNL     1      -7.074  10.976  68.748  1.00  0.00    -0.086 A  
ENDBRANCH  20  35
ENDBRANCH  17  18
ENDBRANCH   2  17
TORSDOF 6
ENDMDL
MODEL       74
REMARK 921   NORMALIZED FREE ENERGY PREDICTED BY IDOCK:   -7.62 KCAL/MOL
REMARK 922        TOTAL FREE ENERGY PREDICTED BY IDOCK:  -11.19 KCAL/MOL
REMARK 923 INTER-LIGAND FREE ENERGY PREDICTED BY IDOCK:   -9.45 KCAL/MOL
REMARK 924 INTRA-LIGAND FREE ENERGY PREDICTED BY IDOCK:   -1.75 KCAL/MOL
REMARK 927      BINDING AFFINITY PREDICTED BY RF-SCORE:    0.00 PKD
ROOT
HETATM    1  C   UNL     1      -6.495   7.184  69.750  1.00  0.00    -0.039 C  
HETATM    2  C   UNL     1      -7.763   7.305  70.585  1.00  0.00    -0.093 C  
ENDROOT
BRANCH   2   3
HETATM    3  C   UNL     1      -8.333   5.958  70.979  1.00  0.00    -0.123 A  
HETATM    4  F   UNL     1      -9.411   2.930  68.159  1.00  0.00    -0.219 F  
HETATM    5  F   UNL     1      -9.993   1.581  69.758  1.00  0.00    -0.098 F  
HETATM    6  C   UNL     1      -9.079   5.890  72.163  1.00  0.00    -0.145 A  
HETATM    7  C   UNL     1      -9.904   4.799  72.430  1.00  0.00    -0.211 A  
HETATM    8  F   UNL     1      -7.887   1.932  69.349  1.00  0.00    -0.043 F  
HETATM    9  C   UNL     1     -10.876   4.866  73.587  1.00  0.00    -0.309 C  
HETATM   10  C   UNL     1      -9.902   3.713  71.543  1.00  0.00    -0.227 A  
HETATM   11  C   UNL     1      -9.096   2.552  69.427  1.00  0.00    -0.121 C  
HETATM   12  C   UNL     1      -9.090   3.716  70.393  1.00  0.00    -0.198 A  
HETATM   13  F   UNL     1     -10.670   5.937  74.403  1.00  0.00    -0.256 F  
HETATM   14  F   UNL     1     -12.161   4.968  73.157  1.00  0.00    -0.381 F  
HETATM   15  C   UNL     1      -8.312   4.851  70.116  1.00  0.00    -0.081 A  
HETATM   16  F   UNL     1     -10.824   3.768  74.384  1.00  0.00    -0.252 F  
ENDBRANCH   2   3
BRANCH   2  17
HETATM   17  O   UNL     1      -8.752   8.088  69.894  1.00  0.00    -0.136 OA 
BRANCH  17  18
HETATM   18  C   UNL     1      -9.015   9.372  70.513  1.00  0.00    -0.253 C  
HETATM   19  N   UNL     1     -10.365  10.336  68.609  1.00  0.00    -0.174 NA 
HETATM   20  C   UNL     1     -10.399  10.016  70.061  1.00  0.00    -0.272 C  
HETATM   21  O   UNL     1      -7.953  10.308  70.263  1.00  0.00    -0.122 OA 
HETATM   22  C   UNL     1      -7.877  10.613  68.866  1.00  0.00    -0.129 C  
HETATM   23  C   UNL     1      -9.192  11.201  68.340  1.00  0.00    -0.175 C  
BRANCH  19  24
HETATM   24  C   UNL     1     -11.592  10.862  67.985  1.00  0.00    -0.215 C  
BRANCH  24  25
HETATM   25  C   UNL     1     -11.556  12.345  67.665  1.00  0.00    -0.357 C  
HETATM   26  O   UNL     1      -9.615  15.394  69.597  1.00  0.00    -0.262 OA 
HETATM   27  O   UNL     1      -9.210  15.986  67.246  1.00  0.00    -0.202 OA 
HETATM   28  N   UNL     1     -11.716  12.811  66.451  1.00  0.00    -0.384 NA 
HETATM   29  O   UNL     1     -11.154  17.125  68.510  1.00  0.00    -0.270 OA 
HETATM   30  C   UNL     1     -11.479  14.164  66.552  1.00  0.00    -0.358 C  
HETATM   31  O   UNL     1     -11.294  14.928  65.615  1.00  0.00    -0.343 OA 
HETATM   32  P   UNL     1     -10.425  15.849  68.279  1.00  0.00    -0.278 P  
HETATM   33  N   UNL     1     -11.303  14.491  67.870  1.00  0.00    -0.295 N  
HETATM   34  N   UNL     1     -11.349  13.303  68.630  1.00  0.00    -0.267 NA 
ENDBRANCH  24  25
ENDBRANCH  19  24
BRANCH  20  35
HETATM   35  C   UNL     1     -11.551   9.134  70.538  1.00  0.00    -0.238 A  
HETATM   36  C   UNL     1     -13.508   8.834  71.968  1.00  0.00    -0.461 A  
HETATM   37  F   UNL     1     -14.406   6.670  72.248  1.00  0.00    -0.397 F  
HETATM   38  C   UNL     1     -12.532   9.662  71.404  1.00  0.00    -0.465 A  
HETATM   39  C   UNL     1     -12.557   6.934  70.811  1.00  0.00    -0.183 A  
HETATM   40  C   UNL     1     -11.591   7.764  70.235  1.00  0.00    -0.049 A  
HETATM   41  C   UNL     1     -13.499   7.472  71.676  1.00  0.00    -0.365 A  
ENDBRANCH  20  35
ENDBRANCH  17  18
ENDBRANCH   2  17
TORSDOF 6
ENDMDL
MODEL       75
REMARK 921   NORMALIZED FREE ENERGY PREDICTED BY IDOCK:   -7.62 KCAL/MOL
REMARK 922        TOTAL FREE ENERGY PREDICTED BY IDOCK:  -11.19 KCAL/MOL
REMARK 923 INTER-LIGAND FREE ENERGY PREDICTED BY IDOCK:   -9.83 KCAL/MOL
REMARK 924 INTRA-LIGAND FREE ENERGY PREDICTED BY IDOCK:   -1.37 KCAL/MOL
REMARK 927      BINDING AFFINITY PREDICTED BY RF-SCORE:    0.00 PKD
ROOT
HETATM    1  C   UNL     1      -9.637  10.233  67.235  1.00  0.00    -0.186 C  
HETATM    2  C   UNL     1     -11.136  10.454  67.395  1.00  0.00    -0.226 C  
ENDROOT
BRANCH   2   3
HETATM    3  C   UNL     1     -11.521  11.917  67.319  1.00  0.00    -0.385 A  
HETATM    4  F   UNL     1     -10.200  14.551  64.220  1.00  0.00    -0.232 F  
HETATM    5  F   UNL     1     -11.332  16.197  65.072  1.00  0.00    -0.306 F  
HETATM    6  C   UNL     1     -11.784  12.583  68.523  1.00  0.00    -0.369 A  
HETATM    7  C   UNL     1     -11.817  13.974  68.583  1.00  0.00    -0.396 A  
HETATM    8  F   UNL     1     -12.364  14.617  63.992  1.00  0.00    -0.506 F  
HETATM    9  C   UNL     1     -11.859  14.662  69.929  1.00  0.00    -0.319 C  
HETATM   10  C   UNL     1     -11.685  14.708  67.395  1.00  0.00    -0.413 A  
HETATM   11  C   UNL     1     -11.355  14.849  64.876  1.00  0.00    -0.413 C  
HETATM   12  C   UNL     1     -11.512  14.061  66.157  1.00  0.00    -0.350 A  
HETATM   13  F   UNL     1     -12.093  13.807  70.964  1.00  0.00    -0.387 F  
HETATM   14  F   UNL     1     -10.681  15.276  70.215  1.00  0.00    -0.266 F  
HETATM   15  C   UNL     1     -11.424  12.660  66.131  1.00  0.00    -0.413 A  
HETATM   16  F   UNL     1     -12.820  15.618  70.004  1.00  0.00    -0.370 F  
ENDBRANCH   2   3
BRANCH   2  17
HETATM   17  O   UNL     1     -11.606   9.871  68.622  1.00  0.00     0.015 OA 
BRANCH  17  18
HETATM   18  C   UNL     1     -10.555   9.611  69.584  1.00  0.00    -0.233 C  
HETATM   19  N   UNL     1     -11.736   7.739  70.800  1.00  0.00    -0.264 NA 
HETATM   20  C   UNL     1     -10.497   8.093  70.057  1.00  0.00    -0.231 C  
HETATM   21  O   UNL     1     -10.671  10.463  70.737  1.00  0.00    -0.123 OA 
HETATM   22  C   UNL     1     -11.873  10.164  71.456  1.00  0.00    -0.272 C  
HETATM   23  C   UNL     1     -11.914   8.701  71.913  1.00  0.00    -0.356 C  
BRANCH  19  24
HETATM   24  C   UNL     1     -11.905   6.344  71.244  1.00  0.00    -0.273 C  
BRANCH  24  25
HETATM   25  C   UNL     1     -10.680   5.735  71.901  1.00  0.00    -0.242 C  
HETATM   26  O   UNL     1      -7.399   3.968  70.194  1.00  0.00    -0.044 OA 
HETATM   27  O   UNL     1      -6.351   5.296  71.977  1.00  0.00    -0.035 OA 
HETATM   28  N   UNL     1     -10.238   6.121  73.072  1.00  0.00    -0.187 NA 
HETATM   29  O   UNL     1      -6.830   2.791  72.393  1.00  0.00    -0.021 OA 
HETATM   30  C   UNL     1      -9.054   5.442  73.252  1.00  0.00    -0.126 C  
HETATM   31  O   UNL     1      -8.210   5.691  74.102  1.00  0.00    -0.108 OA 
HETATM   32  P   UNL     1      -7.347   4.055  71.803  1.00  0.00    -0.062 P  
HETATM   33  N   UNL     1      -8.882   4.559  72.218  1.00  0.00    -0.120 N  
HETATM   34  N   UNL     1      -9.946   4.734  71.308  1.00  0.00    -0.192 NA 
ENDBRANCH  24  25
ENDBRANCH  19  24
BRANCH  20  35
HETATM   35  C   UNL     1     -10.136   7.203  68.870  1.00  0.00    -0.177 A  
HETATM   36  C   UNL     1      -8.437   6.304  67.364  1.00  0.00    -0.108 A  
HETATM   37  F   UNL     1      -9.114   5.213  65.385  1.00  0.00    -0.151 F  
HETATM   38  C   UNL     1      -8.782   6.992  68.532  1.00  0.00    -0.122 A  
HETATM   39  C   UNL     1     -10.781   6.011  66.847  1.00  0.00    -0.407 A  
HETATM   40  C   UNL     1     -11.128   6.685  68.022  1.00  0.00    -0.296 A  
HETATM   41  C   UNL     1      -9.444   5.834  66.525  1.00  0.00    -0.153 A  
ENDBRANCH  20  35
ENDBRANCH  17  18
ENDBRANCH   2  17
TORSDOF 6
ENDMDL
MODEL       76
REMARK 921   NORMALIZED FREE ENERGY PREDICTED BY IDOCK:   -7.61 KCAL/MOL
REMARK 922        TOTAL FREE ENERGY PREDICTED BY IDOCK:  -11.19 KCAL/MOL
REMARK 923 INTER-LIGAND FREE ENERGY PREDICTED BY IDOCK:   -9.41 KCAL/MOL
REMARK 924 INTRA-LIGAND FREE ENERGY PREDICTED BY IDOCK:   -1.77 KCAL/MOL
REMARK 927      BINDING AFFINITY PREDICTED BY RF-SCORE:    0.00 PKD
ROOT
HETATM    1  C   UNL     1      -6.708  13.206  67.649  1.00  0.00    -0.163 C  
HETATM    2  C   UNL     1      -7.981  12.450  67.289  1.00  0.00    -0.178 C  
ENDROOT
BRANCH   2   3
HETATM    3  C   UNL     1      -9.211  13.334  67.311  1.00  0.00    -0.222 A  
HETATM    4  F   UNL     1     -11.554  14.035  70.819  1.00  0.00    -0.320 F  
HETATM    5  F   UNL     1     -12.878  15.366  69.726  1.00  0.00    -0.260 F  
HETATM    6  C   UNL     1      -9.955  13.441  66.130  1.00  0.00    -0.299 A  
HETATM    7  C   UNL     1     -11.253  13.947  66.141  1.00  0.00    -0.303 A  
HETATM    8  F   UNL     1     -10.891  16.041  70.297  1.00  0.00    -0.278 F  
HETATM    9  C   UNL     1     -12.112  13.824  64.903  1.00  0.00    -0.403 C  
HETATM   10  C   UNL     1     -11.775  14.449  67.343  1.00  0.00    -0.424 A  
HETATM   11  C   UNL     1     -11.579  14.965  69.826  1.00  0.00    -0.303 C  
HETATM   12  C   UNL     1     -11.013  14.438  68.526  1.00  0.00    -0.264 A  
HETATM   13  F   UNL     1     -11.418  13.416  63.804  1.00  0.00    -0.404 F  
HETATM   14  F   UNL     1     -13.107  12.915  65.072  1.00  0.00    -0.519 F  
HETATM   15  C   UNL     1      -9.730  13.869  68.501  1.00  0.00    -0.202 A  
HETATM   16  F   UNL     1     -12.713  14.992  64.559  1.00  0.00    -0.408 F  
ENDBRANCH   2   3
BRANCH   2  17
HETATM   17  O   UNL     1      -8.158  11.316  68.155  1.00  0.00    -0.121 OA 
BRANCH  17  18
HETATM   18  C   UNL     1      -8.702  10.151  67.486  1.00  0.00    -0.125 C  
HETATM   19  N   UNL     1      -8.083   8.479  69.275  1.00  0.00    -0.111 NA 
HETATM   20  C   UNL     1      -9.221   9.033  68.493  1.00  0.00    -0.136 C  
HETATM   21  O   UNL     1      -7.750   9.569  66.580  1.00  0.00    -0.097 OA 
HETATM   22  C   UNL     1      -6.626   9.052  67.304  1.00  0.00    -0.061 C  
HETATM   23  C   UNL     1      -7.049   7.994  68.330  1.00  0.00    -0.088 C  
BRANCH  19  24
HETATM   24  C   UNL     1      -8.379   7.488  70.324  1.00  0.00    -0.133 C  
BRANCH  24  25
HETATM   25  C   UNL     1      -8.278   6.041  69.877  1.00  0.00    -0.118 C  
HETATM   26  O   UNL     1      -9.982   4.172  66.652  1.00  0.00    -0.221 OA 
HETATM   27  O   UNL     1      -7.726   3.198  66.630  1.00  0.00    -0.075 OA 
HETATM   28  N   UNL     1      -7.243   5.287  70.151  1.00  0.00    -0.061 NA 
HETATM   29  O   UNL     1      -9.649   1.882  67.745  1.00  0.00    -0.135 OA 
HETATM   30  C   UNL     1      -7.465   4.112  69.467  1.00  0.00    -0.054 C  
HETATM   31  O   UNL     1      -6.634   3.237  69.263  1.00  0.00    -0.033 OA 
HETATM   32  P   UNL     1      -9.036   3.224  67.549  1.00  0.00    -0.182 P  
HETATM   33  N   UNL     1      -8.709   4.154  68.894  1.00  0.00    -0.088 N  
HETATM   34  N   UNL     1      -9.269   5.424  69.151  1.00  0.00    -0.114 NA 
ENDBRANCH  24  25
ENDBRANCH  19  24
BRANCH  20  35
HETATM   35  C   UNL     1     -10.399   9.578  69.297  1.00  0.00    -0.219 A  
HETATM   36  C   UNL     1     -12.248  11.161  69.495  1.00  0.00    -0.347 A  
HETATM   37  F   UNL     1     -13.298  11.446  71.588  1.00  0.00    -0.481 F  
HETATM   38  C   UNL     1     -11.257  10.542  68.726  1.00  0.00    -0.317 A  
HETATM   39  C   UNL     1     -11.559   9.865  71.418  1.00  0.00    -0.428 A  
HETATM   40  C   UNL     1     -10.578   9.235  70.646  1.00  0.00    -0.324 A  
HETATM   41  C   UNL     1     -12.378  10.825  70.840  1.00  0.00    -0.396 A  
ENDBRANCH  20  35
ENDBRANCH  17  18
ENDBRANCH   2  17
TORSDOF 6
ENDMDL
MODEL       77
REMARK 921   NORMALIZED FREE ENERGY PREDICTED BY IDOCK:   -7.60 KCAL/MOL
REMARK 922        TOTAL FREE ENERGY PREDICTED BY IDOCK:  -11.17 KCAL/MOL
REMARK 923 INTER-LIGAND FREE ENERGY PREDICTED BY IDOCK:   -8.42 KCAL/MOL
REMARK 924 INTRA-LIGAND FREE ENERGY PREDICTED BY IDOCK:   -2.75 KCAL/MOL
REMARK 927      BINDING AFFINITY PREDICTED BY RF-SCORE:    0.00 PKD
ROOT
HETATM    1  C   UNL     1     -12.988  10.704  70.560  1.00  0.00    -0.277 C  
HETATM    2  C   UNL     1     -11.619  11.013  69.969  1.00  0.00    -0.344 C  
ENDROOT
BRANCH   2   3
HETATM    3  C   UNL     1     -11.669  12.109  68.924  1.00  0.00    -0.381 A  
HETATM    4  F   UNL     1     -11.083  11.417  64.745  1.00  0.00    -0.364 F  
HETATM    5  F   UNL     1     -11.407  13.519  64.304  1.00  0.00    -0.359 F  
HETATM    6  C   UNL     1     -11.297  13.401  69.319  1.00  0.00    -0.314 A  
HETATM    7  C   UNL     1     -10.994  14.381  68.377  1.00  0.00    -0.261 A  
HETATM    8  F   UNL     1     -13.096  12.242  64.800  1.00  0.00    -0.520 F  
HETATM    9  C   UNL     1     -10.365  15.680  68.828  1.00  0.00    -0.218 C  
HETATM   10  C   UNL     1     -11.167  14.090  67.015  1.00  0.00    -0.325 A  
HETATM   11  C   UNL     1     -11.802  12.507  65.127  1.00  0.00    -0.405 C  
HETATM   12  C   UNL     1     -11.629  12.829  66.595  1.00  0.00    -0.430 A  
HETATM   13  F   UNL     1     -10.369  15.840  70.181  1.00  0.00    -0.273 F  
HETATM   14  F   UNL     1      -9.063  15.764  68.449  1.00  0.00    -0.175 F  
HETATM   15  C   UNL     1     -11.870  11.839  67.561  1.00  0.00    -0.227 A  
HETATM   16  F   UNL     1     -10.985  16.773  68.316  1.00  0.00    -0.331 F  
ENDBRANCH   2   3
BRANCH   2  17
HETATM   17  O   UNL     1     -11.020   9.825  69.426  1.00  0.00    -0.231 OA 
BRANCH  17  18
HETATM   18  C   UNL     1      -9.878   9.350  70.181  1.00  0.00    -0.232 C  
HETATM   19  N   UNL     1      -8.920   7.885  68.360  1.00  0.00    -0.133 NA 
HETATM   20  C   UNL     1      -8.615   9.021  69.270  1.00  0.00    -0.136 C  
HETATM   21  O   UNL     1     -10.208   8.194  70.969  1.00  0.00    -0.186 OA 
HETATM   22  C   UNL     1     -10.536   7.089  70.118  1.00  0.00    -0.228 C  
HETATM   23  C   UNL     1      -9.381   6.735  69.174  1.00  0.00    -0.135 C  
BRANCH  19  24
HETATM   24  C   UNL     1      -7.898   7.490  67.376  1.00  0.00    -0.118 C  
BRANCH  24  25
HETATM   25  C   UNL     1      -8.294   6.329  66.482  1.00  0.00    -0.114 C  
HETATM   26  O   UNL     1      -6.627   2.600  66.143  1.00  0.00    -0.031 OA 
HETATM   27  O   UNL     1      -9.023   2.059  66.062  1.00  0.00    -0.127 OA 
HETATM   28  N   UNL     1      -9.518   6.152  66.051  1.00  0.00    -0.073 NA 
HETATM   29  O   UNL     1      -7.710   2.273  63.848  1.00  0.00    -0.062 OA 
HETATM   30  C   UNL     1      -9.498   4.939  65.400  1.00  0.00    -0.123 C  
HETATM   31  O   UNL     1     -10.481   4.294  65.060  1.00  0.00    -0.243 OA 
HETATM   32  P   UNL     1      -7.918   2.840  65.208  1.00  0.00    -0.084 P  
HETATM   33  N   UNL     1      -8.209   4.476  65.353  1.00  0.00    -0.109 N  
HETATM   34  N   UNL     1      -7.390   5.380  66.064  1.00  0.00    -0.077 NA 
ENDBRANCH  24  25
ENDBRANCH  19  24
BRANCH  20  35
HETATM   35  C   UNL     1      -8.114  10.305  68.612  1.00  0.00    -0.114 A  
HETATM   36  C   UNL     1      -6.993  12.465  68.817  1.00  0.00    -0.094 A  
HETATM   37  F   UNL     1      -7.147  14.013  67.042  1.00  0.00    -0.127 F  
HETATM   38  C   UNL     1      -7.335  11.220  69.353  1.00  0.00    -0.027 A  
HETATM   39  C   UNL     1      -8.186  11.913  66.786  1.00  0.00    -0.129 A  
HETATM   40  C   UNL     1      -8.515  10.662  67.316  1.00  0.00    -0.126 A  
HETATM   41  C   UNL     1      -7.437  12.805  67.541  1.00  0.00    -0.154 A  
ENDBRANCH  20  35
ENDBRANCH  17  18
ENDBRANCH   2  17
TORSDOF 6
ENDMDL
MODEL       78
REMARK 921   NORMALIZED FREE ENERGY PREDICTED BY IDOCK:   -7.58 KCAL/MOL
REMARK 922        TOTAL FREE ENERGY PREDICTED BY IDOCK:  -11.15 KCAL/MOL
REMARK 923 INTER-LIGAND FREE ENERGY PREDICTED BY IDOCK:   -9.59 KCAL/MOL
REMARK 924 INTRA-LIGAND FREE ENERGY PREDICTED BY IDOCK:   -1.56 KCAL/MOL
REMARK 927      BINDING AFFINITY PREDICTED BY RF-SCORE:    0.00 PKD
ROOT
HETATM    1  C   UNL     1     -12.640  12.752  70.995  1.00  0.00    -0.362 C  
HETATM    2  C   UNL     1     -12.022  11.926  69.873  1.00  0.00    -0.325 C  
ENDROOT
BRANCH   2   3
HETATM    3  C   UNL     1     -11.242  10.735  70.389  1.00  0.00    -0.270 A  
HETATM    4  F   UNL     1      -7.472   9.507  68.787  1.00  0.00    -0.071 F  
HETATM    5  F   UNL     1      -7.334   7.886  70.226  1.00  0.00    -0.060 F  
HETATM    6  C   UNL     1     -11.968   9.674  70.944  1.00  0.00    -0.391 A  
HETATM    7  C   UNL     1     -11.383   8.423  71.134  1.00  0.00    -0.310 A  
HETATM    8  F   UNL     1      -6.975   9.935  70.862  1.00  0.00    -0.114 F  
HETATM    9  C   UNL     1     -12.252   7.242  71.503  1.00  0.00    -0.352 C  
HETATM   10  C   UNL     1     -10.017   8.264  70.856  1.00  0.00    -0.223 A  
HETATM   11  C   UNL     1      -7.773   9.168  70.070  1.00  0.00    -0.088 C  
HETATM   12  C   UNL     1      -9.242   9.340  70.384  1.00  0.00    -0.291 A  
HETATM   13  F   UNL     1     -13.525   7.593  71.839  1.00  0.00    -0.335 F  
HETATM   14  F   UNL     1     -12.369   6.364  70.472  1.00  0.00    -0.389 F  
HETATM   15  C   UNL     1      -9.868  10.573  70.146  1.00  0.00     0.320 A  
HETATM   16  F   UNL     1     -11.764   6.536  72.555  1.00  0.00    -0.296 F  
ENDBRANCH   2   3
BRANCH   2  17
HETATM   17  O   UNL     1     -11.193  12.749  69.035  1.00  0.00    -0.254 OA 
BRANCH  17  18
HETATM   18  C   UNL     1     -11.896  13.332  67.911  1.00  0.00    -0.349 C  
HETATM   19  N   UNL     1      -9.979  14.749  67.077  1.00  0.00    -0.235 NA 
HETATM   20  C   UNL     1     -10.942  13.685  66.687  1.00  0.00    -0.292 C  
HETATM   21  O   UNL     1     -12.628  14.508  68.296  1.00  0.00     0.092 OA 
HETATM   22  C   UNL     1     -11.725  15.542  68.706  1.00  0.00    -0.357 C  
HETATM   23  C   UNL     1     -10.740  15.912  67.592  1.00  0.00    -0.312 C  
BRANCH  19  24
HETATM   24  C   UNL     1      -8.953  15.150  66.098  1.00  0.00    -0.166 C  
BRANCH  24  25
HETATM   25  C   UNL     1      -7.994  16.220  66.587  1.00  0.00    -0.289 C  
HETATM   26  O   UNL     1      -8.240  20.299  66.267  1.00  0.00    -0.249 OA 
HETATM   27  O   UNL     1      -7.418  20.051  68.570  1.00  0.00    -0.288 OA 
HETATM   28  N   UNL     1      -7.204  16.046  67.616  1.00  0.00    -0.138 NA 
HETATM   29  O   UNL     1      -5.726  20.529  66.678  1.00  0.00    -0.168 OA 
HETATM   30  C   UNL     1      -6.607  17.269  67.822  1.00  0.00    -0.156 C  
HETATM   31  O   UNL     1      -5.983  17.601  68.821  1.00  0.00    -0.168 OA 
HETATM   32  P   UNL     1      -6.945  19.770  67.067  1.00  0.00    -0.224 P  
HETATM   33  N   UNL     1      -6.971  18.122  66.813  1.00  0.00    -0.188 N  
HETATM   34  N   UNL     1      -7.892  17.450  65.981  1.00  0.00    -0.512 NA 
ENDBRANCH  24  25
ENDBRANCH  19  24
BRANCH  20  35
HETATM   35  C   UNL     1     -10.344  12.399  66.120  1.00  0.00    -0.271 A  
HETATM   36  C   UNL     1     -10.348  10.666  64.399  1.00  0.00    -0.347 A  
HETATM   37  F   UNL     1      -9.128   8.680  64.764  1.00  0.00    -0.164 F  
HETATM   38  C   UNL     1     -10.773  11.914  64.866  1.00  0.00    -0.350 A  
HETATM   39  C   UNL     1      -9.051  10.358  66.418  1.00  0.00    -0.177 A  
HETATM   40  C   UNL     1      -9.462  11.612  66.878  1.00  0.00    -0.195 A  
HETATM   41  C   UNL     1      -9.501   9.893  65.190  1.00  0.00    -0.275 A  
ENDBRANCH  20  35
ENDBRANCH  17  18
ENDBRANCH   2  17
TORSDOF 6
ENDMDL
MODEL       79
REMARK 921   NORMALIZED FREE ENERGY PREDICTED BY IDOCK:   -7.57 KCAL/MOL
REMARK 922        TOTAL FREE ENERGY PREDICTED BY IDOCK:  -11.13 KCAL/MOL
REMARK 923 INTER-LIGAND FREE ENERGY PREDICTED BY IDOCK:   -9.63 KCAL/MOL
REMARK 924 INTRA-LIGAND FREE ENERGY PREDICTED BY IDOCK:   -1.50 KCAL/MOL
REMARK 927      BINDING AFFINITY PREDICTED BY RF-SCORE:    0.00 PKD
ROOT
HETATM    1  C   UNL     1     -12.862  11.940  71.225  1.00  0.00    -0.391 C  
HETATM    2  C   UNL     1     -11.684  11.814  70.267  1.00  0.00    -0.228 C  
ENDROOT
BRANCH   2   3
HETATM    3  C   UNL     1     -11.763  12.793  69.114  1.00  0.00    -0.375 A  
HETATM    4  F   UNL     1     -11.110  11.693  65.033  1.00  0.00    -0.345 F  
HETATM    5  F   UNL     1     -11.506  13.724  64.373  1.00  0.00    -0.350 F  
HETATM    6  C   UNL     1     -11.443  14.131  69.374  1.00  0.00    -0.337 A  
HETATM    7  C   UNL     1     -11.167  15.020  68.337  1.00  0.00    -0.303 A  
HETATM    8  F   UNL     1     -13.152  12.443  64.989  1.00  0.00    -0.488 F  
HETATM    9  C   UNL     1     -10.590  16.381  68.655  1.00  0.00    -0.305 C  
HETATM   10  C   UNL     1     -11.315  14.583  67.012  1.00  0.00    -0.359 A  
HETATM   11  C   UNL     1     -11.872  12.789  65.295  1.00  0.00    -0.403 C  
HETATM   12  C   UNL     1     -11.726  13.268  66.723  1.00  0.00    -0.434 A  
HETATM   13  F   UNL     1     -10.615  16.680  69.984  1.00  0.00    -0.291 F  
HETATM   14  F   UNL     1      -9.288  16.474  68.277  1.00  0.00    -0.200 F  
HETATM   15  C   UNL     1     -11.940  12.375  67.785  1.00  0.00    -0.252 A  
HETATM   16  F   UNL     1     -11.245  17.391  68.028  1.00  0.00    -0.332 F  
ENDBRANCH   2   3
BRANCH   2  17
HETATM   17  O   UNL     1     -11.569  10.467  69.779  1.00  0.00    -0.257 OA 
BRANCH  17  18
HETATM   18  C   UNL     1     -10.482   9.720  70.379  1.00  0.00    -0.297 C  
HETATM   19  N   UNL     1     -11.151   7.460  69.471  1.00  0.00    -0.136 NA 
HETATM   20  C   UNL     1     -10.043   8.451  69.523  1.00  0.00    -0.200 C  
HETATM   21  O   UNL     1     -10.801   9.302  71.717  1.00  0.00    -0.368 OA 
HETATM   22  C   UNL     1     -11.887   8.368  71.700  1.00  0.00    -0.304 C  
HETATM   23  C   UNL     1     -11.559   7.130  70.857  1.00  0.00    -0.311 C  
BRANCH  19  24
HETATM   24  C   UNL     1     -10.963   6.253  68.648  1.00  0.00    -0.346 C  
BRANCH  24  25
HETATM   25  C   UNL     1      -9.717   5.450  68.974  1.00  0.00    -0.152 C  
HETATM   26  O   UNL     1      -5.827   6.084  67.851  1.00  0.00    -0.011 OA 
HETATM   27  O   UNL     1      -5.542   5.428  70.202  1.00  0.00    -0.011 OA 
HETATM   28  N   UNL     1      -9.603   4.731  70.063  1.00  0.00    -0.170 NA 
HETATM   29  O   UNL     1      -5.234   3.647  68.357  1.00  0.00    -0.010 OA 
HETATM   30  C   UNL     1      -8.302   4.280  70.060  1.00  0.00    -0.061 C  
HETATM   31  O   UNL     1      -7.719   3.775  71.010  1.00  0.00    -0.047 OA 
HETATM   32  P   UNL     1      -6.043   4.809  68.814  1.00  0.00    -0.032 P  
HETATM   33  N   UNL     1      -7.702   4.648  68.885  1.00  0.00    -0.071 N  
HETATM   34  N   UNL     1      -8.619   5.425  68.147  1.00  0.00    -0.097 NA 
ENDBRANCH  24  25
ENDBRANCH  19  24
BRANCH  20  35
HETATM   35  C   UNL     1      -9.477   8.912  68.182  1.00  0.00    -0.155 A  
HETATM   36  C   UNL     1      -7.973  10.377  66.934  1.00  0.00    -0.114 A  
HETATM   37  F   UNL     1      -8.232  10.568  64.597  1.00  0.00    -0.163 F  
HETATM   38  C   UNL     1      -8.406   9.831  68.147  1.00  0.00    -0.110 A  
HETATM   39  C   UNL     1      -9.659   9.098  65.761  1.00  0.00    -0.323 A  
HETATM   40  C   UNL     1     -10.082   8.540  66.972  1.00  0.00    -0.347 A  
HETATM   41  C   UNL     1      -8.617  10.014  65.753  1.00  0.00    -0.145 A  
ENDBRANCH  20  35
ENDBRANCH  17  18
ENDBRANCH   2  17
TORSDOF 6
ENDMDL
MODEL       80
REMARK 921   NORMALIZED FREE ENERGY PREDICTED BY IDOCK:   -7.56 KCAL/MOL
REMARK 922        TOTAL FREE ENERGY PREDICTED BY IDOCK:  -11.12 KCAL/MOL
REMARK 923 INTER-LIGAND FREE ENERGY PREDICTED BY IDOCK:   -9.79 KCAL/MOL
REMARK 924 INTRA-LIGAND FREE ENERGY PREDICTED BY IDOCK:   -1.33 KCAL/MOL
REMARK 927      BINDING AFFINITY PREDICTED BY RF-SCORE:    0.00 PKD
ROOT
HETATM    1  C   UNL     1      -6.630  14.698  67.719  1.00  0.00    -0.189 C  
HETATM    2  C   UNL     1      -7.739  15.316  66.878  1.00  0.00    -0.073 C  
ENDROOT
BRANCH   2   3
HETATM    3  C   UNL     1      -7.803  16.824  67.014  1.00  0.00    -0.229 A  
HETATM    4  F   UNL     1      -6.362  18.951  70.432  1.00  0.00    -0.187 F  
HETATM    5  F   UNL     1      -6.896  20.854  69.532  1.00  0.00     0.030 F  
HETATM    6  C   UNL     1      -8.844  17.492  66.357  1.00  0.00    -0.269 A  
HETATM    7  C   UNL     1      -9.177  18.804  66.685  1.00  0.00    -0.333 A  
HETATM    8  F   UNL     1      -5.145  19.775  68.827  1.00  0.00    -0.185 F  
HETATM    9  C   UNL     1     -10.449  19.410  66.138  1.00  0.00    -0.508 C  
HETATM   10  C   UNL     1      -8.385  19.492  67.618  1.00  0.00    -0.340 A  
HETATM   11  C   UNL     1      -6.430  19.606  69.242  1.00  0.00    -0.330 C  
HETATM   12  C   UNL     1      -7.276  18.873  68.225  1.00  0.00    -0.297 A  
HETATM   13  F   UNL     1     -11.035  18.651  65.170  1.00  0.00    -0.421 F  
HETATM   14  F   UNL     1     -11.388  19.564  67.107  1.00  0.00    -0.540 F  
HETATM   15  C   UNL     1      -6.998  17.531  67.920  1.00  0.00    -0.185 A  
HETATM   16  F   UNL     1     -10.257  20.638  65.591  1.00  0.00    -0.370 F  
ENDBRANCH   2   3
BRANCH   2  17
HETATM   17  O   UNL     1      -9.010  14.726  67.201  1.00  0.00    -0.199 OA 
BRANCH  17  18
HETATM   18  C   UNL     1      -9.034  14.062  68.488  1.00  0.00    -0.160 C  
HETATM   19  N   UNL     1     -11.122  12.704  68.071  1.00  0.00    -0.237 NA 
HETATM   20  C   UNL     1      -9.683  12.609  68.434  1.00  0.00    -0.187 C  
HETATM   21  O   UNL     1      -9.716  14.850  69.478  1.00  0.00    -0.145 OA 
HETATM   22  C   UNL     1     -11.102  14.983  69.138  1.00  0.00    -0.270 C  
HETATM   23  C   UNL     1     -11.793  13.619  69.024  1.00  0.00    -0.352 C  
BRANCH  19  24
HETATM   24  C   UNL     1     -11.875  11.451  67.886  1.00  0.00    -0.165 C  
BRANCH  24  25
HETATM   25  C   UNL     1     -11.483  10.330  68.832  1.00  0.00    -0.127 C  
HETATM   26  O   UNL     1     -13.225   9.139  72.345  1.00  0.00    -0.426 OA 
HETATM   27  O   UNL     1     -12.719   6.970  71.306  1.00  0.00    -0.377 OA 
HETATM   28  N   UNL     1     -10.846   9.257  68.432  1.00  0.00    -0.134 NA 
HETATM   29  O   UNL     1     -11.081   7.936  73.055  1.00  0.00    -0.402 OA 
HETATM   30  C   UNL     1     -10.802   8.434  69.535  1.00  0.00    -0.117 C  
HETATM   31  O   UNL     1     -10.507   7.247  69.530  1.00  0.00    -0.218 OA 
HETATM   32  P   UNL     1     -11.958   8.249  71.894  1.00  0.00    -0.382 P  
HETATM   33  N   UNL     1     -11.313   9.104  70.616  1.00  0.00    -0.267 N  
HETATM   34  N   UNL     1     -11.772  10.364  70.176  1.00  0.00    -0.290 NA 
ENDBRANCH  24  25
ENDBRANCH  19  24
BRANCH  20  35
HETATM   35  C   UNL     1      -8.819  11.697  67.566  1.00  0.00    -0.158 A  
HETATM   36  C   UNL     1      -8.452  10.566  65.433  1.00  0.00    -0.173 A  
HETATM   37  F   UNL     1      -6.819   8.868  65.298  1.00  0.00    -0.069 F  
HETATM   38  C   UNL     1      -9.140  11.508  66.204  1.00  0.00    -0.217 A  
HETATM   39  C   UNL     1      -7.102   9.984  67.354  1.00  0.00    -0.084 A  
HETATM   40  C   UNL     1      -7.779  10.937  68.122  1.00  0.00    -0.103 A  
HETATM   41  C   UNL     1      -7.449   9.801  66.023  1.00  0.00    -0.102 A  
ENDBRANCH  20  35
ENDBRANCH  17  18
ENDBRANCH   2  17
TORSDOF 6
ENDMDL
MODEL       81
REMARK 921   NORMALIZED FREE ENERGY PREDICTED BY IDOCK:   -7.55 KCAL/MOL
REMARK 922        TOTAL FREE ENERGY PREDICTED BY IDOCK:  -11.11 KCAL/MOL
REMARK 923 INTER-LIGAND FREE ENERGY PREDICTED BY IDOCK:   -9.79 KCAL/MOL
REMARK 924 INTRA-LIGAND FREE ENERGY PREDICTED BY IDOCK:   -1.32 KCAL/MOL
REMARK 927      BINDING AFFINITY PREDICTED BY RF-SCORE:    0.00 PKD
ROOT
HETATM    1  C   UNL     1     -11.157  12.243  65.793  1.00  0.00    -0.362 C  
HETATM    2  C   UNL     1     -11.367  12.206  67.302  1.00  0.00    -0.334 C  
ENDROOT
BRANCH   2   3
HETATM    3  C   UNL     1     -11.554  13.586  67.898  1.00  0.00    -0.377 A  
HETATM    4  F   UNL     1      -8.974  16.892  67.062  1.00  0.00    -0.201 F  
HETATM    5  F   UNL     1     -10.165  18.201  68.321  1.00  0.00    -0.319 F  
HETATM    6  C   UNL     1     -12.157  13.673  69.159  1.00  0.00    -0.361 A  
HETATM    7  C   UNL     1     -12.072  14.838  69.919  1.00  0.00    -0.381 A  
HETATM    8  F   UNL     1     -10.900  17.620  66.359  1.00  0.00    -0.267 F  
HETATM    9  C   UNL     1     -12.517  14.819  71.364  1.00  0.00    -0.336 C  
HETATM   10  C   UNL     1     -11.458  15.969  69.360  1.00  0.00    -0.336 A  
HETATM   11  C   UNL     1     -10.250  17.150  67.458  1.00  0.00    -0.323 C  
HETATM   12  C   UNL     1     -10.925  15.937  68.058  1.00  0.00    -0.336 A  
HETATM   13  F   UNL     1     -13.184  13.683  71.708  1.00  0.00    -0.392 F  
HETATM   14  F   UNL     1     -11.461  14.903  72.215  1.00  0.00    -0.435 F  
HETATM   15  C   UNL     1     -10.972  14.733  67.336  1.00  0.00    -0.313 A  
HETATM   16  F   UNL     1     -13.343  15.851  71.675  1.00  0.00    -0.522 F  
ENDBRANCH   2   3
BRANCH   2  17
HETATM   17  O   UNL     1     -10.281  11.520  67.948  1.00  0.00    -0.177 OA 
BRANCH  17  18
HETATM   18  C   UNL     1      -9.094  11.403  67.127  1.00  0.00    -0.164 C  
HETATM   19  N   UNL     1      -7.585  10.490  68.934  1.00  0.00    -0.099 NA 
HETATM   20  C   UNL     1      -8.131  10.218  67.578  1.00  0.00    -0.110 C  
HETATM   21  O   UNL     1      -8.349  12.633  67.095  1.00  0.00    -0.181 OA 
HETATM   22  C   UNL     1      -7.834  12.936  68.397  1.00  0.00    -0.133 C  
HETATM   23  C   UNL     1      -6.926  11.818  68.924  1.00  0.00    -0.109 C  
BRANCH  19  24
HETATM   24  C   UNL     1      -6.737   9.459  69.560  1.00  0.00    -0.048 C  
BRANCH  24  25
HETATM   25  C   UNL     1      -7.441   8.604  70.597  1.00  0.00    -0.074 C  
HETATM   26  O   UNL     1     -11.444   7.917  71.146  1.00  0.00    -0.266 OA 
HETATM   27  O   UNL     1     -10.522   5.667  71.504  1.00  0.00    -0.223 OA 
HETATM   28  N   UNL     1      -6.877   7.562  71.156  1.00  0.00    -0.049 NA 
HETATM   29  O   UNL     1     -11.031   7.155  73.553  1.00  0.00    -0.328 OA 
HETATM   30  C   UNL     1      -7.867   6.984  71.919  1.00  0.00    -0.094 C  
HETATM   31  O   UNL     1      -7.827   5.865  72.413  1.00  0.00    -0.101 OA 
HETATM   32  P   UNL     1     -10.485   7.122  72.170  1.00  0.00    -0.218 P  
HETATM   33  N   UNL     1      -8.980   7.784  71.891  1.00  0.00    -0.122 N  
HETATM   34  N   UNL     1      -8.723   8.865  71.021  1.00  0.00    -0.206 NA 
ENDBRANCH  24  25
ENDBRANCH  19  24
BRANCH  20  35
HETATM   35  C   UNL     1      -8.844   8.882  67.385  1.00  0.00    -0.136 A  
HETATM   36  C   UNL     1      -8.824   6.602  66.512  1.00  0.00    -0.144 A  
HETATM   37  F   UNL     1     -10.850   5.399  66.388  1.00  0.00    -0.313 F  
HETATM   38  C   UNL     1      -8.150   7.785  66.832  1.00  0.00    -0.116 A  
HETATM   39  C   UNL     1     -10.896   7.573  67.296  1.00  0.00    -0.297 A  
HETATM   40  C   UNL     1     -10.220   8.751  67.631  1.00  0.00    -0.298 A  
HETATM   41  C   UNL     1     -10.196   6.515  66.733  1.00  0.00    -0.191 A  
ENDBRANCH  20  35
ENDBRANCH  17  18
ENDBRANCH   2  17
TORSDOF 6
ENDMDL
MODEL       82
REMARK 921   NORMALIZED FREE ENERGY PREDICTED BY IDOCK:   -7.53 KCAL/MOL
REMARK 922        TOTAL FREE ENERGY PREDICTED BY IDOCK:  -11.07 KCAL/MOL
REMARK 923 INTER-LIGAND FREE ENERGY PREDICTED BY IDOCK:   -9.94 KCAL/MOL
REMARK 924 INTRA-LIGAND FREE ENERGY PREDICTED BY IDOCK:   -1.12 KCAL/MOL
REMARK 927      BINDING AFFINITY PREDICTED BY RF-SCORE:    0.00 PKD
ROOT
HETATM    1  C   UNL     1     -11.350  12.348  66.548  1.00  0.00    -0.392 C  
HETATM    2  C   UNL     1     -12.082  12.374  67.883  1.00  0.00    -0.019 C  
ENDROOT
BRANCH   2   3
HETATM    3  C   UNL     1     -11.516  13.404  68.839  1.00  0.00    -0.347 A  
HETATM    4  F   UNL     1     -13.909  15.659  71.573  1.00  0.00    -0.529 F  
HETATM    5  F   UNL     1     -12.150  16.661  72.360  1.00  0.00    -0.522 F  
HETATM    6  C   UNL     1     -10.351  14.079  68.452  1.00  0.00    -0.251 A  
HETATM    7  C   UNL     1      -9.952  15.250  69.092  1.00  0.00    -0.238 A  
HETATM    8  F   UNL     1     -12.559  14.597  72.908  1.00  0.00    -0.404 F  
HETATM    9  C   UNL     1      -8.837  16.082  68.498  1.00  0.00    -0.199 C  
HETATM   10  C   UNL     1     -10.679  15.696  70.206  1.00  0.00    -0.354 A  
HETATM   11  C   UNL     1     -12.594  15.471  71.866  1.00  0.00    -0.405 C  
HETATM   12  C   UNL     1     -11.800  14.985  70.674  1.00  0.00    -0.364 A  
HETATM   13  F   UNL     1      -8.175  15.452  67.488  1.00  0.00    -0.140 F  
HETATM   14  F   UNL     1      -9.305  17.242  67.968  1.00  0.00    -0.241 F  
HETATM   15  C   UNL     1     -12.216  13.840  69.975  1.00  0.00    -0.407 A  
HETATM   16  F   UNL     1      -7.894  16.429  69.411  1.00  0.00    -0.243 F  
ENDBRANCH   2   3
BRANCH   2  17
HETATM   17  O   UNL     1     -12.082  11.070  68.488  1.00  0.00    -0.573 OA 
BRANCH  17  18
HETATM   18  C   UNL     1     -11.037  10.885  69.474  1.00  0.00    -0.268 C  
HETATM   19  N   UNL     1     -11.008   8.361  69.391  1.00  0.00    -0.082 NA 
HETATM   20  C   UNL     1     -10.165   9.576  69.229  1.00  0.00    -0.203 C  
HETATM   21  O   UNL     1     -11.568  10.858  70.810  1.00  0.00    -0.312 OA 
HETATM   22  C   UNL     1     -12.410   9.712  70.986  1.00  0.00    -0.310 C  
HETATM   23  C   UNL     1     -11.652   8.404  70.725  1.00  0.00    -0.232 C  
BRANCH  19  24
HETATM   24  C   UNL     1     -10.395   7.050  69.117  1.00  0.00    -0.201 C  
BRANCH  24  25
HETATM   25  C   UNL     1      -9.535   6.504  70.242  1.00  0.00    -0.162 C  
HETATM   26  O   UNL     1      -7.613   8.490  73.268  1.00  0.00    -0.322 OA 
HETATM   27  O   UNL     1      -8.506   6.541  74.470  1.00  0.00    -0.132 OA 
HETATM   28  N   UNL     1      -9.680   5.293  70.720  1.00  0.00    -0.174 NA 
HETATM   29  O   UNL     1      -6.056   6.496  73.651  1.00  0.00    -0.061 OA 
HETATM   30  C   UNL     1      -8.827   5.229  71.800  1.00  0.00    -0.135 C  
HETATM   31  O   UNL     1      -8.830   4.361  72.662  1.00  0.00    -0.108 OA 
HETATM   32  P   UNL     1      -7.452   6.886  73.316  1.00  0.00    -0.075 P  
HETATM   33  N   UNL     1      -8.092   6.384  71.860  1.00  0.00    -0.108 N  
HETATM   34  N   UNL     1      -8.543   7.246  70.838  1.00  0.00    -0.135 NA 
ENDBRANCH  24  25
ENDBRANCH  19  24
BRANCH  20  35
HETATM   35  C   UNL     1      -9.407   9.708  67.910  1.00  0.00    -0.141 A  
HETATM   36  C   UNL     1      -7.720  10.855  66.569  1.00  0.00    -0.149 A  
HETATM   37  F   UNL     1      -7.640  10.466  64.243  1.00  0.00    -0.149 F  
HETATM   38  C   UNL     1      -8.329  10.612  67.804  1.00  0.00    -0.115 A  
HETATM   39  C   UNL     1      -9.239   9.294  65.517  1.00  0.00    -0.292 A  
HETATM   40  C   UNL     1      -9.839   9.039  66.754  1.00  0.00    -0.300 A  
HETATM   41  C   UNL     1      -8.194  10.203  65.433  1.00  0.00    -0.151 A  
ENDBRANCH  20  35
ENDBRANCH  17  18
ENDBRANCH   2  17
TORSDOF 6
ENDMDL
MODEL       83
REMARK 921   NORMALIZED FREE ENERGY PREDICTED BY IDOCK:   -7.52 KCAL/MOL
REMARK 922        TOTAL FREE ENERGY PREDICTED BY IDOCK:  -11.05 KCAL/MOL
REMARK 923 INTER-LIGAND FREE ENERGY PREDICTED BY IDOCK:  -10.55 KCAL/MOL
REMARK 924 INTRA-LIGAND FREE ENERGY PREDICTED BY IDOCK:   -0.51 KCAL/MOL
REMARK 927      BINDING AFFINITY PREDICTED BY RF-SCORE:    0.00 PKD
ROOT
HETATM    1  C   UNL     1     -10.822  14.593  65.777  1.00  0.00    -0.326 C  
HETATM    2  C   UNL     1     -10.635  14.621  67.288  1.00  0.00    -0.284 C  
ENDROOT
BRANCH   2   3
HETATM    3  C   UNL     1      -9.939  15.879  67.766  1.00  0.00    -0.229 A  
HETATM    4  F   UNL     1     -10.417  19.697  65.900  1.00  0.00    -0.493 F  
HETATM    5  F   UNL     1      -9.104  20.627  67.359  1.00  0.00    -0.445 F  
HETATM    6  C   UNL     1      -8.699  15.735  68.400  1.00  0.00    -0.177 A  
HETATM    7  C   UNL     1      -7.847  16.825  68.570  1.00  0.00    -0.229 A  
HETATM    8  F   UNL     1     -11.131  20.077  67.919  1.00  0.00    -0.372 F  
HETATM    9  C   UNL     1      -6.425  16.595  69.031  1.00  0.00    -0.190 C  
HETATM   10  C   UNL     1      -8.292  18.100  68.189  1.00  0.00    -0.285 A  
HETATM   11  C   UNL     1     -10.049  19.657  67.209  1.00  0.00    -0.409 C  
HETATM   12  C   UNL     1      -9.572  18.286  67.634  1.00  0.00    -0.287 A  
HETATM   13  F   UNL     1      -6.196  15.322  69.458  1.00  0.00    -0.105 F  
HETATM   14  F   UNL     1      -5.532  16.818  68.032  1.00  0.00    -0.105 F  
HETATM   15  C   UNL     1     -10.388  17.164  67.419  1.00  0.00    -0.333 A  
HETATM   16  F   UNL     1      -6.065  17.409  70.057  1.00  0.00    -0.240 F  
ENDBRANCH   2   3
BRANCH   2  17
HETATM   17  O   UNL     1      -9.926  13.452  67.733  1.00  0.00    -0.222 OA 
BRANCH  17  18
HETATM   18  C   UNL     1     -10.611  12.209  67.443  1.00  0.00    -0.226 C  
HETATM   19  N   UNL     1      -9.251  10.762  69.003  1.00  0.00    -0.172 NA 
HETATM   20  C   UNL     1     -10.633  11.201  68.675  1.00  0.00    -0.193 C  
HETATM   21  O   UNL     1     -10.046  11.548  66.299  1.00  0.00    -0.213 OA 
HETATM   22  C   UNL     1      -8.701  11.139  66.576  1.00  0.00    -0.174 C  
HETATM   23  C   UNL     1      -8.631  10.194  67.781  1.00  0.00    -0.118 C  
BRANCH  19  24
HETATM   24  C   UNL     1      -9.059   9.890  70.174  1.00  0.00    -0.124 C  
BRANCH  24  25
HETATM   25  C   UNL     1      -9.329   8.418  69.921  1.00  0.00    -0.155 C  
HETATM   26  O   UNL     1      -7.155   5.127  71.036  1.00  0.00    -0.055 OA 
HETATM   27  O   UNL     1      -9.447   4.353  71.472  1.00  0.00    -0.135 OA 
HETATM   28  N   UNL     1     -10.536   7.939  69.753  1.00  0.00    -0.240 NA 
HETATM   29  O   UNL     1      -8.305   3.703  69.248  1.00  0.00    -0.063 OA 
HETATM   30  C   UNL     1     -10.375   6.572  69.692  1.00  0.00    -0.196 C  
HETATM   31  O   UNL     1     -11.270   5.743  69.778  1.00  0.00    -0.355 OA 
HETATM   32  P   UNL     1      -8.518   4.789  70.244  1.00  0.00    -0.084 P  
HETATM   33  N   UNL     1      -9.037   6.278  69.701  1.00  0.00    -0.141 N  
HETATM   34  N   UNL     1      -8.321   7.485  69.853  1.00  0.00    -0.131 NA 
ENDBRANCH  24  25
ENDBRANCH  19  24
BRANCH  20  35
HETATM   35  C   UNL     1     -11.443  11.810  69.817  1.00  0.00    -0.320 A  
HETATM   36  C   UNL     1     -12.948  11.503  71.716  1.00  0.00    -0.500 A  
HETATM   37  F   UNL     1     -14.045  13.381  72.630  1.00  0.00    -0.614 F  
HETATM   38  C   UNL     1     -12.083  10.971  70.754  1.00  0.00    -0.467 A  
HETATM   39  C   UNL     1     -12.551  13.722  70.839  1.00  0.00    -0.428 A  
HETATM   40  C   UNL     1     -11.674  13.193  69.887  1.00  0.00    -0.327 A  
HETATM   41  C   UNL     1     -13.185  12.875  71.737  1.00  0.00    -0.384 A  
ENDBRANCH  20  35
ENDBRANCH  17  18
ENDBRANCH   2  17
TORSDOF 6
ENDMDL
MODEL       84
REMARK 921   NORMALIZED FREE ENERGY PREDICTED BY IDOCK:   -7.51 KCAL/MOL
REMARK 922        TOTAL FREE ENERGY PREDICTED BY IDOCK:  -11.05 KCAL/MOL
REMARK 923 INTER-LIGAND FREE ENERGY PREDICTED BY IDOCK:   -9.45 KCAL/MOL
REMARK 924 INTRA-LIGAND FREE ENERGY PREDICTED BY IDOCK:   -1.60 KCAL/MOL
REMARK 927      BINDING AFFINITY PREDICTED BY RF-SCORE:    0.00 PKD
ROOT
HETATM    1  C   UNL     1      -6.756  12.711  67.687  1.00  0.00    -0.144 C  
HETATM    2  C   UNL     1      -8.028  12.197  67.025  1.00  0.00    -0.138 C  
ENDROOT
BRANCH   2   3
HETATM    3  C   UNL     1      -9.124  13.241  66.979  1.00  0.00    -0.232 A  
HETATM    4  F   UNL     1     -11.131  14.717  70.455  1.00  0.00    -0.268 F  
HETATM    5  F   UNL     1     -12.328  16.069  69.247  1.00  0.00    -0.316 F  
HETATM    6  C   UNL     1      -9.919  13.298  65.827  1.00  0.00    -0.261 A  
HETATM    7  C   UNL     1     -11.134  13.980  65.824  1.00  0.00    -0.305 A  
HETATM    8  F   UNL     1     -10.238  16.524  69.634  1.00  0.00    -0.252 F  
HETATM    9  C   UNL     1     -12.077  13.819  64.653  1.00  0.00    -0.421 C  
HETATM   10  C   UNL     1     -11.509  14.703  66.967  1.00  0.00    -0.379 A  
HETATM   11  C   UNL     1     -11.091  15.505  69.345  1.00  0.00    -0.291 C  
HETATM   12  C   UNL     1     -10.684  14.739  68.107  1.00  0.00    -0.247 A  
HETATM   13  F   UNL     1     -11.513  13.177  63.592  1.00  0.00    -0.423 F  
HETATM   14  F   UNL     1     -13.173  13.090  64.989  1.00  0.00    -0.454 F  
HETATM   15  C   UNL     1      -9.493  13.995  68.105  1.00  0.00    -0.215 A  
HETATM   16  F   UNL     1     -12.535  15.005  64.178  1.00  0.00    -0.525 F  
ENDBRANCH   2   3
BRANCH   2  17
HETATM   17  O   UNL     1      -8.494  11.005  67.680  1.00  0.00    -0.119 OA 
BRANCH  17  18
HETATM   18  C   UNL     1      -9.565  10.332  66.974  1.00  0.00    -0.171 C  
HETATM   19  N   UNL     1      -9.509   8.202  68.330  1.00  0.00    -0.141 NA 
HETATM   20  C   UNL     1     -10.385   9.321  67.890  1.00  0.00    -0.227 C  
HETATM   21  O   UNL     1      -9.079   9.634  65.815  1.00  0.00    -0.160 OA 
HETATM   22  C   UNL     1      -8.207   8.567  66.207  1.00  0.00    -0.109 C  
HETATM   23  C   UNL     1      -8.912   7.567  67.131  1.00  0.00    -0.126 C  
BRANCH  19  24
HETATM   24  C   UNL     1     -10.069   7.206  69.260  1.00  0.00    -0.176 C  
BRANCH  24  25
HETATM   25  C   UNL     1      -9.083   6.665  70.279  1.00  0.00    -0.156 C  
HETATM   26  O   UNL     1      -9.220   6.776  74.373  1.00  0.00    -0.191 OA 
HETATM   27  O   UNL     1      -8.407   4.489  73.987  1.00  0.00    -0.102 OA 
HETATM   28  N   UNL     1      -8.297   5.646  70.031  1.00  0.00    -0.119 NA 
HETATM   29  O   UNL     1      -6.701   6.356  74.516  1.00  0.00    -0.084 OA 
HETATM   30  C   UNL     1      -7.668   5.379  71.227  1.00  0.00    -0.103 C  
HETATM   31  O   UNL     1      -7.036   4.365  71.490  1.00  0.00    -0.040 OA 
HETATM   32  P   UNL     1      -7.939   6.005  73.770  1.00  0.00    -0.099 P  
HETATM   33  N   UNL     1      -8.010   6.343  72.139  1.00  0.00    -0.107 N  
HETATM   34  N   UNL     1      -8.947   7.208  71.535  1.00  0.00    -0.134 NA 
ENDBRANCH  24  25
ENDBRANCH  19  24
BRANCH  20  35
HETATM   35  C   UNL     1     -11.102  10.098  68.992  1.00  0.00    -0.249 A  
HETATM   36  C   UNL     1     -12.018  10.164  71.255  1.00  0.00    -0.473 A  
HETATM   37  F   UNL     1     -13.452  11.936  71.864  1.00  0.00    -0.507 F  
HETATM   38  C   UNL     1     -11.239   9.535  70.279  1.00  0.00    -0.307 A  
HETATM   39  C   UNL     1     -12.535  11.937  69.693  1.00  0.00     0.027 A  
HETATM   40  C   UNL     1     -11.744  11.317  68.721  1.00  0.00    -0.405 A  
HETATM   41  C   UNL     1     -12.672  11.354  70.944  1.00  0.00    -0.303 A  
ENDBRANCH  20  35
ENDBRANCH  17  18
ENDBRANCH   2  17
TORSDOF 6
ENDMDL
MODEL       85
REMARK 921   NORMALIZED FREE ENERGY PREDICTED BY IDOCK:   -7.48 KCAL/MOL
REMARK 922        TOTAL FREE ENERGY PREDICTED BY IDOCK:  -11.01 KCAL/MOL
REMARK 923 INTER-LIGAND FREE ENERGY PREDICTED BY IDOCK:   -9.03 KCAL/MOL
REMARK 924 INTRA-LIGAND FREE ENERGY PREDICTED BY IDOCK:   -1.98 KCAL/MOL
REMARK 927      BINDING AFFINITY PREDICTED BY RF-SCORE:    0.00 PKD
ROOT
HETATM    1  C   UNL     1     -11.443   9.691  71.666  1.00  0.00    -0.376 C  
HETATM    2  C   UNL     1     -11.529   9.186  70.232  1.00  0.00    -0.146 C  
ENDROOT
BRANCH   2   3
HETATM    3  C   UNL     1     -11.246   7.702  70.118  1.00  0.00    -0.193 A  
HETATM    4  F   UNL     1      -9.503   5.382  73.258  1.00  0.00    -0.140 F  
HETATM    5  F   UNL     1      -9.629   3.576  72.058  1.00  0.00    -0.160 F  
HETATM    6  C   UNL     1     -10.968   7.190  68.844  1.00  0.00    -0.109 A  
HETATM    7  C   UNL     1     -10.381   5.936  68.686  1.00  0.00    -0.271 A  
HETATM    8  F   UNL     1     -11.423   4.400  72.968  1.00  0.00    -0.286 F  
HETATM    9  C   UNL     1      -9.873   5.518  67.325  1.00  0.00    -0.150 C  
HETATM   10  C   UNL     1     -10.163   5.141  69.821  1.00  0.00    -0.357 A  
HETATM   11  C   UNL     1     -10.272   4.746  72.332  1.00  0.00    -0.194 C  
HETATM   12  C   UNL     1     -10.519   5.595  71.105  1.00  0.00    -0.306 A  
HETATM   13  F   UNL     1     -10.262   6.355  66.323  1.00  0.00    -0.193 F  
HETATM   14  F   UNL     1      -8.515   5.494  67.283  1.00  0.00    -0.110 F  
HETATM   15  C   UNL     1     -11.055   6.885  71.243  1.00  0.00    -0.293 A  
HETATM   16  F   UNL     1     -10.290   4.277  66.964  1.00  0.00    -0.206 F  
ENDBRANCH   2   3
BRANCH   2  17
HETATM   17  O   UNL     1     -10.649   9.935  69.376  1.00  0.00    -0.203 OA 
BRANCH  17  18
HETATM   18  C   UNL     1     -11.299  10.471  68.198  1.00  0.00    -0.254 C  
HETATM   19  N   UNL     1      -9.593  12.273  67.725  1.00  0.00    -0.194 NA 
HETATM   20  C   UNL     1     -10.278  11.088  67.143  1.00  0.00    -0.206 C  
HETATM   21  O   UNL     1     -12.284  11.461  68.540  1.00  0.00    -0.557 OA 
HETATM   22  C   UNL     1     -11.654  12.604  69.131  1.00  0.00    -0.320 C  
HETATM   23  C   UNL     1     -10.621  13.235  68.191  1.00  0.00    -0.249 C  
BRANCH  19  24
HETATM   24  C   UNL     1      -8.544  12.930  66.927  1.00  0.00    -0.127 C  
BRANCH  24  25
HETATM   25  C   UNL     1      -8.296  14.385  67.280  1.00  0.00    -0.209 C  
HETATM   26  O   UNL     1     -10.631  17.682  66.591  1.00  0.00    -0.305 OA 
HETATM   27  O   UNL     1      -9.845  18.125  68.878  1.00  0.00    -0.350 OA 
HETATM   28  N   UNL     1      -7.550  14.750  68.294  1.00  0.00    -0.108 NA 
HETATM   29  O   UNL     1      -8.617  19.230  66.892  1.00  0.00    -0.278 OA 
HETATM   30  C   UNL     1      -7.685  16.119  68.363  1.00  0.00    -0.154 C  
HETATM   31  O   UNL     1      -7.346  16.823  69.305  1.00  0.00    -0.237 OA 
HETATM   32  P   UNL     1      -9.266  17.988  67.392  1.00  0.00    -0.260 P  
HETATM   33  N   UNL     1      -8.422  16.553  67.293  1.00  0.00    -0.176 N  
HETATM   34  N   UNL     1      -8.840  15.422  66.559  1.00  0.00    -0.296 NA 
ENDBRANCH  24  25
ENDBRANCH  19  24
BRANCH  20  35
HETATM   35  C   UNL     1      -9.379   9.982  66.597  1.00  0.00    -0.202 A  
HETATM   36  C   UNL     1      -7.477   8.482  66.906  1.00  0.00    -0.084 A  
HETATM   37  F   UNL     1      -6.599   7.338  65.038  1.00  0.00    -0.041 F  
HETATM   38  C   UNL     1      -8.405   9.388  67.428  1.00  0.00    -0.125 A  
HETATM   39  C   UNL     1      -8.474   8.729  64.715  1.00  0.00    -0.179 A  
HETATM   40  C   UNL     1      -9.412   9.623  65.240  1.00  0.00    -0.342 A  
HETATM   41  C   UNL     1      -7.513   8.173  65.548  1.00  0.00    -0.081 A  
ENDBRANCH  20  35
ENDBRANCH  17  18
ENDBRANCH   2  17
TORSDOF 6
ENDMDL
MODEL       86
REMARK 921   NORMALIZED FREE ENERGY PREDICTED BY IDOCK:   -7.48 KCAL/MOL
REMARK 922        TOTAL FREE ENERGY PREDICTED BY IDOCK:  -11.01 KCAL/MOL
REMARK 923 INTER-LIGAND FREE ENERGY PREDICTED BY IDOCK:   -8.87 KCAL/MOL
REMARK 924 INTRA-LIGAND FREE ENERGY PREDICTED BY IDOCK:   -2.14 KCAL/MOL
REMARK 927      BINDING AFFINITY PREDICTED BY RF-SCORE:    0.00 PKD
ROOT
HETATM    1  C   UNL     1     -11.648  11.809  66.658  1.00  0.00    -0.273 C  
HETATM    2  C   UNL     1     -11.994  11.813  68.142  1.00  0.00    -0.143 C  
ENDROOT
BRANCH   2   3
HETATM    3  C   UNL     1     -11.332  12.951  68.892  1.00  0.00    -0.335 A  
HETATM    4  F   UNL     1     -13.496  15.873  71.142  1.00  0.00    -0.538 F  
HETATM    5  F   UNL     1     -11.650  16.849  71.740  1.00  0.00    -0.415 F  
HETATM    6  C   UNL     1     -10.118  13.438  68.393  1.00  0.00    -0.244 A  
HETATM    7  C   UNL     1      -9.613  14.670  68.806  1.00  0.00    -0.210 A  
HETATM    8  F   UNL     1     -12.229  14.966  72.660  1.00  0.00    -0.380 F  
HETATM    9  C   UNL     1      -8.437  15.277  68.074  1.00  0.00    -0.147 C  
HETATM   10  C   UNL     1     -10.288  15.376  69.813  1.00  0.00    -0.296 A  
HETATM   11  C   UNL     1     -12.199  15.630  71.473  1.00  0.00    -0.424 C  
HETATM   12  C   UNL     1     -11.461  14.864  70.398  1.00  0.00    -0.312 A  
HETATM   13  F   UNL     1      -7.841  14.415  67.204  1.00  0.00    -0.197 F  
HETATM   14  F   UNL     1      -8.809  16.354  67.335  1.00  0.00    -0.178 F  
HETATM   15  C   UNL     1     -11.981  13.650  69.923  1.00  0.00    -0.415 A  
HETATM   16  F   UNL     1      -7.459  15.705  68.912  1.00  0.00    -0.124 F  
ENDBRANCH   2   3
BRANCH   2  17
HETATM   17  O   UNL     1     -11.662  10.551  68.743  1.00  0.00    -0.239 OA 
BRANCH  17  18
HETATM   18  C   UNL     1     -10.936  10.672  69.991  1.00  0.00    -0.259 C  
HETATM   19  N   UNL     1     -10.125   8.282  70.084  1.00  0.00    -0.188 NA 
HETATM   20  C   UNL     1      -9.679   9.701  70.084  1.00  0.00    -0.254 C  
HETATM   21  O   UNL     1     -11.792  10.450  71.125  1.00  0.00    -0.356 OA 
HETATM   22  C   UNL     1     -12.262   9.097  71.135  1.00  0.00    -0.285 C  
HETATM   23  C   UNL     1     -11.104   8.092  71.181  1.00  0.00    -0.245 C  
BRANCH  19  24
HETATM   24  C   UNL     1      -9.094   7.230  70.078  1.00  0.00    -0.148 C  
BRANCH  24  25
HETATM   25  C   UNL     1      -9.338   6.109  69.084  1.00  0.00    -0.126 C  
HETATM   26  O   UNL     1      -8.297   5.844  65.129  1.00  0.00    -0.141 OA 
HETATM   27  O   UNL     1      -7.784   3.570  65.909  1.00  0.00    -0.080 OA 
HETATM   28  N   UNL     1      -9.466   4.857  69.447  1.00  0.00    -0.137 NA 
HETATM   29  O   UNL     1     -10.045   4.016  64.743  1.00  0.00    -0.201 OA 
HETATM   30  C   UNL     1      -9.532   4.147  68.268  1.00  0.00    -0.154 C  
HETATM   31  O   UNL     1      -9.416   2.934  68.158  1.00  0.00    -0.205 OA 
HETATM   32  P   UNL     1      -9.043   4.538  65.711  1.00  0.00    -0.155 P  
HETATM   33  N   UNL     1      -9.568   5.024  67.217  1.00  0.00    -0.139 N  
HETATM   34  N   UNL     1      -9.440   6.333  67.731  1.00  0.00    -0.119 NA 
ENDBRANCH  24  25
ENDBRANCH  19  24
BRANCH  20  35
HETATM   35  C   UNL     1      -8.653  10.092  69.023  1.00  0.00    -0.156 A  
HETATM   36  C   UNL     1      -6.691  11.398  68.385  1.00  0.00    -0.065 A  
HETATM   37  F   UNL     1      -6.125  11.584  66.101  1.00  0.00    -0.132 F  
HETATM   38  C   UNL     1      -7.555  10.909  69.369  1.00  0.00    -0.097 A  
HETATM   39  C   UNL     1      -7.988  10.264  66.687  1.00  0.00    -0.116 A  
HETATM   40  C   UNL     1      -8.844   9.762  67.672  1.00  0.00    -0.127 A  
HETATM   41  C   UNL     1      -6.927  11.082  67.049  1.00  0.00    -0.117 A  
ENDBRANCH  20  35
ENDBRANCH  17  18
ENDBRANCH   2  17
TORSDOF 6
ENDMDL
MODEL       87
REMARK 921   NORMALIZED FREE ENERGY PREDICTED BY IDOCK:   -7.47 KCAL/MOL
REMARK 922        TOTAL FREE ENERGY PREDICTED BY IDOCK:  -10.99 KCAL/MOL
REMARK 923 INTER-LIGAND FREE ENERGY PREDICTED BY IDOCK:   -9.09 KCAL/MOL
REMARK 924 INTRA-LIGAND FREE ENERGY PREDICTED BY IDOCK:   -1.90 KCAL/MOL
REMARK 927      BINDING AFFINITY PREDICTED BY RF-SCORE:    0.00 PKD
ROOT
HETATM    1  C   UNL     1      -6.380  13.943  69.094  1.00  0.00    -0.107 C  
HETATM    2  C   UNL     1      -7.137  13.344  67.915  1.00  0.00    -0.137 C  
ENDROOT
BRANCH   2   3
HETATM    3  C   UNL     1      -8.262  14.235  67.431  1.00  0.00    -0.217 A  
HETATM    4  F   UNL     1      -8.493  18.420  68.277  1.00  0.00    -0.271 F  
HETATM    5  F   UNL     1     -10.327  18.599  67.127  1.00  0.00    -0.338 F  
HETATM    6  C   UNL     1      -9.519  13.648  67.241  1.00  0.00    -0.230 A  
HETATM    7  C   UNL     1     -10.667  14.429  67.124  1.00  0.00    -0.283 A  
HETATM    8  F   UNL     1      -8.421  18.391  66.102  1.00  0.00    -0.283 F  
HETATM    9  C   UNL     1     -12.026  13.768  67.166  1.00  0.00    -0.405 C  
HETATM   10  C   UNL     1     -10.537  15.826  67.095  1.00  0.00    -0.313 A  
HETATM   11  C   UNL     1      -9.132  17.946  67.174  1.00  0.00    -0.251 C  
HETATM   12  C   UNL     1      -9.274  16.440  67.190  1.00  0.00    -0.225 A  
HETATM   13  F   UNL     1     -11.968  12.410  67.087  1.00  0.00    -0.421 F  
HETATM   14  F   UNL     1     -12.683  14.045  68.323  1.00  0.00    -0.113 F  
HETATM   15  C   UNL     1      -8.140  15.632  67.367  1.00  0.00    -0.195 A  
HETATM   16  F   UNL     1     -12.841  14.171  66.157  1.00  0.00    -0.496 F  
ENDBRANCH   2   3
BRANCH   2  17
HETATM   17  O   UNL     1      -7.634  12.036  68.245  1.00  0.00    -0.102 OA 
BRANCH  17  18
HETATM   18  C   UNL     1      -6.728  10.962  67.895  1.00  0.00    -0.064 C  
HETATM   19  N   UNL     1      -8.218   9.070  68.655  1.00  0.00    -0.117 NA 
HETATM   20  C   UNL     1      -7.474   9.616  67.489  1.00  0.00    -0.091 C  
HETATM   21  O   UNL     1      -5.798  10.687  68.957  1.00  0.00    -0.041 OA 
HETATM   22  C   UNL     1      -6.491  10.186  70.107  1.00  0.00    -0.118 C  
HETATM   23  C   UNL     1      -7.274   8.907  69.787  1.00  0.00    -0.055 C  
BRANCH  19  24
HETATM   24  C   UNL     1      -9.045   7.868  68.451  1.00  0.00    -0.135 C  
BRANCH  24  25
HETATM   25  C   UNL     1      -9.966   7.527  69.607  1.00  0.00    -0.184 C  
HETATM   26  O   UNL     1      -9.268   5.212  72.917  1.00  0.00    -0.134 OA 
HETATM   27  O   UNL     1     -10.512   7.089  73.903  1.00  0.00    -0.375 OA 
HETATM   28  N   UNL     1     -10.943   8.312  69.989  1.00  0.00    -0.232 NA 
HETATM   29  O   UNL     1     -11.781   4.920  73.301  1.00  0.00    -0.312 OA 
HETATM   30  C   UNL     1     -11.444   7.731  71.133  1.00  0.00    -0.274 C  
HETATM   31  O   UNL     1     -12.202   8.264  71.932  1.00  0.00    -0.301 OA 
HETATM   32  P   UNL     1     -10.732   5.885  72.871  1.00  0.00    -0.280 P  
HETATM   33  N   UNL     1     -10.822   6.527  71.334  1.00  0.00    -0.238 N  
HETATM   34  N   UNL     1      -9.836   6.368  70.336  1.00  0.00    -0.168 NA 
ENDBRANCH  24  25
ENDBRANCH  19  24
BRANCH  20  35
HETATM   35  C   UNL     1      -8.281   9.846  66.213  1.00  0.00    -0.114 A  
HETATM   36  C   UNL     1      -8.325  10.241  63.804  1.00  0.00    -0.165 A  
HETATM   37  F   UNL     1     -10.335  10.951  62.792  1.00  0.00    -0.290 F  
HETATM   38  C   UNL     1      -7.628   9.885  64.963  1.00  0.00    -0.134 A  
HETATM   39  C   UNL     1     -10.344  10.518  65.108  1.00  0.00    -0.310 A  
HETATM   40  C   UNL     1      -9.651  10.147  66.265  1.00  0.00    -0.245 A  
HETATM   41  C   UNL     1      -9.676  10.569  63.893  1.00  0.00    -0.325 A  
ENDBRANCH  20  35
ENDBRANCH  17  18
ENDBRANCH   2  17
TORSDOF 6
ENDMDL
MODEL       88
REMARK 921   NORMALIZED FREE ENERGY PREDICTED BY IDOCK:   -7.41 KCAL/MOL
REMARK 922        TOTAL FREE ENERGY PREDICTED BY IDOCK:  -10.91 KCAL/MOL
REMARK 923 INTER-LIGAND FREE ENERGY PREDICTED BY IDOCK:  -10.01 KCAL/MOL
REMARK 924 INTRA-LIGAND FREE ENERGY PREDICTED BY IDOCK:   -0.91 KCAL/MOL
REMARK 927      BINDING AFFINITY PREDICTED BY RF-SCORE:    0.00 PKD
ROOT
HETATM    1  C   UNL     1      -8.780   8.251  65.073  1.00  0.00    -0.048 C  
HETATM    2  C   UNL     1      -8.735   8.226  66.596  1.00  0.00    -0.136 C  
ENDROOT
BRANCH   2   3
HETATM    3  C   UNL     1      -9.226   6.914  67.173  1.00  0.00    -0.153 A  
HETATM    4  F   UNL     1      -9.559   6.155  71.368  1.00  0.00    -0.161 F  
HETATM    5  F   UNL     1     -10.342   4.164  70.993  1.00  0.00    -0.221 F  
HETATM    6  C   UNL     1      -9.000   5.751  66.426  1.00  0.00    -0.139 A  
HETATM    7  C   UNL     1      -9.111   4.490  67.008  1.00  0.00    -0.133 A  
HETATM    8  F   UNL     1     -11.611   5.903  70.688  1.00  0.00    -0.359 F  
HETATM    9  C   UNL     1      -8.627   3.274  66.250  1.00  0.00    -0.121 C  
HETATM   10  C   UNL     1      -9.555   4.392  68.335  1.00  0.00    -0.203 A  
HETATM   11  C   UNL     1     -10.343   5.441  70.515  1.00  0.00    -0.274 C  
HETATM   12  C   UNL     1      -9.878   5.542  69.080  1.00  0.00    -0.220 A  
HETATM   13  F   UNL     1      -8.331   3.534  64.946  1.00  0.00    -0.094 F  
HETATM   14  F   UNL     1      -7.491   2.765  66.794  1.00  0.00    -0.065 F  
HETATM   15  C   UNL     1      -9.702   6.803  68.489  1.00  0.00    -0.133 A  
HETATM   16  F   UNL     1      -9.534   2.264  66.238  1.00  0.00    -0.090 F  
ENDBRANCH   2   3
BRANCH   2  17
HETATM   17  O   UNL     1      -9.478   9.328  67.143  1.00  0.00    -0.141 OA 
BRANCH  17  18
HETATM   18  C   UNL     1      -8.713  10.152  68.057  1.00  0.00    -0.122 C  
HETATM   19  N   UNL     1     -10.102  12.244  67.790  1.00  0.00    -0.197 NA 
HETATM   20  C   UNL     1      -9.588  11.265  68.784  1.00  0.00    -0.151 C  
HETATM   21  O   UNL     1      -7.599  10.779  67.398  1.00  0.00    -0.095 OA 
HETATM   22  C   UNL     1      -8.065  11.708  66.412  1.00  0.00    -0.023 C  
HETATM   23  C   UNL     1      -8.955  12.794  67.028  1.00  0.00    -0.221 C  
BRANCH  19  24
HETATM   24  C   UNL     1     -11.008  13.304  68.264  1.00  0.00    -0.256 C  
BRANCH  24  25
HETATM   25  C   UNL     1     -10.938  14.598  67.474  1.00  0.00    -0.298 C  
HETATM   26  O   UNL     1      -8.763  17.996  68.201  1.00  0.00    -0.258 OA 
HETATM   27  O   UNL     1      -8.493  17.769  65.768  1.00  0.00    -0.519 OA 
HETATM   28  N   UNL     1     -11.161  14.654  66.184  1.00  0.00    -0.329 NA 
HETATM   29  O   UNL     1     -10.307  19.364  66.687  1.00  0.00    -0.385 OA 
HETATM   30  C   UNL     1     -10.869  15.950  65.825  1.00  0.00    -0.254 C  
HETATM   31  O   UNL     1     -10.718  16.358  64.681  1.00  0.00    -0.693 OA 
HETATM   32  P   UNL     1      -9.641  18.043  66.849  1.00  0.00    -0.321 P  
HETATM   33  N   UNL     1     -10.595  16.678  66.953  1.00  0.00    -0.274 N  
HETATM   34  N   UNL     1     -10.633  15.804  68.060  1.00  0.00    -0.270 NA 
ENDBRANCH  24  25
ENDBRANCH  19  24
BRANCH  20  35
HETATM   35  C   UNL     1     -10.627  10.592  69.678  1.00  0.00    -0.260 A  
HETATM   36  C   UNL     1     -12.890  10.548  70.594  1.00  0.00    -0.407 A  
HETATM   37  F   UNL     1     -13.362   9.140  72.428  1.00  0.00    -0.404 F  
HETATM   38  C   UNL     1     -11.962  11.051  69.677  1.00  0.00    -0.424 A  
HETATM   39  C   UNL     1     -11.183   9.110  71.528  1.00  0.00    -0.430 A  
HETATM   40  C   UNL     1     -10.258   9.602  70.602  1.00  0.00    -0.346 A  
HETATM   41  C   UNL     1     -12.485   9.592  71.522  1.00  0.00    -0.376 A  
ENDBRANCH  20  35
ENDBRANCH  17  18
ENDBRANCH   2  17
TORSDOF 6
ENDMDL
MODEL       89
REMARK 921   NORMALIZED FREE ENERGY PREDICTED BY IDOCK:   -7.41 KCAL/MOL
REMARK 922        TOTAL FREE ENERGY PREDICTED BY IDOCK:  -10.91 KCAL/MOL
REMARK 923 INTER-LIGAND FREE ENERGY PREDICTED BY IDOCK:  -10.87 KCAL/MOL
REMARK 924 INTRA-LIGAND FREE ENERGY PREDICTED BY IDOCK:   -0.04 KCAL/MOL
REMARK 927      BINDING AFFINITY PREDICTED BY RF-SCORE:    0.00 PKD
ROOT
HETATM    1  C   UNL     1      -7.511  10.232  69.895  1.00  0.00    -0.165 C  
HETATM    2  C   UNL     1      -9.012  10.061  69.703  1.00  0.00    -0.202 C  
ENDROOT
BRANCH   2   3
HETATM    3  C   UNL     1      -9.448   8.611  69.768  1.00  0.00    -0.166 A  
HETATM    4  F   UNL     1     -10.109   6.185  66.309  1.00  0.00    -0.202 F  
HETATM    5  F   UNL     1     -10.595   4.469  67.548  1.00  0.00    -0.083 F  
HETATM    6  C   UNL     1     -10.220   8.214  70.867  1.00  0.00    -0.216 A  
HETATM    7  C   UNL     1     -10.932   7.017  70.850  1.00  0.00    -0.282 A  
HETATM    8  F   UNL     1      -8.526   5.103  67.337  1.00  0.00    -0.106 F  
HETATM    9  C   UNL     1     -11.942   6.734  71.940  1.00  0.00    -0.333 C  
HETATM   10  C   UNL     1     -10.787   6.156  69.751  1.00  0.00    -0.421 A  
HETATM   11  C   UNL     1      -9.796   5.571  67.482  1.00  0.00    -0.144 C  
HETATM   12  C   UNL     1      -9.944   6.489  68.674  1.00  0.00    -0.155 A  
HETATM   13  F   UNL     1     -11.876   7.616  72.976  1.00  0.00    -0.299 F  
HETATM   14  F   UNL     1     -13.216   6.803  71.473  1.00  0.00    -0.381 F  
HETATM   15  C   UNL     1      -9.283   7.728  68.689  1.00  0.00    -0.138 A  
HETATM   16  F   UNL     1     -11.798   5.499  72.484  1.00  0.00    -0.338 F  
ENDBRANCH   2   3
BRANCH   2  17
HETATM   17  O   UNL     1      -9.437  10.660  68.467  1.00  0.00    -0.161 OA 
BRANCH  17  18
HETATM   18  C   UNL     1     -10.845  10.475  68.182  1.00  0.00    -0.253 C  
HETATM   19  N   UNL     1     -11.249  12.775  67.221  1.00  0.00    -0.280 NA 
HETATM   20  C   UNL     1     -11.350  11.320  66.931  1.00  0.00    -0.155 C  
HETATM   21  O   UNL     1     -11.661  10.783  69.324  1.00  0.00    -0.286 OA 
HETATM   22  C   UNL     1     -11.560  12.176  69.645  1.00  0.00    -0.291 C  
HETATM   23  C   UNL     1     -11.990  13.063  68.472  1.00  0.00    -0.261 C  
BRANCH  19  24
HETATM   24  C   UNL     1     -11.591  13.723  66.146  1.00  0.00    -0.352 C  
BRANCH  24  25
HETATM   25  C   UNL     1     -10.995  15.109  66.309  1.00  0.00    -0.335 C  
HETATM   26  O   UNL     1     -10.451  17.343  69.702  1.00  0.00    -0.176 OA 
HETATM   27  O   UNL     1      -8.342  17.765  68.511  1.00  0.00    -0.290 OA 
HETATM   28  N   UNL     1     -10.108  15.600  65.479  1.00  0.00    -0.360 NA 
HETATM   29  O   UNL     1     -10.259  19.486  68.316  1.00  0.00    -0.412 OA 
HETATM   30  C   UNL     1      -9.720  16.798  66.037  1.00  0.00    -0.259 C  
HETATM   31  O   UNL     1      -8.743  17.456  65.706  1.00  0.00    -0.522 OA 
HETATM   32  P   UNL     1      -9.911  18.039  68.351  1.00  0.00    -0.404 P  
HETATM   33  N   UNL     1     -10.492  17.050  67.140  1.00  0.00    -0.313 N  
HETATM   34  N   UNL     1     -11.345  15.945  67.343  1.00  0.00    -0.132 NA 
ENDBRANCH  24  25
ENDBRANCH  19  24
BRANCH  20  35
HETATM   35  C   UNL     1     -10.651  10.827  65.667  1.00  0.00    -0.199 A  
HETATM   36  C   UNL     1      -8.917   9.455  64.630  1.00  0.00    -0.233 A  
HETATM   37  F   UNL     1      -8.382   9.801  62.358  1.00  0.00    -0.121 F  
HETATM   38  C   UNL     1      -9.671   9.815  65.751  1.00  0.00    -0.340 A  
HETATM   39  C   UNL     1     -10.105  11.098  63.310  1.00  0.00    -0.426 A  
HETATM   40  C   UNL     1     -10.870  11.447  64.427  1.00  0.00    -0.397 A  
HETATM   41  C   UNL     1      -9.132  10.114  63.422  1.00  0.00    -0.276 A  
ENDBRANCH  20  35
ENDBRANCH  17  18
ENDBRANCH   2  17
TORSDOF 6
ENDMDL
MODEL       90
REMARK 921   NORMALIZED FREE ENERGY PREDICTED BY IDOCK:   -7.40 KCAL/MOL
REMARK 922        TOTAL FREE ENERGY PREDICTED BY IDOCK:  -10.90 KCAL/MOL
REMARK 923 INTER-LIGAND FREE ENERGY PREDICTED BY IDOCK:   -8.65 KCAL/MOL
REMARK 924 INTRA-LIGAND FREE ENERGY PREDICTED BY IDOCK:   -2.25 KCAL/MOL
REMARK 927      BINDING AFFINITY PREDICTED BY RF-SCORE:    0.00 PKD
ROOT
HETATM    1  C   UNL     1      -7.892   7.378  64.389  1.00  0.00    -0.127 C  
HETATM    2  C   UNL     1      -7.696   7.325  65.899  1.00  0.00    -0.097 C  
ENDROOT
BRANCH   2   3
HETATM    3  C   UNL     1      -8.481   6.205  66.550  1.00  0.00    -0.119 A  
HETATM    4  F   UNL     1      -9.564   6.173  70.687  1.00  0.00    -0.170 F  
HETATM    5  F   UNL     1     -10.603   4.281  70.449  1.00  0.00    -0.090 F  
HETATM    6  C   UNL     1      -8.343   4.918  66.014  1.00  0.00    -0.113 A  
HETATM    7  C   UNL     1      -8.750   3.794  66.730  1.00  0.00    -0.120 A  
HETATM    8  F   UNL     1     -11.503   6.114  69.701  1.00  0.00    -0.442 F  
HETATM    9  C   UNL     1      -8.367   2.417  66.235  1.00  0.00    -0.094 C  
HETATM   10  C   UNL     1      -9.398   3.971  67.961  1.00  0.00    -0.220 A  
HETATM   11  C   UNL     1     -10.318   5.453  69.814  1.00  0.00    -0.305 C  
HETATM   12  C   UNL     1      -9.633   5.258  68.480  1.00  0.00    -0.180 A  
HETATM   13  F   UNL     1      -7.840   2.423  64.979  1.00  0.00    -0.072 F  
HETATM   14  F   UNL     1      -7.427   1.842  67.030  1.00  0.00    -0.055 F  
HETATM   15  C   UNL     1      -9.161   6.372  67.767  1.00  0.00    -0.111 A  
HETATM   16  F   UNL     1      -9.418   1.558  66.200  1.00  0.00    -0.060 F  
ENDBRANCH   2   3
BRANCH   2  17
HETATM   17  O   UNL     1      -8.028   8.589  66.498  1.00  0.00    -0.097 OA 
BRANCH  17  18
HETATM   18  C   UNL     1      -7.046   9.058  67.454  1.00  0.00    -0.079 C  
HETATM   19  N   UNL     1      -7.807  11.466  67.490  1.00  0.00    -0.120 NA 
HETATM   20  C   UNL     1      -7.564  10.272  68.343  1.00  0.00    -0.092 C  
HETATM   21  O   UNL     1      -5.816   9.431  66.810  1.00  0.00    -0.053 OA 
HETATM   22  C   UNL     1      -6.027  10.563  65.957  1.00  0.00    -0.111 C  
HETATM   23  C   UNL     1      -6.568  11.769  66.733  1.00  0.00    -0.060 C  
BRANCH  19  24
HETATM   24  C   UNL     1      -8.374  12.669  68.124  1.00  0.00    -0.175 C  
BRANCH  24  25
HETATM   25  C   UNL     1      -9.587  13.245  67.417  1.00  0.00    -0.223 C  
HETATM   26  O   UNL     1     -11.025  12.500  63.652  1.00  0.00    -0.421 OA 
HETATM   27  O   UNL     1     -13.109  12.565  64.953  1.00  0.00    -0.833 OA 
HETATM   28  N   UNL     1     -10.642  13.679  68.062  1.00  0.00    -0.244 NA 
HETATM   29  O   UNL     1     -12.359  14.683  63.679  1.00  0.00    -0.674 OA 
HETATM   30  C   UNL     1     -11.560  13.986  67.083  1.00  0.00    -0.372 C  
HETATM   31  O   UNL     1     -12.752  14.197  67.263  1.00  0.00     0.067 OA 
HETATM   32  P   UNL     1     -11.914  13.534  64.513  1.00  0.00    -0.435 P  
HETATM   33  N   UNL     1     -10.972  13.840  65.854  1.00  0.00    -0.282 N  
HETATM   34  N   UNL     1      -9.663  13.350  66.048  1.00  0.00    -0.253 NA 
ENDBRANCH  24  25
ENDBRANCH  19  24
BRANCH  20  35
HETATM   35  C   UNL     1      -8.730   9.807  69.212  1.00  0.00    -0.165 A  
HETATM   36  C   UNL     1     -11.139   9.665  69.587  1.00  0.00    -0.223 A  
HETATM   37  F   UNL     1     -11.937   9.023  71.712  1.00  0.00    -0.342 F  
HETATM   38  C   UNL     1     -10.056   9.947  68.749  1.00  0.00    -0.186 A  
HETATM   39  C   UNL     1      -9.606   9.088  71.367  1.00  0.00    -0.356 A  
HETATM   40  C   UNL     1      -8.523   9.354  70.525  1.00  0.00    -0.251 A  
HETATM   41  C   UNL     1     -10.901   9.252  70.895  1.00  0.00    -0.296 A  
ENDBRANCH  20  35
ENDBRANCH  17  18
ENDBRANCH   2  17
TORSDOF 6
ENDMDL
MODEL       91
REMARK 921   NORMALIZED FREE ENERGY PREDICTED BY IDOCK:   -7.39 KCAL/MOL
REMARK 922        TOTAL FREE ENERGY PREDICTED BY IDOCK:  -10.88 KCAL/MOL
REMARK 923 INTER-LIGAND FREE ENERGY PREDICTED BY IDOCK:  -10.83 KCAL/MOL
REMARK 924 INTRA-LIGAND FREE ENERGY PREDICTED BY IDOCK:   -0.05 KCAL/MOL
REMARK 927      BINDING AFFINITY PREDICTED BY RF-SCORE:    0.00 PKD
ROOT
HETATM    1  C   UNL     1      -7.580   9.681  70.042  1.00  0.00    -0.151 C  
HETATM    2  C   UNL     1      -9.094   9.702  70.200  1.00  0.00    -0.240 C  
ENDROOT
BRANCH   2   3
HETATM    3  C   UNL     1      -9.713   8.326  70.074  1.00  0.00    -0.176 A  
HETATM    4  F   UNL     1      -9.552   5.371  73.161  1.00  0.00    -0.144 F  
HETATM    5  F   UNL     1     -10.711   3.983  71.958  1.00  0.00    -0.168 F  
HETATM    6  C   UNL     1      -9.803   7.768  68.792  1.00  0.00    -0.171 A  
HETATM    7  C   UNL     1     -10.041   6.407  68.614  1.00  0.00    -0.179 A  
HETATM    8  F   UNL     1     -11.694   5.669  72.917  1.00  0.00    -0.319 F  
HETATM    9  C   UNL     1      -9.890   5.797  67.239  1.00  0.00    -0.141 C  
HETATM   10  C   UNL     1     -10.296   5.610  69.741  1.00  0.00    -0.352 A  
HETATM   11  C   UNL     1     -10.563   5.305  72.253  1.00  0.00    -0.222 C  
HETATM   12  C   UNL     1     -10.304   6.164  71.035  1.00  0.00    -0.260 A  
HETATM   13  F   UNL     1      -9.749   6.723  66.251  1.00  0.00    -0.207 F  
HETATM   14  F   UNL     1      -8.791   5.001  67.163  1.00  0.00    -0.109 F  
HETATM   15  C   UNL     1     -10.002   7.526  71.191  1.00  0.00    -0.187 A  
HETATM   16  F   UNL     1     -10.948   5.023  66.886  1.00  0.00    -0.237 F  
ENDBRANCH   2   3
BRANCH   2  17
HETATM   17  O   UNL     1      -9.690  10.612  69.259  1.00  0.00    -0.209 OA 
BRANCH  17  18
HETATM   18  C   UNL     1     -11.098  10.367  69.022  1.00  0.00    -0.248 C  
HETATM   19  N   UNL     1     -11.737  12.770  68.582  1.00  0.00    -0.307 NA 
HETATM   20  C   UNL     1     -11.754  11.400  68.004  1.00  0.00    -0.254 C  
HETATM   21  O   UNL     1     -11.849  10.367  70.248  1.00  0.00    -0.270 OA 
HETATM   22  C   UNL     1     -11.826  11.669  70.844  1.00  0.00     0.135 C  
HETATM   23  C   UNL     1     -12.404  12.735  69.906  1.00  0.00    -0.070 C  
BRANCH  19  24
HETATM   24  C   UNL     1     -12.225  13.882  67.748  1.00  0.00    -0.182 C  
BRANCH  24  25
HETATM   25  C   UNL     1     -11.354  15.124  67.773  1.00  0.00    -0.328 C  
HETATM   26  O   UNL     1     -10.866  18.038  64.933  1.00  0.00    -0.715 OA 
HETATM   27  O   UNL     1     -10.955  19.386  66.987  1.00  0.00    -0.467 OA 
HETATM   28  N   UNL     1     -11.012  15.726  68.885  1.00  0.00    -0.263 NA 
HETATM   29  O   UNL     1      -8.653  18.766  65.991  1.00  0.00    -0.481 OA 
HETATM   30  C   UNL     1     -10.352  16.868  68.486  1.00  0.00    -0.336 C  
HETATM   31  O   UNL     1     -10.078  17.822  69.202  1.00  0.00    -0.322 OA 
HETATM   32  P   UNL     1     -10.029  18.282  66.289  1.00  0.00    -0.278 P  
HETATM   33  N   UNL     1     -10.207  16.850  67.124  1.00  0.00    -0.291 N  
HETATM   34  N   UNL     1     -10.864  15.704  66.626  1.00  0.00    -0.299 NA 
ENDBRANCH  24  25
ENDBRANCH  19  24
BRANCH  20  35
HETATM   35  C   UNL     1     -11.115  11.234  66.627  1.00  0.00    -0.299 A  
HETATM   36  C   UNL     1     -11.131  11.727  64.236  1.00  0.00    -0.420 A  
HETATM   37  F   UNL     1      -9.756  10.465  62.791  1.00  0.00    -0.308 F  
HETATM   38  C   UNL     1     -11.603  11.974  65.529  1.00  0.00    -0.352 A  
HETATM   39  C   UNL     1      -9.668  10.006  65.101  1.00  0.00    -0.380 A  
HETATM   40  C   UNL     1     -10.128  10.263  66.397  1.00  0.00    -0.296 A  
HETATM   41  C   UNL     1     -10.177  10.732  64.034  1.00  0.00    -0.322 A  
ENDBRANCH  20  35
ENDBRANCH  17  18
ENDBRANCH   2  17
TORSDOF 6
ENDMDL
MODEL       92
REMARK 921   NORMALIZED FREE ENERGY PREDICTED BY IDOCK:   -7.38 KCAL/MOL
REMARK 922        TOTAL FREE ENERGY PREDICTED BY IDOCK:  -10.88 KCAL/MOL
REMARK 923 INTER-LIGAND FREE ENERGY PREDICTED BY IDOCK:   -9.20 KCAL/MOL
REMARK 924 INTRA-LIGAND FREE ENERGY PREDICTED BY IDOCK:   -1.67 KCAL/MOL
REMARK 927      BINDING AFFINITY PREDICTED BY RF-SCORE:    0.00 PKD
ROOT
HETATM    1  C   UNL     1      -7.479   8.639  71.392  1.00  0.00    -0.124 C  
HETATM    2  C   UNL     1      -8.981   8.576  71.643  1.00  0.00    -0.219 C  
ENDROOT
BRANCH   2   3
HETATM    3  C   UNL     1      -9.561   7.204  71.365  1.00  0.00    -0.163 A  
HETATM    4  F   UNL     1     -10.639   4.430  74.436  1.00  0.00    -0.248 F  
HETATM    5  F   UNL     1     -11.332   2.994  72.961  1.00  0.00    -0.206 F  
HETATM    6  C   UNL     1      -9.199   6.576  70.167  1.00  0.00    -0.158 A  
HETATM    7  C   UNL     1      -9.406   5.211  69.980  1.00  0.00    -0.201 A  
HETATM    8  F   UNL     1     -12.534   4.749  73.414  1.00  0.00    -0.186 F  
HETATM    9  C   UNL     1      -8.788   4.520  68.786  1.00  0.00    -0.101 C  
HETATM   10  C   UNL     1     -10.081   4.485  70.973  1.00  0.00    -0.222 A  
HETATM   11  C   UNL     1     -11.253   4.329  73.226  1.00  0.00    -0.241 C  
HETATM   12  C   UNL     1     -10.538   5.112  72.147  1.00  0.00    -0.273 A  
HETATM   13  F   UNL     1      -8.264   5.385  67.874  1.00  0.00    -0.098 F  
HETATM   14  F   UNL     1      -7.766   3.703  69.153  1.00  0.00    -0.052 F  
HETATM   15  C   UNL     1     -10.265   6.476  72.337  1.00  0.00    -0.204 A  
HETATM   16  F   UNL     1      -9.673   3.745  68.108  1.00  0.00    -0.226 F  
ENDBRANCH   2   3
BRANCH   2  17
HETATM   17  O   UNL     1      -9.665   9.579  70.874  1.00  0.00    -0.259 OA 
BRANCH  17  18
HETATM   18  C   UNL     1     -10.861   9.094  70.216  1.00  0.00    -0.246 C  
HETATM   19  N   UNL     1     -11.356  11.207  68.924  1.00  0.00    -0.250 NA 
HETATM   20  C   UNL     1     -11.102   9.749  68.785  1.00  0.00    -0.095 C  
HETATM   21  O   UNL     1     -12.030   9.291  71.030  1.00  0.00    -0.291 OA 
HETATM   22  C   UNL     1     -12.283  10.690  71.206  1.00  0.00    -0.341 C  
HETATM   23  C   UNL     1     -12.484  11.405  69.865  1.00  0.00    -0.125 C  
BRANCH  19  24
HETATM   24  C   UNL     1     -11.516  12.005  67.696  1.00  0.00    -0.322 C  
BRANCH  24  25
HETATM   25  C   UNL     1     -10.745  13.312  67.684  1.00  0.00    -0.239 C  
HETATM   26  O   UNL     1     -10.891  16.412  65.006  1.00  0.00    -0.591 OA 
HETATM   27  O   UNL     1     -10.785  17.630  67.138  1.00  0.00    -0.306 OA 
HETATM   28  N   UNL     1     -10.294  13.878  68.775  1.00  0.00    -0.231 NA 
HETATM   29  O   UNL     1      -8.610  17.262  65.794  1.00  0.00    -0.532 OA 
HETATM   30  C   UNL     1      -9.785  15.091  68.367  1.00  0.00    -0.216 C  
HETATM   31  O   UNL     1      -9.484  16.023  69.101  1.00  0.00    -0.228 OA 
HETATM   32  P   UNL     1      -9.888  16.649  66.246  1.00  0.00    -0.313 P  
HETATM   33  N   UNL     1      -9.837  15.162  67.000  1.00  0.00    -0.228 N  
HETATM   34  N   UNL     1     -10.470  13.995  66.522  1.00  0.00    -0.278 NA 
ENDBRANCH  24  25
ENDBRANCH  19  24
BRANCH  20  35
HETATM   35  C   UNL     1      -9.972   9.341  67.842  1.00  0.00    -0.228 A  
HETATM   36  C   UNL     1      -9.132   7.851  66.098  1.00  0.00    -0.210 A  
HETATM   37  F   UNL     1      -6.826   7.852  65.598  1.00  0.00    -0.050 F  
HETATM   38  C   UNL     1     -10.191   8.342  66.869  1.00  0.00    -0.388 A  
HETATM   39  C   UNL     1      -7.613   9.347  67.241  1.00  0.00    -0.091 A  
HETATM   40  C   UNL     1      -8.673   9.849  68.002  1.00  0.00    -0.125 A  
HETATM   41  C   UNL     1      -7.848   8.350  66.305  1.00  0.00    -0.098 A  
ENDBRANCH  20  35
ENDBRANCH  17  18
ENDBRANCH   2  17
TORSDOF 6
ENDMDL
MODEL       93
REMARK 921   NORMALIZED FREE ENERGY PREDICTED BY IDOCK:   -7.38 KCAL/MOL
REMARK 922        TOTAL FREE ENERGY PREDICTED BY IDOCK:  -10.87 KCAL/MOL
REMARK 923 INTER-LIGAND FREE ENERGY PREDICTED BY IDOCK:   -7.78 KCAL/MOL
REMARK 924 INTRA-LIGAND FREE ENERGY PREDICTED BY IDOCK:   -3.08 KCAL/MOL
REMARK 927      BINDING AFFINITY PREDICTED BY RF-SCORE:    0.00 PKD
ROOT
HETATM    1  C   UNL     1     -11.365   6.168  66.999  1.00  0.00     0.017 C  
HETATM    2  C   UNL     1     -10.145   6.510  67.844  1.00  0.00    -0.147 C  
ENDROOT
BRANCH   2   3
HETATM    3  C   UNL     1     -10.429   6.449  69.331  1.00  0.00    -0.277 A  
HETATM    4  F   UNL     1     -10.149   2.863  71.644  1.00  0.00    -0.237 F  
HETATM    5  F   UNL     1     -10.682   3.935  73.457  1.00  0.00    -0.205 F  
HETATM    6  C   UNL     1     -11.353   7.362  69.853  1.00  0.00    -0.098 A  
HETATM    7  C   UNL     1     -11.919   7.172  71.112  1.00  0.00    -0.381 A  
HETATM    8  F   UNL     1      -8.690   4.155  72.614  1.00  0.00    -0.099 F  
HETATM    9  C   UNL     1     -13.085   8.033  71.543  1.00  0.00    -0.296 C  
HETATM   10  C   UNL     1     -11.474   6.102  71.902  1.00  0.00    -0.355 A  
HETATM   11  C   UNL     1     -10.006   4.058  72.280  1.00  0.00    -0.169 C  
HETATM   12  C   UNL     1     -10.478   5.222  71.437  1.00  0.00    -0.273 A  
HETATM   13  F   UNL     1     -13.315   9.086  70.709  1.00  0.00    -0.137 F  
HETATM   14  F   UNL     1     -14.245   7.326  71.578  1.00  0.00    -0.468 F  
HETATM   15  C   UNL     1      -9.966   5.400  70.142  1.00  0.00    -0.301 A  
HETATM   16  F   UNL     1     -12.921   8.562  72.783  1.00  0.00    -0.371 F  
ENDBRANCH   2   3
BRANCH   2  17
HETATM   17  O   UNL     1      -9.622   7.799  67.482  1.00  0.00    -0.140 OA 
BRANCH  17  18
HETATM   18  C   UNL     1      -8.180   7.827  67.346  1.00  0.00    -0.123 C  
HETATM   19  N   UNL     1      -7.908  10.314  67.686  1.00  0.00    -0.098 NA 
HETATM   20  C   UNL     1      -7.490   8.981  68.196  1.00  0.00    -0.084 C  
HETATM   21  O   UNL     1      -7.781   7.948  65.970  1.00  0.00    -0.087 OA 
HETATM   22  C   UNL     1      -8.197   9.213  65.442  1.00  0.00    -0.130 C  
HETATM   23  C   UNL     1      -7.606  10.384  66.236  1.00  0.00    -0.127 C  
BRANCH  19  24
HETATM   24  C   UNL     1      -7.437  11.511  68.405  1.00  0.00    -0.109 C  
BRANCH  24  25
HETATM   25  C   UNL     1      -8.336  12.727  68.269  1.00  0.00    -0.161 C  
HETATM   26  O   UNL     1      -7.529  16.413  66.669  1.00  0.00    -0.231 OA 
HETATM   27  O   UNL     1      -9.789  16.000  65.796  1.00  0.00    -0.313 OA 
HETATM   28  N   UNL     1      -9.639  12.637  68.175  1.00  0.00    -0.216 NA 
HETATM   29  O   UNL     1      -9.509  17.442  67.921  1.00  0.00    -0.255 OA 
HETATM   30  C   UNL     1     -10.071  13.921  67.929  1.00  0.00    -0.242 C  
HETATM   31  O   UNL     1     -11.189  14.238  67.544  1.00  0.00    -0.285 OA 
HETATM   32  P   UNL     1      -9.042  16.231  67.193  1.00  0.00    -0.218 P  
HETATM   33  N   UNL     1      -9.004  14.776  68.008  1.00  0.00    -0.170 N  
HETATM   34  N   UNL     1      -7.840  14.009  68.232  1.00  0.00    -0.130 NA 
ENDBRANCH  24  25
ENDBRANCH  19  24
BRANCH  20  35
HETATM   35  C   UNL     1      -7.713   8.721  69.684  1.00  0.00    -0.088 A  
HETATM   36  C   UNL     1      -7.280   7.353  71.661  1.00  0.00    -0.071 A  
HETATM   37  F   UNL     1      -8.626   7.644  73.577  1.00  0.00    -0.164 F  
HETATM   38  C   UNL     1      -6.985   7.705  70.340  1.00  0.00    -0.047 A  
HETATM   39  C   UNL     1      -9.029   9.024  71.710  1.00  0.00    -0.078 A  
HETATM   40  C   UNL     1      -8.724   9.387  70.395  1.00  0.00    -0.278 A  
HETATM   41  C   UNL     1      -8.313   8.008  72.327  1.00  0.00    -0.144 A  
ENDBRANCH  20  35
ENDBRANCH  17  18
ENDBRANCH   2  17
TORSDOF 6
ENDMDL
MODEL       94
REMARK 921   NORMALIZED FREE ENERGY PREDICTED BY IDOCK:   -7.37 KCAL/MOL
REMARK 922        TOTAL FREE ENERGY PREDICTED BY IDOCK:  -10.86 KCAL/MOL
REMARK 923 INTER-LIGAND FREE ENERGY PREDICTED BY IDOCK:   -9.49 KCAL/MOL
REMARK 924 INTRA-LIGAND FREE ENERGY PREDICTED BY IDOCK:   -1.37 KCAL/MOL
REMARK 927      BINDING AFFINITY PREDICTED BY RF-SCORE:    0.00 PKD
ROOT
HETATM    1  C   UNL     1     -10.514  14.876  69.614  1.00  0.00    -0.182 C  
HETATM    2  C   UNL     1      -9.269  14.941  68.739  1.00  0.00    -0.193 C  
ENDROOT
BRANCH   2   3
HETATM    3  C   UNL     1      -8.841  16.362  68.437  1.00  0.00    -0.214 A  
HETATM    4  F   UNL     1     -11.592  19.581  67.840  1.00  0.00    -0.077 F  
HETATM    5  F   UNL     1      -9.960  20.987  67.562  1.00  0.00    -0.588 F  
HETATM    6  C   UNL     1      -7.633  16.545  67.752  1.00  0.00    -0.162 A  
HETATM    7  C   UNL     1      -7.327  17.763  67.147  1.00  0.00    -0.208 A  
HETATM    8  F   UNL     1     -10.444  20.266  69.556  1.00  0.00    -0.430 F  
HETATM    9  C   UNL     1      -6.139  17.854  66.216  1.00  0.00    -0.206 C  
HETATM   10  C   UNL     1      -8.202  18.845  67.320  1.00  0.00    -0.287 A  
HETATM   11  C   UNL     1     -10.331  19.875  68.258  1.00  0.00    -0.393 C  
HETATM   12  C   UNL     1      -9.378  18.714  68.082  1.00  0.00    -0.347 A  
HETATM   13  F   UNL     1      -5.342  16.750  66.249  1.00  0.00    -0.125 F  
HETATM   14  F   UNL     1      -6.527  17.994  64.921  1.00  0.00    -0.141 F  
HETATM   15  C   UNL     1      -9.693  17.461  68.631  1.00  0.00    -0.308 A  
HETATM   16  F   UNL     1      -5.333  18.911  66.491  1.00  0.00    -0.142 F  
ENDBRANCH   2   3
BRANCH   2  17
HETATM   17  O   UNL     1      -9.466  14.203  67.521  1.00  0.00    -0.201 OA 
BRANCH  17  18
HETATM   18  C   UNL     1     -10.858  14.066  67.141  1.00  0.00    -0.286 C  
HETATM   19  N   UNL     1     -10.527  12.153  65.525  1.00  0.00    -0.256 NA 
HETATM   20  C   UNL     1     -11.259  12.576  66.749  1.00  0.00    -0.296 C  
HETATM   21  O   UNL     1     -11.201  14.950  66.061  1.00  0.00    -0.337 OA 
HETATM   22  C   UNL     1     -10.487  14.584  64.874  1.00  0.00    -0.409 C  
HETATM   23  C   UNL     1     -10.787  13.141  64.451  1.00  0.00    -0.397 C  
BRANCH  19  24
HETATM   24  C   UNL     1     -10.702  10.768  65.055  1.00  0.00    -0.090 C  
BRANCH  24  25
HETATM   25  C   UNL     1      -9.689   9.779  65.602  1.00  0.00    -0.288 C  
HETATM   26  O   UNL     1     -10.155   5.828  66.585  1.00  0.00    -0.166 OA 
HETATM   27  O   UNL     1      -7.967   5.785  65.468  1.00  0.00    -0.103 OA 
HETATM   28  N   UNL     1      -8.404   9.884  65.374  1.00  0.00    -0.139 NA 
HETATM   29  O   UNL     1      -8.057   5.896  68.047  1.00  0.00    -0.104 OA 
HETATM   30  C   UNL     1      -7.850   8.742  65.911  1.00  0.00    -0.102 C  
HETATM   31  O   UNL     1      -6.715   8.335  65.706  1.00  0.00    -0.052 OA 
HETATM   32  P   UNL     1      -8.657   6.391  66.779  1.00  0.00    -0.120 P  
HETATM   33  N   UNL     1      -8.825   8.036  66.566  1.00  0.00    -0.143 N  
HETATM   34  N   UNL     1     -10.054   8.702  66.376  1.00  0.00    -0.274 NA 
ENDBRANCH  24  25
ENDBRANCH  19  24
BRANCH  20  35
HETATM   35  C   UNL     1     -11.121  11.672  67.972  1.00  0.00    -0.299 A  
HETATM   36  C   UNL     1     -12.132  10.641  69.941  1.00  0.00    -0.372 A  
HETATM   37  F   UNL     1     -10.737   9.642  71.561  1.00  0.00    -0.403 F  
HETATM   38  C   UNL     1     -12.259  11.342  68.738  1.00  0.00    -0.101 A  
HETATM   39  C   UNL     1      -9.732  10.572  69.642  1.00  0.00    -0.092 A  
HETATM   40  C   UNL     1      -9.860  11.260  68.431  1.00  0.00    -0.200 A  
HETATM   41  C   UNL     1     -10.864  10.276  70.388  1.00  0.00    -0.253 A  
ENDBRANCH  20  35
ENDBRANCH  17  18
ENDBRANCH   2  17
TORSDOF 6
ENDMDL
MODEL       95
REMARK 921   NORMALIZED FREE ENERGY PREDICTED BY IDOCK:   -7.36 KCAL/MOL
REMARK 922        TOTAL FREE ENERGY PREDICTED BY IDOCK:  -10.85 KCAL/MOL
REMARK 923 INTER-LIGAND FREE ENERGY PREDICTED BY IDOCK:  -10.39 KCAL/MOL
REMARK 924 INTRA-LIGAND FREE ENERGY PREDICTED BY IDOCK:   -0.46 KCAL/MOL
REMARK 927      BINDING AFFINITY PREDICTED BY RF-SCORE:    0.00 PKD
ROOT
HETATM    1  C   UNL     1     -10.793  14.610  64.856  1.00  0.00    -0.436 C  
HETATM    2  C   UNL     1     -10.501  14.897  66.323  1.00  0.00    -0.302 C  
ENDROOT
BRANCH   2   3
HETATM    3  C   UNL     1      -9.597  16.098  66.514  1.00  0.00    -0.285 A  
HETATM    4  F   UNL     1      -5.797  15.910  68.465  1.00  0.00    -0.096 F  
HETATM    5  F   UNL     1      -5.459  18.027  68.115  1.00  0.00    -0.148 F  
HETATM    6  C   UNL     1     -10.203  17.356  66.623  1.00  0.00    -0.324 A  
HETATM    7  C   UNL     1      -9.502  18.451  67.123  1.00  0.00    -0.282 A  
HETATM    8  F   UNL     1      -5.261  16.611  66.476  1.00  0.00    -0.135 F  
HETATM    9  C   UNL     1     -10.246  19.724  67.457  1.00  0.00    -0.436 C  
HETATM   10  C   UNL     1      -8.139  18.305  67.422  1.00  0.00    -0.232 A  
HETATM   11  C   UNL     1      -6.016  16.909  67.568  1.00  0.00    -0.142 C  
HETATM   12  C   UNL     1      -7.482  17.075  67.233  1.00  0.00    -0.190 A  
HETATM   13  F   UNL     1     -11.531  19.732  67.006  1.00  0.00    -0.402 F  
HETATM   14  F   UNL     1     -10.323  19.923  68.799  1.00  0.00    -0.515 F  
HETATM   15  C   UNL     1      -8.225  15.971  66.784  1.00  0.00    -0.307 A  
HETATM   16  F   UNL     1      -9.657  20.832  66.939  1.00  0.00    -0.529 F  
ENDBRANCH   2   3
BRANCH   2  17
HETATM   17  O   UNL     1      -9.942  13.739  66.965  1.00  0.00    -0.242 OA 
BRANCH  17  18
HETATM   18  C   UNL     1     -10.754  12.547  66.824  1.00  0.00    -0.236 C  
HETATM   19  N   UNL     1      -9.444  11.116  68.443  1.00  0.00    -0.182 NA 
HETATM   20  C   UNL     1     -10.797  11.656  68.143  1.00  0.00    -0.217 C  
HETATM   21  O   UNL     1     -10.317  11.736  65.720  1.00  0.00    -0.236 OA 
HETATM   22  C   UNL     1      -9.002  11.225  65.967  1.00  0.00    -0.200 C  
HETATM   23  C   UNL     1      -8.949  10.388  67.250  1.00  0.00    -0.135 C  
BRANCH  19  24
HETATM   24  C   UNL     1      -9.266  10.336  69.679  1.00  0.00    -0.129 C  
BRANCH  24  25
HETATM   25  C   UNL     1      -9.542   8.850  69.537  1.00  0.00    -0.171 C  
HETATM   26  O   UNL     1      -8.035   5.692  71.671  1.00  0.00    -0.112 OA 
HETATM   27  O   UNL     1     -10.396   5.040  71.460  1.00  0.00    -0.204 OA 
HETATM   28  N   UNL     1     -10.668   8.381  69.060  1.00  0.00    -0.141 NA 
HETATM   29  O   UNL     1      -8.671   4.065  69.801  1.00  0.00    -0.069 OA 
HETATM   30  C   UNL     1     -10.585   7.016  69.220  1.00  0.00    -0.224 C  
HETATM   31  O   UNL     1     -11.516   6.228  69.123  1.00  0.00    -0.394 OA 
HETATM   32  P   UNL     1      -9.108   5.281  70.540  1.00  0.00    -0.149 P  
HETATM   33  N   UNL     1      -9.337   6.693  69.683  1.00  0.00    -0.144 N  
HETATM   34  N   UNL     1      -8.625   7.892  69.902  1.00  0.00    -0.138 NA 
ENDBRANCH  24  25
ENDBRANCH  19  24
BRANCH  20  35
HETATM   35  C   UNL     1     -11.482  12.438  69.262  1.00  0.00    -0.349 A  
HETATM   36  C   UNL     1     -11.726  14.514  70.524  1.00  0.00    -0.338 A  
HETATM   37  F   UNL     1     -12.918  14.490  72.560  1.00  0.00    -0.364 F  
HETATM   38  C   UNL     1     -11.226  13.817  69.420  1.00  0.00    -0.259 A  
HETATM   39  C   UNL     1     -12.756  12.482  71.337  1.00  0.00    -0.345 A  
HETATM   40  C   UNL     1     -12.270  11.787  70.225  1.00  0.00    -0.381 A  
HETATM   41  C   UNL     1     -12.475  13.833  71.481  1.00  0.00    -0.274 A  
ENDBRANCH  20  35
ENDBRANCH  17  18
ENDBRANCH   2  17
TORSDOF 6
ENDMDL
MODEL       96
REMARK 921   NORMALIZED FREE ENERGY PREDICTED BY IDOCK:   -7.32 KCAL/MOL
REMARK 922        TOTAL FREE ENERGY PREDICTED BY IDOCK:  -10.79 KCAL/MOL
REMARK 923 INTER-LIGAND FREE ENERGY PREDICTED BY IDOCK:   -8.95 KCAL/MOL
REMARK 924 INTRA-LIGAND FREE ENERGY PREDICTED BY IDOCK:   -1.84 KCAL/MOL
REMARK 927      BINDING AFFINITY PREDICTED BY RF-SCORE:    0.00 PKD
ROOT
HETATM    1  C   UNL     1     -12.085   9.802  71.346  1.00  0.00    -0.486 C  
HETATM    2  C   UNL     1     -11.245   9.364  70.153  1.00  0.00    -0.219 C  
ENDROOT
BRANCH   2   3
HETATM    3  C   UNL     1     -10.197   8.335  70.524  1.00  0.00    -0.213 A  
HETATM    4  F   UNL     1      -7.949   6.109  67.647  1.00  0.00    -0.100 F  
HETATM    5  F   UNL     1      -6.844   5.100  69.221  1.00  0.00    -0.046 F  
HETATM    6  C   UNL     1     -10.359   7.651  71.735  1.00  0.00    -0.233 A  
HETATM    7  C   UNL     1      -9.651   6.480  72.000  1.00  0.00    -0.154 A  
HETATM    8  F   UNL     1      -6.389   7.169  68.733  1.00  0.00    -0.027 F  
HETATM    9  C   UNL     1     -10.024   5.638  73.199  1.00  0.00    -0.175 C  
HETATM   10  C   UNL     1      -8.690   6.044  71.075  1.00  0.00    -0.132 A  
HETATM   11  C   UNL     1      -7.417   6.290  68.886  1.00  0.00    -0.087 C  
HETATM   12  C   UNL     1      -8.442   6.765  69.892  1.00  0.00    -0.140 A  
HETATM   13  F   UNL     1     -10.895   6.259  74.043  1.00  0.00    -0.256 F  
HETATM   14  F   UNL     1     -10.627   4.478  72.830  1.00  0.00    -0.224 F  
HETATM   15  C   UNL     1      -9.210   7.909  69.621  1.00  0.00    -0.153 A  
HETATM   16  F   UNL     1      -8.951   5.290  73.954  1.00  0.00    -0.119 F  
ENDBRANCH   2   3
BRANCH   2  17
HETATM   17  O   UNL     1     -10.635  10.500  69.518  1.00  0.00    -0.224 OA 
BRANCH  17  18
HETATM   18  C   UNL     1     -11.285  10.898  68.285  1.00  0.00    -0.286 C  
HETATM   19  N   UNL     1      -9.730  12.814  67.747  1.00  0.00    -0.201 NA 
HETATM   20  C   UNL     1     -10.284  11.537  67.225  1.00  0.00    -0.202 C  
HETATM   21  O   UNL     1     -12.366  11.814  68.529  1.00  0.00    -0.348 OA 
HETATM   22  C   UNL     1     -11.864  13.045  69.062  1.00  0.00    -0.316 C  
HETATM   23  C   UNL     1     -10.856  13.706  68.114  1.00  0.00    -0.246 C  
BRANCH  19  24
HETATM   24  C   UNL     1      -8.714  13.512  66.940  1.00  0.00    -0.145 C  
BRANCH  24  25
HETATM   25  C   UNL     1      -8.722  15.023  67.079  1.00  0.00    -0.237 C  
HETATM   26  O   UNL     1     -10.933  17.826  65.066  1.00  0.00    -0.784 OA 
HETATM   27  O   UNL     1     -11.025  18.705  67.360  1.00  0.00    -0.399 OA 
HETATM   28  N   UNL     1      -8.405  15.633  68.194  1.00  0.00    -0.144 NA 
HETATM   29  O   UNL     1      -9.279  19.666  65.716  1.00  0.00    -0.376 OA 
HETATM   30  C   UNL     1      -8.666  16.965  67.961  1.00  0.00    -0.215 C  
HETATM   31  O   UNL     1      -8.731  17.840  68.814  1.00  0.00    -0.275 OA 
HETATM   32  P   UNL     1      -9.958  18.433  66.198  1.00  0.00    -0.169 P  
HETATM   33  N   UNL     1      -9.020  17.130  66.648  1.00  0.00    -0.241 N  
HETATM   34  N   UNL     1      -9.065  15.857  66.040  1.00  0.00    -0.344 NA 
ENDBRANCH  24  25
ENDBRANCH  19  24
BRANCH  20  35
HETATM   35  C   UNL     1      -9.271  10.484  66.782  1.00  0.00    -0.175 A  
HETATM   36  C   UNL     1      -6.995   9.603  66.860  1.00  0.00    -0.085 A  
HETATM   37  F   UNL     1      -6.334   7.981  65.278  1.00  0.00    -0.044 F  
HETATM   38  C   UNL     1      -7.981  10.461  67.356  1.00  0.00    -0.107 A  
HETATM   39  C   UNL     1      -8.557   8.763  65.215  1.00  0.00    -0.212 A  
HETATM   40  C   UNL     1      -9.548   9.610  65.720  1.00  0.00    -0.329 A  
HETATM   41  C   UNL     1      -7.290   8.772  65.782  1.00  0.00    -0.085 A  
ENDBRANCH  20  35
ENDBRANCH  17  18
ENDBRANCH   2  17
TORSDOF 6
ENDMDL
MODEL       97
REMARK 921   NORMALIZED FREE ENERGY PREDICTED BY IDOCK:   -7.30 KCAL/MOL
REMARK 922        TOTAL FREE ENERGY PREDICTED BY IDOCK:  -10.77 KCAL/MOL
REMARK 923 INTER-LIGAND FREE ENERGY PREDICTED BY IDOCK:   -8.59 KCAL/MOL
REMARK 924 INTRA-LIGAND FREE ENERGY PREDICTED BY IDOCK:   -2.18 KCAL/MOL
REMARK 927      BINDING AFFINITY PREDICTED BY RF-SCORE:    0.00 PKD
ROOT
HETATM    1  C   UNL     1     -12.460  11.174  69.864  1.00  0.00    -0.257 C  
HETATM    2  C   UNL     1     -11.213  10.513  69.292  1.00  0.00    -0.262 C  
ENDROOT
BRANCH   2   3
HETATM    3  C   UNL     1     -11.047  10.765  67.808  1.00  0.00    -0.381 A  
HETATM    4  F   UNL     1      -7.506   9.775  65.624  1.00  0.00    -0.096 F  
HETATM    5  F   UNL     1      -8.391  10.487  63.773  1.00  0.00    -0.168 F  
HETATM    6  C   UNL     1     -11.746  11.842  67.250  1.00  0.00    -0.319 A  
HETATM    7  C   UNL     1     -11.407  12.348  65.996  1.00  0.00    -0.397 A  
HETATM    8  F   UNL     1      -9.020   8.583  64.614  1.00  0.00    -0.147 F  
HETATM    9  C   UNL     1     -12.012  13.654  65.531  1.00  0.00    -0.384 C  
HETATM   10  C   UNL     1     -10.416  11.697  65.247  1.00  0.00    -0.323 A  
HETATM   11  C   UNL     1      -8.683   9.859  64.947  1.00  0.00    -0.176 C  
HETATM   12  C   UNL     1      -9.762  10.555  65.746  1.00  0.00    -0.277 A  
HETATM   13  F   UNL     1     -13.028  14.091  66.326  1.00  0.00    -0.430 F  
HETATM   14  F   UNL     1     -11.093  14.655  65.518  1.00  0.00    -0.305 F  
HETATM   15  C   UNL     1     -10.080  10.101  67.036  1.00  0.00    -0.277 A  
HETATM   16  F   UNL     1     -12.519  13.582  64.274  1.00  0.00    -0.417 F  
ENDBRANCH   2   3
BRANCH   2  17
HETATM   17  O   UNL     1     -11.216   9.101  69.567  1.00  0.00    -0.118 OA 
BRANCH  17  18
HETATM   18  C   UNL     1     -10.726   8.764  70.888  1.00  0.00    -0.227 C  
HETATM   19  N   UNL     1     -10.072   6.384  70.350  1.00  0.00    -0.183 NA 
HETATM   20  C   UNL     1      -9.559   7.681  70.867  1.00  0.00    -0.164 C  
HETATM   21  O   UNL     1     -11.785   8.303  71.744  1.00  0.00    -0.270 OA 
HETATM   22  C   UNL     1     -12.319   7.068  71.253  1.00  0.00    -0.383 C  
HETATM   23  C   UNL     1     -11.244   5.979  71.162  1.00  0.00    -0.261 C  
BRANCH  19  24
HETATM   24  C   UNL     1      -9.113   5.279  70.175  1.00  0.00    -0.133 C  
BRANCH  24  25
HETATM   25  C   UNL     1      -9.342   4.431  68.938  1.00  0.00    -0.153 C  
HETATM   26  O   UNL     1      -8.911   5.403  64.980  1.00  0.00    -0.131 OA 
HETATM   27  O   UNL     1      -7.950   3.141  65.022  1.00  0.00    -0.081 OA 
HETATM   28  N   UNL     1      -9.224   3.126  68.942  1.00  0.00    -0.149 NA 
HETATM   29  O   UNL     1     -10.409   3.447  64.288  1.00  0.00    -0.189 OA 
HETATM   30  C   UNL     1      -9.370   2.748  67.626  1.00  0.00    -0.176 C  
HETATM   31  O   UNL     1      -9.094   1.649  67.164  1.00  0.00    -0.127 OA 
HETATM   32  P   UNL     1      -9.354   3.876  65.247  1.00  0.00    -0.179 P  
HETATM   33  N   UNL     1      -9.701   3.847  66.878  1.00  0.00    -0.206 N  
HETATM   34  N   UNL     1      -9.689   4.976  67.724  1.00  0.00    -0.146 NA 
ENDBRANCH  24  25
ENDBRANCH  19  24
BRANCH  20  35
HETATM   35  C   UNL     1      -8.338   8.262  70.159  1.00  0.00    -0.124 A  
HETATM   36  C   UNL     1      -6.792  10.124  69.834  1.00  0.00    -0.124 A  
HETATM   37  F   UNL     1      -5.348  10.109  67.968  1.00  0.00    -0.039 F  
HETATM   38  C   UNL     1      -7.814   9.509  70.563  1.00  0.00    -0.182 A  
HETATM   39  C   UNL     1      -6.782   8.266  68.286  1.00  0.00    -0.065 A  
HETATM   40  C   UNL     1      -7.793   7.642  69.024  1.00  0.00    -0.119 A  
HETATM   41  C   UNL     1      -6.297   9.501  68.691  1.00  0.00    -0.048 A  
ENDBRANCH  20  35
ENDBRANCH  17  18
ENDBRANCH   2  17
TORSDOF 6
ENDMDL
MODEL       98
REMARK 921   NORMALIZED FREE ENERGY PREDICTED BY IDOCK:   -7.28 KCAL/MOL
REMARK 922        TOTAL FREE ENERGY PREDICTED BY IDOCK:  -10.74 KCAL/MOL
REMARK 923 INTER-LIGAND FREE ENERGY PREDICTED BY IDOCK:   -8.56 KCAL/MOL
REMARK 924 INTRA-LIGAND FREE ENERGY PREDICTED BY IDOCK:   -2.17 KCAL/MOL
REMARK 927      BINDING AFFINITY PREDICTED BY RF-SCORE:    0.00 PKD
ROOT
HETATM    1  C   UNL     1     -12.254  10.792  69.624  1.00  0.00    -0.325 C  
HETATM    2  C   UNL     1     -10.907  11.225  69.061  1.00  0.00    -0.222 C  
ENDROOT
BRANCH   2   3
HETATM    3  C   UNL     1     -11.043  12.179  67.891  1.00  0.00    -0.295 A  
HETATM    4  F   UNL     1     -11.125  10.913  63.808  1.00  0.00    -0.389 F  
HETATM    5  F   UNL     1     -11.381  12.961  63.129  1.00  0.00    -0.500 F  
HETATM    6  C   UNL     1     -10.538  13.476  68.049  1.00  0.00    -0.247 A  
HETATM    7  C   UNL     1     -10.319  14.301  66.948  1.00  0.00    -0.268 A  
HETATM    8  F   UNL     1     -13.053  11.898  64.025  1.00  0.00    -0.541 F  
HETATM    9  C   UNL     1      -9.551  15.591  67.124  1.00  0.00    -0.222 C  
HETATM   10  C   UNL     1     -10.708  13.853  65.676  1.00  0.00    -0.292 A  
HETATM   11  C   UNL     1     -11.711  12.098  64.131  1.00  0.00    -0.396 C  
HETATM   12  C   UNL     1     -11.304  12.590  65.502  1.00  0.00    -0.368 A  
HETATM   13  F   UNL     1      -9.346  15.922  68.429  1.00  0.00    -0.188 F  
HETATM   14  F   UNL     1      -8.316  15.521  66.561  1.00  0.00    -0.266 F  
HETATM   15  C   UNL     1     -11.460  11.754  66.620  1.00  0.00    -0.337 A  
HETATM   16  F   UNL     1     -10.172  16.657  66.557  1.00  0.00    -0.269 F  
ENDBRANCH   2   3
BRANCH   2  17
HETATM   17  O   UNL     1     -10.121  10.080  68.690  1.00  0.00    -0.160 OA 
BRANCH  17  18
HETATM   18  C   UNL     1      -8.784  10.085  69.249  1.00  0.00    -0.177 C  
HETATM   19  N   UNL     1      -8.224   7.691  68.673  1.00  0.00    -0.127 NA 
HETATM   20  C   UNL     1      -7.785   9.100  68.498  1.00  0.00    -0.093 C  
HETATM   21  O   UNL     1      -8.796   9.769  70.652  1.00  0.00    -0.153 OA 
HETATM   22  C   UNL     1      -9.245   8.423  70.853  1.00  0.00    -0.160 C  
HETATM   23  C   UNL     1      -8.356   7.411  70.123  1.00  0.00    -0.136 C  
BRANCH  19  24
HETATM   24  C   UNL     1      -7.470   6.636  67.974  1.00  0.00    -0.098 C  
BRANCH  24  25
HETATM   25  C   UNL     1      -8.327   5.556  67.341  1.00  0.00    -0.103 C  
HETATM   26  O   UNL     1      -8.920   4.666  63.384  1.00  0.00    -0.142 OA 
HETATM   27  O   UNL     1      -8.722   2.416  64.354  1.00  0.00    -0.094 OA 
HETATM   28  N   UNL     1      -8.611   4.431  67.949  1.00  0.00    -0.101 NA 
HETATM   29  O   UNL     1     -11.074   3.403  63.942  1.00  0.00    -0.296 OA 
HETATM   30  C   UNL     1      -9.278   3.674  67.011  1.00  0.00    -0.186 C  
HETATM   31  O   UNL     1      -9.509   2.475  67.093  1.00  0.00    -0.102 OA 
HETATM   32  P   UNL     1      -9.690   3.689  64.410  1.00  0.00    -0.194 P  
HETATM   33  N   UNL     1      -9.486   4.432  65.889  1.00  0.00    -0.159 N  
HETATM   34  N   UNL     1      -8.865   5.685  66.082  1.00  0.00    -0.138 NA 
ENDBRANCH  24  25
ENDBRANCH  19  24
BRANCH  20  35
HETATM   35  C   UNL     1      -7.583   9.578  67.061  1.00  0.00    -0.091 A  
HETATM   36  C   UNL     1      -8.289   9.547  64.724  1.00  0.00    -0.155 A  
HETATM   37  F   UNL     1      -6.845  10.419  63.074  1.00  0.00    -0.135 F  
HETATM   38  C   UNL     1      -8.530   9.246  66.068  1.00  0.00    -0.144 A  
HETATM   39  C   UNL     1      -6.160  10.524  65.327  1.00  0.00    -0.110 A  
HETATM   40  C   UNL     1      -6.407  10.238  66.673  1.00  0.00    -0.074 A  
HETATM   41  C   UNL     1      -7.096  10.170  64.366  1.00  0.00    -0.111 A  
ENDBRANCH  20  35
ENDBRANCH  17  18
ENDBRANCH   2  17
TORSDOF 6
ENDMDL
MODEL       99
REMARK 921   NORMALIZED FREE ENERGY PREDICTED BY IDOCK:   -7.27 KCAL/MOL
REMARK 922        TOTAL FREE ENERGY PREDICTED BY IDOCK:  -10.73 KCAL/MOL
REMARK 923 INTER-LIGAND FREE ENERGY PREDICTED BY IDOCK:   -8.99 KCAL/MOL
REMARK 924 INTRA-LIGAND FREE ENERGY PREDICTED BY IDOCK:   -1.74 KCAL/MOL
REMARK 927      BINDING AFFINITY PREDICTED BY RF-SCORE:    0.00 PKD
ROOT
HETATM    1  C   UNL     1     -12.102  10.802  70.720  1.00  0.00    -0.473 C  
HETATM    2  C   UNL     1     -11.463  10.347  69.414  1.00  0.00    -0.227 C  
ENDROOT
BRANCH   2   3
HETATM    3  C   UNL     1     -10.538   9.162  69.600  1.00  0.00    -0.237 A  
HETATM    4  F   UNL     1     -10.336   5.871  66.876  1.00  0.00    -0.179 F  
HETATM    5  F   UNL     1      -8.776   4.928  68.057  1.00  0.00    -0.102 F  
HETATM    6  C   UNL     1     -10.194   8.805  70.910  1.00  0.00    -0.284 A  
HETATM    7  C   UNL     1      -9.635   7.560  71.194  1.00  0.00    -0.164 A  
HETATM    8  F   UNL     1      -8.305   6.648  66.814  1.00  0.00    -0.109 F  
HETATM    9  C   UNL     1      -9.504   7.112  72.632  1.00  0.00    -0.147 C  
HETATM   10  C   UNL     1      -9.323   6.699  70.131  1.00  0.00    -0.159 A  
HETATM   11  C   UNL     1      -9.250   6.140  67.650  1.00  0.00    -0.107 C  
HETATM   12  C   UNL     1      -9.572   7.071  68.797  1.00  0.00    -0.139 A  
HETATM   13  F   UNL     1      -9.750   8.106  73.531  1.00  0.00    -0.339 F  
HETATM   14  F   UNL     1     -10.380   6.117  72.929  1.00  0.00    -0.182 F  
HETATM   15  C   UNL     1     -10.190   8.306  68.542  1.00  0.00    -0.234 A  
HETATM   16  F   UNL     1      -8.267   6.635  72.925  1.00  0.00    -0.107 F  
ENDBRANCH   2   3
BRANCH   2  17
HETATM   17  O   UNL     1     -10.768  11.435  68.783  1.00  0.00    -0.187 OA 
BRANCH  17  18
HETATM   18  C   UNL     1     -11.440  11.953  67.608  1.00  0.00    -0.317 C  
HETATM   19  N   UNL     1      -9.816  13.833  67.154  1.00  0.00    -0.237 NA 
HETATM   20  C   UNL     1     -10.447  12.624  66.561  1.00  0.00    -0.247 C  
HETATM   21  O   UNL     1     -12.468  12.895  67.958  1.00  0.00     0.025 OA 
HETATM   22  C   UNL     1     -11.890  14.059  68.560  1.00  0.00    -0.364 C  
HETATM   23  C   UNL     1     -10.885  14.744  67.627  1.00  0.00    -0.285 C  
BRANCH  19  24
HETATM   24  C   UNL     1      -8.796  14.543  66.363  1.00  0.00    -0.033 C  
BRANCH  24  25
HETATM   25  C   UNL     1      -8.646  16.016  66.697  1.00  0.00    -0.281 C  
HETATM   26  O   UNL     1      -5.720  17.930  68.836  1.00  0.00    -0.182 OA 
HETATM   27  O   UNL     1      -6.060  19.505  66.980  1.00  0.00    -0.181 OA 
HETATM   28  N   UNL     1      -9.139  16.967  65.943  1.00  0.00    -0.530 NA 
HETATM   29  O   UNL     1      -7.256  19.939  69.228  1.00  0.00    -0.309 OA 
HETATM   30  C   UNL     1      -8.679  18.140  66.499  1.00  0.00    -0.268 C  
HETATM   31  O   UNL     1      -8.712  19.242  65.969  1.00  0.00    -0.431 OA 
HETATM   32  P   UNL     1      -6.853  18.907  68.235  1.00  0.00    -0.265 P  
HETATM   33  N   UNL     1      -8.015  17.855  67.663  1.00  0.00    -0.217 N  
HETATM   34  N   UNL     1      -7.978  16.453  67.817  1.00  0.00    -0.147 NA 
ENDBRANCH  24  25
ENDBRANCH  19  24
BRANCH  20  35
HETATM   35  C   UNL     1      -9.499  11.563  66.005  1.00  0.00    -0.249 A  
HETATM   36  C   UNL     1      -9.067   9.769  64.407  1.00  0.00    -0.296 A  
HETATM   37  F   UNL     1      -7.211   8.351  64.742  1.00  0.00    -0.075 F  
HETATM   38  C   UNL     1      -9.849  10.842  64.844  1.00  0.00    -0.339 A  
HETATM   39  C   UNL     1      -7.562  10.112  66.269  1.00  0.00    -0.111 A  
HETATM   40  C   UNL     1      -8.335  11.195  66.698  1.00  0.00    -0.160 A  
HETATM   41  C   UNL     1      -7.937   9.405  65.135  1.00  0.00    -0.116 A  
ENDBRANCH  20  35
ENDBRANCH  17  18
ENDBRANCH   2  17
TORSDOF 6
ENDMDL
MODEL      100
REMARK 921   NORMALIZED FREE ENERGY PREDICTED BY IDOCK:   -7.27 KCAL/MOL
REMARK 922        TOTAL FREE ENERGY PREDICTED BY IDOCK:  -10.73 KCAL/MOL
REMARK 923 INTER-LIGAND FREE ENERGY PREDICTED BY IDOCK:   -9.08 KCAL/MOL
REMARK 924 INTRA-LIGAND FREE ENERGY PREDICTED BY IDOCK:   -1.64 KCAL/MOL
REMARK 927      BINDING AFFINITY PREDICTED BY RF-SCORE:    0.00 PKD
ROOT
HETATM    1  C   UNL     1      -7.494   7.718  62.852  1.00  0.00    -0.114 C  
HETATM    2  C   UNL     1      -7.844   7.972  64.313  1.00  0.00    -0.137 C  
ENDROOT
BRANCH   2   3
HETATM    3  C   UNL     1      -8.181   6.699  65.062  1.00  0.00    -0.105 A  
HETATM    4  F   UNL     1     -10.047   3.310  63.238  1.00  0.00    -0.111 F  
HETATM    5  F   UNL     1      -9.976   2.206  65.107  1.00  0.00     0.067 F  
HETATM    6  C   UNL     1      -8.464   6.804  66.429  1.00  0.00    -0.126 A  
HETATM    7  C   UNL     1      -9.096   5.769  67.115  1.00  0.00    -0.112 A  
HETATM    8  F   UNL     1      -8.162   2.479  63.939  1.00  0.00    -0.078 F  
HETATM    9  C   UNL     1      -9.604   6.007  68.519  1.00  0.00    -0.121 C  
HETATM   10  C   UNL     1      -9.357   4.568  66.440  1.00  0.00    -0.152 A  
HETATM   11  C   UNL     1      -9.293   3.113  64.353  1.00  0.00    -0.141 C  
HETATM   12  C   UNL     1      -8.999   4.402  65.089  1.00  0.00    -0.143 A  
HETATM   13  F   UNL     1      -9.172   7.181  69.058  1.00  0.00    -0.136 F  
HETATM   14  F   UNL     1     -10.961   6.057  68.560  1.00  0.00    -0.287 F  
HETATM   15  C   UNL     1      -8.417   5.480  64.404  1.00  0.00    -0.080 A  
HETATM   16  F   UNL     1      -9.230   5.033  69.388  1.00  0.00    -0.114 F  
ENDBRANCH   2   3
BRANCH   2  17
HETATM   17  O   UNL     1      -8.919   8.920  64.420  1.00  0.00    -0.089 OA 
BRANCH  17  18
HETATM   18  C   UNL     1      -8.474  10.291  64.572  1.00  0.00    -0.179 C  
HETATM   19  N   UNL     1     -10.767  11.347  64.490  1.00  0.00    -0.326 NA 
HETATM   20  C   UNL     1      -9.535  11.218  65.313  1.00  0.00    -0.221 C  
HETATM   21  O   UNL     1      -8.132  10.880  63.306  1.00  0.00    -0.007 OA 
HETATM   22  C   UNL     1      -9.297  10.990  62.479  1.00  0.00    -0.259 C  
HETATM   23  C   UNL     1     -10.389  11.836  63.143  1.00  0.00    -0.317 C  
BRANCH  19  24
HETATM   24  C   UNL     1     -11.902  12.099  65.052  1.00  0.00    -0.298 C  
BRANCH  24  25
HETATM   25  C   UNL     1     -11.651  13.586  65.230  1.00  0.00    -0.311 C  
HETATM   26  O   UNL     1      -8.970  15.518  67.654  1.00  0.00    -0.180 OA 
HETATM   27  O   UNL     1      -8.787  16.842  65.591  1.00  0.00    -0.472 OA 
HETATM   28  N   UNL     1     -11.889  14.461  64.285  1.00  0.00    -0.397 NA 
HETATM   29  O   UNL     1     -10.317  17.688  67.493  1.00  0.00    -0.337 OA 
HETATM   30  C   UNL     1     -11.410  15.656  64.774  1.00  0.00    -0.343 C  
HETATM   31  O   UNL     1     -11.222  16.672  64.119  1.00  0.00    -1.103 OA 
HETATM   32  P   UNL     1      -9.858  16.496  66.729  1.00  0.00    -0.294 P  
HETATM   33  N   UNL     1     -11.005  15.480  66.072  1.00  0.00    -0.292 N  
HETATM   34  N   UNL     1     -11.155  14.115  66.398  1.00  0.00    -0.315 NA 
ENDBRANCH  24  25
ENDBRANCH  19  24
BRANCH  20  35
HETATM   35  C   UNL     1      -9.722  10.731  66.748  1.00  0.00    -0.221 A  
HETATM   36  C   UNL     1     -11.209   9.936  68.515  1.00  0.00    -0.129 A  
HETATM   37  F   UNL     1     -10.418   9.864  70.737  1.00  0.00    -0.334 F  
HETATM   38  C   UNL     1     -10.978  10.246  67.171  1.00  0.00    -0.233 A  
HETATM   39  C   UNL     1      -8.937  10.575  69.048  1.00  0.00    -0.183 A  
HETATM   40  C   UNL     1      -8.701  10.870  67.702  1.00  0.00    -0.127 A  
HETATM   41  C   UNL     1     -10.187  10.120  69.444  1.00  0.00    -0.227 A  
ENDBRANCH  20  35
ENDBRANCH  17  18
ENDBRANCH   2  17
TORSDOF 6
ENDMDL
MODEL      101
REMARK 921   NORMALIZED FREE ENERGY PREDICTED BY IDOCK:   -7.26 KCAL/MOL
REMARK 922        TOTAL FREE ENERGY PREDICTED BY IDOCK:  -10.72 KCAL/MOL
REMARK 923 INTER-LIGAND FREE ENERGY PREDICTED BY IDOCK:  -10.05 KCAL/MOL
REMARK 924 INTRA-LIGAND FREE ENERGY PREDICTED BY IDOCK:   -0.66 KCAL/MOL
REMARK 927      BINDING AFFINITY PREDICTED BY RF-SCORE:    0.00 PKD
ROOT
HETATM    1  C   UNL     1      -7.190  14.015  67.587  1.00  0.00    -0.190 C  
HETATM    2  C   UNL     1      -8.622  13.555  67.344  1.00  0.00    -0.208 C  
ENDROOT
BRANCH   2   3
HETATM    3  C   UNL     1      -9.640  14.637  67.640  1.00  0.00    -0.212 A  
HETATM    4  F   UNL     1      -9.100  18.743  66.574  1.00  0.00    -0.286 F  
HETATM    5  F   UNL     1     -11.047  19.259  67.386  1.00  0.00    -0.553 F  
HETATM    6  C   UNL     1     -10.458  14.470  68.765  1.00  0.00    -0.246 A  
HETATM    7  C   UNL     1     -11.174  15.540  69.298  1.00  0.00    -0.312 A  
HETATM    8  F   UNL     1     -10.907  18.216  65.483  1.00  0.00    -0.438 F  
HETATM    9  C   UNL     1     -11.848  15.389  70.643  1.00  0.00    -0.351 C  
HETATM   10  C   UNL     1     -11.149  16.774  68.630  1.00  0.00    -0.247 A  
HETATM   11  C   UNL     1     -10.368  18.276  66.731  1.00  0.00    -0.384 C  
HETATM   12  C   UNL     1     -10.409  16.943  67.445  1.00  0.00    -0.309 A  
HETATM   13  F   UNL     1     -11.866  14.104  71.096  1.00  0.00    -0.375 F  
HETATM   14  F   UNL     1     -11.216  16.113  71.604  1.00  0.00    -0.379 F  
HETATM   15  C   UNL     1      -9.649  15.866  66.961  1.00  0.00    -0.232 A  
HETATM   16  F   UNL     1     -13.140  15.806  70.636  1.00  0.00    -0.501 F  
ENDBRANCH   2   3
BRANCH   2  17
HETATM   17  O   UNL     1      -8.910  12.370  68.105  1.00  0.00    -0.182 OA 
BRANCH  17  18
HETATM   18  C   UNL     1      -9.398  11.266  67.303  1.00  0.00    -0.166 C  
HETATM   19  N   UNL     1      -8.194   9.440  68.565  1.00  0.00    -0.112 NA 
HETATM   20  C   UNL     1      -9.534   9.907  68.120  1.00  0.00    -0.138 C  
HETATM   21  O   UNL     1      -8.570  11.045  66.148  1.00  0.00    -0.169 OA 
HETATM   22  C   UNL     1      -7.262  10.622  66.548  1.00  0.00    -0.134 C  
HETATM   23  C   UNL     1      -7.309   9.335  67.380  1.00  0.00    -0.087 C  
BRANCH  19  24
HETATM   24  C   UNL     1      -8.124   8.237  69.413  1.00  0.00    -0.115 C  
BRANCH  24  25
HETATM   25  C   UNL     1      -7.950   6.935  68.654  1.00  0.00    -0.120 C  
HETATM   26  O   UNL     1     -10.423   5.149  65.917  1.00  0.00    -0.194 OA 
HETATM   27  O   UNL     1      -8.224   4.781  64.882  1.00  0.00    -0.110 OA 
HETATM   28  N   UNL     1      -6.774   6.433  68.370  1.00  0.00    -0.065 NA 
HETATM   29  O   UNL     1      -9.282   2.890  66.289  1.00  0.00    -0.148 OA 
HETATM   30  C   UNL     1      -7.033   5.343  67.569  1.00  0.00    -0.066 C  
HETATM   31  O   UNL     1      -6.208   4.738  66.897  1.00  0.00    -0.030 OA 
HETATM   32  P   UNL     1      -9.046   4.356  66.188  1.00  0.00    -0.151 P  
HETATM   33  N   UNL     1      -8.387   5.149  67.499  1.00  0.00    -0.106 N  
HETATM   34  N   UNL     1      -9.019   6.192  68.210  1.00  0.00    -0.115 NA 
ENDBRANCH  24  25
ENDBRANCH  19  24
BRANCH  20  35
HETATM   35  C   UNL     1     -10.595  10.069  69.206  1.00  0.00    -0.249 A  
HETATM   36  C   UNL     1     -12.495  11.306  70.111  1.00  0.00    -0.297 A  
HETATM   37  F   UNL     1     -13.192  10.886  72.326  1.00  0.00    -0.573 F  
HETATM   38  C   UNL     1     -11.607  11.042  69.064  1.00  0.00    -0.392 A  
HETATM   39  C   UNL     1     -11.395   9.629  71.463  1.00  0.00    -0.420 A  
HETATM   40  C   UNL     1     -10.515   9.354  70.411  1.00  0.00    -0.311 A  
HETATM   41  C   UNL     1     -12.369  10.604  71.308  1.00  0.00    -0.383 A  
ENDBRANCH  20  35
ENDBRANCH  17  18
ENDBRANCH   2  17
TORSDOF 6
ENDMDL
MODEL      102
REMARK 921   NORMALIZED FREE ENERGY PREDICTED BY IDOCK:   -7.26 KCAL/MOL
REMARK 922        TOTAL FREE ENERGY PREDICTED BY IDOCK:  -10.70 KCAL/MOL
REMARK 923 INTER-LIGAND FREE ENERGY PREDICTED BY IDOCK:   -9.52 KCAL/MOL
REMARK 924 INTRA-LIGAND FREE ENERGY PREDICTED BY IDOCK:   -1.19 KCAL/MOL
REMARK 927      BINDING AFFINITY PREDICTED BY RF-SCORE:    0.00 PKD
ROOT
HETATM    1  C   UNL     1      -7.184  13.898  67.780  1.00  0.00    -0.173 C  
HETATM    2  C   UNL     1      -8.691  13.858  67.559  1.00  0.00    -0.193 C  
ENDROOT
BRANCH   2   3
HETATM    3  C   UNL     1      -9.430  14.882  68.396  1.00  0.00    -0.209 A  
HETATM    4  F   UNL     1     -13.084  14.053  70.457  1.00  0.00    -0.365 F  
HETATM    5  F   UNL     1     -13.140  16.069  71.266  1.00  0.00    -0.529 F  
HETATM    6  C   UNL     1      -9.301  16.230  68.038  1.00  0.00    -0.214 A  
HETATM    7  C   UNL     1     -10.185  17.191  68.525  1.00  0.00    -0.346 A  
HETATM    8  F   UNL     1     -11.751  14.610  72.085  1.00  0.00    -0.390 F  
HETATM    9  C   UNL     1     -10.172  18.582  67.934  1.00  0.00    -0.384 C  
HETATM   10  C   UNL     1     -11.151  16.809  69.467  1.00  0.00    -0.053 A  
HETATM   11  C   UNL     1     -12.293  15.059  70.920  1.00  0.00    -0.334 C  
HETATM   12  C   UNL     1     -11.242  15.477  69.915  1.00  0.00    -0.322 A  
HETATM   13  F   UNL     1      -9.107  18.811  67.116  1.00  0.00    -0.271 F  
HETATM   14  F   UNL     1     -11.278  18.816  67.179  1.00  0.00    -0.408 F  
HETATM   15  C   UNL     1     -10.379  14.517  69.365  1.00  0.00    -0.095 A  
HETATM   16  F   UNL     1     -10.140  19.557  68.879  1.00  0.00    -0.458 F  
ENDBRANCH   2   3
BRANCH   2  17
HETATM   17  O   UNL     1      -9.205  12.539  67.805  1.00  0.00    -0.183 OA 
BRANCH  17  18
HETATM   18  C   UNL     1     -10.488  12.287  67.180  1.00  0.00    -0.219 C  
HETATM   19  N   UNL     1     -10.084   9.848  66.668  1.00  0.00    -0.223 NA 
HETATM   20  C   UNL     1     -10.996  10.791  67.368  1.00  0.00    -0.300 C  
HETATM   21  O   UNL     1     -10.467  12.609  65.779  1.00  0.00    -0.266 OA 
HETATM   22  C   UNL     1      -9.572  11.733  65.082  1.00  0.00    -0.153 C  
HETATM   23  C   UNL     1      -9.969  10.262  65.249  1.00  0.00    -0.317 C  
BRANCH  19  24
HETATM   24  C   UNL     1     -10.343   8.403  66.801  1.00  0.00    -0.287 C  
BRANCH  24  25
HETATM   25  C   UNL     1      -9.124   7.520  66.613  1.00  0.00    -0.158 C  
HETATM   26  O   UNL     1      -7.843   5.497  63.286  1.00  0.00    -0.081 OA 
HETATM   27  O   UNL     1      -5.720   6.380  64.153  1.00  0.00    -0.022 OA 
HETATM   28  N   UNL     1      -8.029   7.666  67.317  1.00  0.00    -0.117 NA 
HETATM   29  O   UNL     1      -6.396   3.953  64.724  1.00  0.00    -0.026 OA 
HETATM   30  C   UNL     1      -7.126   6.786  66.763  1.00  0.00    -0.072 C  
HETATM   31  O   UNL     1      -5.920   6.776  66.968  1.00  0.00    -0.020 OA 
HETATM   32  P   UNL     1      -6.875   5.353  64.567  1.00  0.00    -0.050 P  
HETATM   33  N   UNL     1      -7.759   6.037  65.806  1.00  0.00    -0.093 N  
HETATM   34  N   UNL     1      -9.085   6.504  65.686  1.00  0.00     0.008 NA 
ENDBRANCH  24  25
ENDBRANCH  19  24
BRANCH  20  35
HETATM   35  C   UNL     1     -11.249  10.521  68.849  1.00  0.00    -0.323 A  
HETATM   36  C   UNL     1     -10.596   9.397  70.917  1.00  0.00    -0.390 A  
HETATM   37  F   UNL     1     -12.112   9.342  72.724  1.00  0.00    -0.229 F  
HETATM   38  C   UNL     1     -10.313   9.780  69.602  1.00  0.00    -0.259 A  
HETATM   39  C   UNL     1     -12.750  10.489  70.767  1.00  0.00    -0.471 A  
HETATM   40  C   UNL     1     -12.461  10.886  69.457  1.00  0.00    -0.126 A  
HETATM   41  C   UNL     1     -11.822   9.744  71.480  1.00  0.00    -0.399 A  
ENDBRANCH  20  35
ENDBRANCH  17  18
ENDBRANCH   2  17
TORSDOF 6
ENDMDL
MODEL      103
REMARK 921   NORMALIZED FREE ENERGY PREDICTED BY IDOCK:   -7.26 KCAL/MOL
REMARK 922        TOTAL FREE ENERGY PREDICTED BY IDOCK:  -10.70 KCAL/MOL
REMARK 923 INTER-LIGAND FREE ENERGY PREDICTED BY IDOCK:  -10.79 KCAL/MOL
REMARK 924 INTRA-LIGAND FREE ENERGY PREDICTED BY IDOCK:    0.09 KCAL/MOL
REMARK 927      BINDING AFFINITY PREDICTED BY RF-SCORE:    0.00 PKD
ROOT
HETATM    1  C   UNL     1     -12.743  12.611  70.472  1.00  0.00    -0.066 C  
HETATM    2  C   UNL     1     -11.994  11.850  69.385  1.00  0.00    -0.289 C  
ENDROOT
BRANCH   2   3
HETATM    3  C   UNL     1     -11.201  10.681  69.933  1.00  0.00    -0.378 A  
HETATM    4  F   UNL     1      -7.605   9.220  68.139  1.00  0.00    -0.081 F  
HETATM    5  F   UNL     1      -7.385   7.717  69.692  1.00  0.00    -0.078 F  
HETATM    6  C   UNL     1     -11.902   9.690  70.630  1.00  0.00    -0.331 A  
HETATM    7  C   UNL     1     -11.332   8.443  70.875  1.00  0.00    -0.298 A  
HETATM    8  F   UNL     1      -6.929   9.798  70.125  1.00  0.00    -0.060 F  
HETATM    9  C   UNL     1     -12.194   7.321  71.409  1.00  0.00    -0.349 C  
HETATM   10  C   UNL     1      -9.998   8.221  70.502  1.00  0.00    -0.198 A  
HETATM   11  C   UNL     1      -7.806   8.993  69.466  1.00  0.00    -0.094 C  
HETATM   12  C   UNL     1      -9.240   9.233  69.882  1.00  0.00    -0.209 A  
HETATM   13  F   UNL     1     -13.426   7.734  71.816  1.00  0.00    -0.333 F  
HETATM   14  F   UNL     1     -12.415   6.366  70.467  1.00  0.00    -0.352 F  
HETATM   15  C   UNL     1      -9.856  10.461  69.594  1.00  0.00    -0.179 A  
HETATM   16  F   UNL     1     -11.637   6.688  72.473  1.00  0.00    -0.288 F  
ENDBRANCH   2   3
BRANCH   2  17
HETATM   17  O   UNL     1     -11.140  12.736  68.642  1.00  0.00    -0.240 OA 
BRANCH  17  18
HETATM   18  C   UNL     1     -11.756  14.007  68.321  1.00  0.00    -0.357 C  
HETATM   19  N   UNL     1      -9.725  15.045  67.237  1.00  0.00    -0.219 NA 
HETATM   20  C   UNL     1     -11.152  14.687  67.015  1.00  0.00    -0.333 C  
HETATM   21  O   UNL     1     -11.670  14.930  69.420  1.00  0.00    -0.286 OA 
HETATM   22  C   UNL     1     -10.302  15.270  69.676  1.00  0.00    -0.262 C  
HETATM   23  C   UNL     1      -9.632  15.896  68.448  1.00  0.00    -0.208 C  
BRANCH  19  24
HETATM   24  C   UNL     1      -8.967  15.609  66.107  1.00  0.00    -0.327 C  
BRANCH  24  25
HETATM   25  C   UNL     1      -8.579  17.067  66.268  1.00  0.00    -0.262 C  
HETATM   26  O   UNL     1      -5.208  19.033  65.015  1.00  0.00    -0.152 OA 
HETATM   27  O   UNL     1      -6.948  20.685  64.482  1.00  0.00    -0.159 OA 
HETATM   28  N   UNL     1      -9.463  18.027  66.380  1.00  0.00    -0.377 NA 
HETATM   29  O   UNL     1      -5.629  20.921  66.691  1.00  0.00    -0.179 OA 
HETATM   30  C   UNL     1      -8.731  19.193  66.366  1.00  0.00    -0.328 C  
HETATM   31  O   UNL     1      -9.184  20.319  66.211  1.00  0.00    -0.306 OA 
HETATM   32  P   UNL     1      -6.290  19.972  65.755  1.00  0.00    -0.244 P  
HETATM   33  N   UNL     1      -7.396  18.885  66.371  1.00  0.00    -0.236 N  
HETATM   34  N   UNL     1      -7.268  17.481  66.305  1.00  0.00    -0.290 NA 
ENDBRANCH  24  25
ENDBRANCH  19  24
BRANCH  20  35
HETATM   35  C   UNL     1     -11.454  13.814  65.799  1.00  0.00    -0.324 A  
HETATM   36  C   UNL     1     -12.256  13.627  63.500  1.00  0.00    -0.329 A  
HETATM   37  F   UNL     1     -12.757  11.493  62.627  1.00  0.00    -0.356 F  
HETATM   38  C   UNL     1     -11.833  14.412  64.578  1.00  0.00    -0.463 A  
HETATM   39  C   UNL     1     -11.925  11.632  64.827  1.00  0.00     0.011 A  
HETATM   40  C   UNL     1     -11.487  12.415  65.900  1.00  0.00    -0.422 A  
HETATM   41  C   UNL     1     -12.312  12.243  63.643  1.00  0.00    -0.562 A  
ENDBRANCH  20  35
ENDBRANCH  17  18
ENDBRANCH   2  17
TORSDOF 6
ENDMDL
MODEL      104
REMARK 921   NORMALIZED FREE ENERGY PREDICTED BY IDOCK:   -7.23 KCAL/MOL
REMARK 922        TOTAL FREE ENERGY PREDICTED BY IDOCK:  -10.66 KCAL/MOL
REMARK 923 INTER-LIGAND FREE ENERGY PREDICTED BY IDOCK:   -9.06 KCAL/MOL
REMARK 924 INTRA-LIGAND FREE ENERGY PREDICTED BY IDOCK:   -1.60 KCAL/MOL
REMARK 927      BINDING AFFINITY PREDICTED BY RF-SCORE:    0.00 PKD
ROOT
HETATM    1  C   UNL     1      -8.612   9.677  70.320  1.00  0.00    -0.234 C  
HETATM    2  C   UNL     1      -9.641   9.428  69.224  1.00  0.00    -0.171 C  
ENDROOT
BRANCH   2   3
HETATM    3  C   UNL     1      -9.151   8.451  68.175  1.00  0.00    -0.138 A  
HETATM    4  F   UNL     1      -9.180   9.279  63.980  1.00  0.00    -0.246 F  
HETATM    5  F   UNL     1      -8.283   7.349  63.545  1.00  0.00    -0.129 F  
HETATM    6  C   UNL     1      -9.257   7.084  68.460  1.00  0.00    -0.137 A  
HETATM    7  C   UNL     1      -9.148   6.128  67.452  1.00  0.00    -0.110 A  
HETATM    8  F   UNL     1      -7.065   8.950  64.372  1.00  0.00    -0.085 F  
HETATM    9  C   UNL     1      -9.508   4.690  67.746  1.00  0.00    -0.152 C  
HETATM   10  C   UNL     1      -8.826   6.547  66.152  1.00  0.00    -0.160 A  
HETATM   11  C   UNL     1      -8.291   8.365  64.454  1.00  0.00    -0.097 C  
HETATM   12  C   UNL     1      -8.623   7.908  65.857  1.00  0.00    -0.171 A  
HETATM   13  F   UNL     1      -9.691   4.440  69.073  1.00  0.00    -0.209 F  
HETATM   14  F   UNL     1     -10.667   4.328  67.137  1.00  0.00     0.045 F  
HETATM   15  C   UNL     1      -8.796   8.856  66.878  1.00  0.00    -0.141 A  
HETATM   16  F   UNL     1      -8.562   3.812  67.324  1.00  0.00    -0.096 F  
ENDBRANCH   2   3
BRANCH   2  17
HETATM   17  O   UNL     1     -10.041  10.666  68.614  1.00  0.00    -0.168 OA 
BRANCH  17  18
HETATM   18  C   UNL     1     -11.474  10.799  68.450  1.00  0.00    -0.288 C  
HETATM   19  N   UNL     1     -11.561  13.310  68.705  1.00  0.00    -0.289 NA 
HETATM   20  C   UNL     1     -11.907  12.184  67.797  1.00  0.00    -0.257 C  
HETATM   21  O   UNL     1     -12.168  10.626  69.698  1.00  0.00    -0.290 OA 
HETATM   22  C   UNL     1     -11.829  11.681  70.605  1.00  0.00    -0.138 C  
HETATM   23  C   UNL     1     -12.177  13.059  70.030  1.00  0.00    -0.236 C  
BRANCH  19  24
HETATM   24  C   UNL     1     -11.807  14.684  68.233  1.00  0.00    -0.298 C  
BRANCH  24  25
HETATM   25  C   UNL     1     -10.563  15.438  67.799  1.00  0.00    -0.274 C  
HETATM   26  O   UNL     1     -10.018  19.452  67.180  1.00  0.00    -0.324 OA 
HETATM   27  O   UNL     1      -7.931  18.861  68.335  1.00  0.00    -0.313 OA 
HETATM   28  N   UNL     1      -9.351  15.003  68.039  1.00  0.00    -0.183 NA 
HETATM   29  O   UNL     1      -7.942  18.998  65.755  1.00  0.00    -0.465 OA 
HETATM   30  C   UNL     1      -8.517  16.015  67.621  1.00  0.00    -0.158 C  
HETATM   31  O   UNL     1      -7.326  16.113  67.883  1.00  0.00    -0.121 OA 
HETATM   32  P   UNL     1      -8.694  18.558  66.961  1.00  0.00    -0.293 P  
HETATM   33  N   UNL     1      -9.264  16.992  67.017  1.00  0.00    -0.230 N  
HETATM   34  N   UNL     1     -10.625  16.633  67.122  1.00  0.00    -0.299 NA 
ENDBRANCH  24  25
ENDBRANCH  19  24
BRANCH  20  35
HETATM   35  C   UNL     1     -11.366  12.267  66.372  1.00  0.00    -0.405 A  
HETATM   36  C   UNL     1     -11.793  12.366  63.970  1.00  0.00    -0.521 A  
HETATM   37  F   UNL     1     -10.009  12.003  62.468  1.00  0.00    -0.115 F  
HETATM   38  C   UNL     1     -12.253  12.437  65.288  1.00  0.00    -0.418 A  
HETATM   39  C   UNL     1      -9.549  11.964  64.780  1.00  0.00    -0.063 A  
HETATM   40  C   UNL     1     -10.006  12.050  66.098  1.00  0.00    -0.254 A  
HETATM   41  C   UNL     1     -10.444  12.114  63.730  1.00  0.00    -0.437 A  
ENDBRANCH  20  35
ENDBRANCH  17  18
ENDBRANCH   2  17
TORSDOF 6
ENDMDL
MODEL      105
REMARK 921   NORMALIZED FREE ENERGY PREDICTED BY IDOCK:   -7.22 KCAL/MOL
REMARK 922        TOTAL FREE ENERGY PREDICTED BY IDOCK:  -10.66 KCAL/MOL
REMARK 923 INTER-LIGAND FREE ENERGY PREDICTED BY IDOCK:   -9.10 KCAL/MOL
REMARK 924 INTRA-LIGAND FREE ENERGY PREDICTED BY IDOCK:   -1.56 KCAL/MOL
REMARK 927      BINDING AFFINITY PREDICTED BY RF-SCORE:    0.00 PKD
ROOT
HETATM    1  C   UNL     1     -10.188  14.703  66.859  1.00  0.00    -0.262 C  
HETATM    2  C   UNL     1     -10.769  13.296  66.929  1.00  0.00    -0.271 C  
ENDROOT
BRANCH   2   3
HETATM    3  C   UNL     1     -11.524  13.040  68.217  1.00  0.00    -0.347 A  
HETATM    4  F   UNL     1     -11.885  15.920  71.357  1.00  0.00    -0.349 F  
HETATM    5  F   UNL     1     -13.107  14.560  72.528  1.00  0.00    -0.367 F  
HETATM    6  C   UNL     1     -11.590  11.720  68.680  1.00  0.00    -0.367 A  
HETATM    7  C   UNL     1     -11.963  11.435  69.992  1.00  0.00    -0.442 A  
HETATM    8  F   UNL     1     -13.961  15.574  70.806  1.00  0.00    -0.453 F  
HETATM    9  C   UNL     1     -11.789  10.033  70.529  1.00  0.00    -0.303 C  
HETATM   10  C   UNL     1     -12.375  12.488  70.823  1.00  0.00    -0.376 A  
HETATM   11  C   UNL     1     -12.836  14.953  71.252  1.00  0.00    -0.348 C  
HETATM   12  C   UNL     1     -12.407  13.814  70.354  1.00  0.00    -0.423 A  
HETATM   13  F   UNL     1     -11.485   9.120  69.564  1.00  0.00    -0.121 F  
HETATM   14  F   UNL     1     -10.780   9.965  71.436  1.00  0.00    -0.379 F  
HETATM   15  C   UNL     1     -11.970  14.081  69.046  1.00  0.00    -0.392 A  
HETATM   16  F   UNL     1     -12.900   9.566  71.154  1.00  0.00    -0.348 F  
ENDBRANCH   2   3
BRANCH   2  17
HETATM   17  O   UNL     1      -9.738  12.312  66.743  1.00  0.00    -0.204 OA 
BRANCH  17  18
HETATM   18  C   UNL     1     -10.235  11.021  66.314  1.00  0.00    -0.245 C  
HETATM   19  N   UNL     1      -8.099  10.243  65.213  1.00  0.00    -0.148 NA 
HETATM   20  C   UNL     1      -9.105   9.901  66.253  1.00  0.00    -0.155 C  
HETATM   21  O   UNL     1     -10.890  11.103  65.037  1.00  0.00    -0.261 OA 
HETATM   22  C   UNL     1      -9.949  11.462  64.018  1.00  0.00    -0.297 C  
HETATM   23  C   UNL     1      -8.800  10.451  63.923  1.00  0.00    -0.210 C  
BRANCH  19  24
HETATM   24  C   UNL     1      -6.925   9.365  65.067  1.00  0.00    -0.096 C  
BRANCH  24  25
HETATM   25  C   UNL     1      -7.250   7.919  64.742  1.00  0.00    -0.074 C  
HETATM   26  O   UNL     1      -8.673   4.945  67.178  1.00  0.00    -0.105 OA 
HETATM   27  O   UNL     1      -9.989   4.560  65.138  1.00  0.00    -0.179 OA 
HETATM   28  N   UNL     1      -7.609   7.525  63.546  1.00  0.00    -0.112 NA 
HETATM   29  O   UNL     1      -7.861   3.153  65.542  1.00  0.00    -0.083 OA 
HETATM   30  C   UNL     1      -7.946   6.198  63.690  1.00  0.00    -0.096 C  
HETATM   31  O   UNL     1      -8.554   5.522  62.871  1.00  0.00    -0.101 OA 
HETATM   32  P   UNL     1      -8.470   4.507  65.640  1.00  0.00    -0.122 P  
HETATM   33  N   UNL     1      -7.655   5.798  64.968  1.00  0.00    -0.082 N  
HETATM   34  N   UNL     1      -7.193   6.921  65.686  1.00  0.00    -0.071 NA 
ENDBRANCH  24  25
ENDBRANCH  19  24
BRANCH  20  35
HETATM   35  C   UNL     1      -8.571   9.639  67.659  1.00  0.00    -0.126 A  
HETATM   36  C   UNL     1      -8.311   8.122  69.555  1.00  0.00    -0.122 A  
HETATM   37  F   UNL     1      -7.593   8.986  71.629  1.00  0.00    -0.137 F  
HETATM   38  C   UNL     1      -8.658   8.347  68.219  1.00  0.00    -0.139 A  
HETATM   39  C   UNL     1      -7.771  10.467  69.805  1.00  0.00    -0.126 A  
HETATM   40  C   UNL     1      -8.103  10.689  68.465  1.00  0.00    -0.125 A  
HETATM   41  C   UNL     1      -7.885   9.191  70.339  1.00  0.00    -0.133 A  
ENDBRANCH  20  35
ENDBRANCH  17  18
ENDBRANCH   2  17
TORSDOF 6
ENDMDL
MODEL      106
REMARK 921   NORMALIZED FREE ENERGY PREDICTED BY IDOCK:   -7.22 KCAL/MOL
REMARK 922        TOTAL FREE ENERGY PREDICTED BY IDOCK:  -10.66 KCAL/MOL
REMARK 923 INTER-LIGAND FREE ENERGY PREDICTED BY IDOCK:   -9.10 KCAL/MOL
REMARK 924 INTRA-LIGAND FREE ENERGY PREDICTED BY IDOCK:   -1.55 KCAL/MOL
REMARK 927      BINDING AFFINITY PREDICTED BY RF-SCORE:    0.00 PKD
ROOT
HETATM    1  C   UNL     1     -10.118  14.658  67.418  1.00  0.00    -0.232 C  
HETATM    2  C   UNL     1     -10.786  13.296  67.560  1.00  0.00    -0.250 C  
ENDROOT
BRANCH   2   3
HETATM    3  C   UNL     1     -11.592  13.172  68.837  1.00  0.00    -0.354 A  
HETATM    4  F   UNL     1     -11.504  16.072  71.978  1.00  0.00    -0.443 F  
HETATM    5  F   UNL     1     -12.955  14.938  73.130  1.00  0.00    -0.440 F  
HETATM    6  C   UNL     1     -11.887  11.882  69.296  1.00  0.00    -0.379 A  
HETATM    7  C   UNL     1     -12.321  11.665  70.602  1.00  0.00    -0.437 A  
HETATM    8  F   UNL     1     -13.601  16.083  71.397  1.00  0.00    -0.460 F  
HETATM    9  C   UNL     1     -12.395  10.253  71.138  1.00  0.00    -0.395 C  
HETATM   10  C   UNL     1     -12.560  12.772  71.430  1.00  0.00    -0.308 A  
HETATM   11  C   UNL     1     -12.603  15.280  71.858  1.00  0.00    -0.353 C  
HETATM   12  C   UNL     1     -12.360  14.085  70.963  1.00  0.00    -0.443 A  
HETATM   13  F   UNL     1     -12.236   9.302  70.176  1.00  0.00    -0.061 F  
HETATM   14  F   UNL     1     -11.425  10.015  72.059  1.00  0.00    -0.267 F  
HETATM   15  C   UNL     1     -11.866  14.274  69.663  1.00  0.00    -0.370 A  
HETATM   16  F   UNL     1     -13.578   9.981  71.747  1.00  0.00    -0.410 F  
ENDBRANCH   2   3
BRANCH   2  17
HETATM   17  O   UNL     1      -9.812  12.242  67.473  1.00  0.00    -0.189 OA 
BRANCH  17  18
HETATM   18  C   UNL     1     -10.336  11.009  66.924  1.00  0.00    -0.235 C  
HETATM   19  N   UNL     1      -8.149  10.162  65.985  1.00  0.00    -0.124 NA 
HETATM   20  C   UNL     1      -9.270   9.827  66.903  1.00  0.00    -0.147 C  
HETATM   21  O   UNL     1     -10.858  11.199  65.598  1.00  0.00    -0.229 OA 
HETATM   22  C   UNL     1      -9.803  11.553  64.695  1.00  0.00    -0.246 C  
HETATM   23  C   UNL     1      -8.709  10.480  64.649  1.00  0.00    -0.183 C  
BRANCH  19  24
HETATM   24  C   UNL     1      -7.017   9.223  65.899  1.00  0.00    -0.089 C  
BRANCH  24  25
HETATM   25  C   UNL     1      -7.389   7.763  66.077  1.00  0.00    -0.074 C  
HETATM   26  O   UNL     1      -7.486   5.481  69.480  1.00  0.00    -0.068 OA 
HETATM   27  O   UNL     1      -9.539   4.739  68.351  1.00  0.00    -0.136 OA 
HETATM   28  N   UNL     1      -8.213   7.139  65.272  1.00  0.00    -0.137 NA 
HETATM   29  O   UNL     1      -7.387   3.331  68.098  1.00  0.00    -0.050 OA 
HETATM   30  C   UNL     1      -8.398   5.898  65.839  1.00  0.00    -0.136 C  
HETATM   31  O   UNL     1      -9.271   5.097  65.536  1.00  0.00    -0.158 OA 
HETATM   32  P   UNL     1      -7.952   4.707  68.145  1.00  0.00    -0.084 P  
HETATM   33  N   UNL     1      -7.565   5.770  66.919  1.00  0.00    -0.098 N  
HETATM   34  N   UNL     1      -6.885   6.993  67.099  1.00  0.00    -0.063 NA 
ENDBRANCH  24  25
ENDBRANCH  19  24
BRANCH  20  35
HETATM   35  C   UNL     1      -8.889   9.459  68.336  1.00  0.00    -0.128 A  
HETATM   36  C   UNL     1      -9.369   8.206  70.376  1.00  0.00    -0.158 A  
HETATM   37  F   UNL     1      -8.230   8.766  72.365  1.00  0.00    -0.197 F  
HETATM   38  C   UNL     1      -9.604   8.453  69.020  1.00  0.00    -0.160 A  
HETATM   39  C   UNL     1      -7.696   9.953  70.400  1.00  0.00    -0.094 A  
HETATM   40  C   UNL     1      -7.920  10.190  69.040  1.00  0.00    -0.115 A  
HETATM   41  C   UNL     1      -8.426   8.972  71.057  1.00  0.00    -0.203 A  
ENDBRANCH  20  35
ENDBRANCH  17  18
ENDBRANCH   2  17
TORSDOF 6
ENDMDL
MODEL      107
REMARK 921   NORMALIZED FREE ENERGY PREDICTED BY IDOCK:   -7.20 KCAL/MOL
REMARK 922        TOTAL FREE ENERGY PREDICTED BY IDOCK:  -10.63 KCAL/MOL
REMARK 923 INTER-LIGAND FREE ENERGY PREDICTED BY IDOCK:   -9.38 KCAL/MOL
REMARK 924 INTRA-LIGAND FREE ENERGY PREDICTED BY IDOCK:   -1.26 KCAL/MOL
REMARK 927      BINDING AFFINITY PREDICTED BY RF-SCORE:    0.00 PKD
ROOT
HETATM    1  C   UNL     1     -10.404   8.334  67.330  1.00  0.00    -0.372 C  
HETATM    2  C   UNL     1      -9.719   9.095  68.458  1.00  0.00    -0.155 C  
ENDROOT
BRANCH   2   3
HETATM    3  C   UNL     1     -10.175   8.640  69.829  1.00  0.00    -0.206 A  
HETATM    4  F   UNL     1     -13.395  10.461  71.973  1.00  0.00    -0.482 F  
HETATM    5  F   UNL     1     -13.162   9.055  73.612  1.00  0.00     0.510 F  
HETATM    6  C   UNL     1      -9.218   8.061  70.673  1.00  0.00    -0.156 A  
HETATM    7  C   UNL     1      -9.454   7.922  72.039  1.00  0.00    -0.230 A  
HETATM    8  F   UNL     1     -14.088   8.410  71.753  1.00  0.00    -0.378 F  
HETATM    9  C   UNL     1      -8.319   7.524  72.955  1.00  0.00    -0.120 C  
HETATM   10  C   UNL     1     -10.712   8.276  72.549  1.00  0.00    -0.411 A  
HETATM   11  C   UNL     1     -13.076   9.169  72.256  1.00  0.00    -0.438 C  
HETATM   12  C   UNL     1     -11.724   8.773  71.707  1.00  0.00    -0.416 A  
HETATM   13  F   UNL     1      -7.205   7.115  72.286  1.00  0.00    -0.070 F  
HETATM   14  F   UNL     1      -7.922   8.559  73.740  1.00  0.00    -0.241 F  
HETATM   15  C   UNL     1     -11.441   8.959  70.345  1.00  0.00    -0.182 A  
HETATM   16  F   UNL     1      -8.650   6.510  73.795  1.00  0.00    -0.119 F  
ENDBRANCH   2   3
BRANCH   2  17
HETATM   17  O   UNL     1      -9.913  10.511  68.305  1.00  0.00    -0.153 OA 
BRANCH  17  18
HETATM   18  C   UNL     1     -11.116  10.860  67.578  1.00  0.00    -0.310 C  
HETATM   19  N   UNL     1     -10.510  13.276  67.163  1.00  0.00    -0.247 NA 
HETATM   20  C   UNL     1     -10.887  12.003  66.494  1.00  0.00    -0.277 C  
HETATM   21  O   UNL     1     -12.176  11.254  68.466  1.00  0.00    -0.588 OA 
HETATM   22  C   UNL     1     -11.828  12.465  69.148  1.00  0.00    -0.300 C  
HETATM   23  C   UNL     1     -11.548  13.610  68.168  1.00  0.00    -0.332 C  
BRANCH  19  24
HETATM   24  C   UNL     1     -10.171  14.433  66.315  1.00  0.00    -0.299 C  
BRANCH  24  25
HETATM   25  C   UNL     1      -8.869  15.124  66.676  1.00  0.00    -0.286 C  
HETATM   26  O   UNL     1      -8.237  18.839  68.288  1.00  0.00    -0.303 OA 
HETATM   27  O   UNL     1      -6.603  17.493  69.538  1.00  0.00    -0.239 OA 
HETATM   28  N   UNL     1      -7.785  14.466  67.002  1.00  0.00    -0.013 NA 
HETATM   29  O   UNL     1      -5.811  18.830  67.475  1.00  0.00    -0.169 OA 
HETATM   30  C   UNL     1      -6.881  15.430  67.388  1.00  0.00    -0.170 C  
HETATM   31  O   UNL     1      -5.833  15.229  67.987  1.00  0.00    -0.122 OA 
HETATM   32  P   UNL     1      -6.894  17.982  68.042  1.00  0.00    -0.215 P  
HETATM   33  N   UNL     1      -7.422  16.668  67.160  1.00  0.00    -0.164 N  
HETATM   34  N   UNL     1      -8.740  16.493  66.688  1.00  0.00    -0.225 NA 
ENDBRANCH  24  25
ENDBRANCH  19  24
BRANCH  20  35
HETATM   35  C   UNL     1      -9.937  11.495  65.412  1.00  0.00    -0.288 A  
HETATM   36  C   UNL     1      -9.607  10.599  63.164  1.00  0.00    -0.382 A  
HETATM   37  F   UNL     1      -7.519   9.658  62.596  1.00  0.00    -0.107 F  
HETATM   38  C   UNL     1     -10.428  11.203  64.121  1.00  0.00    -0.442 A  
HETATM   39  C   UNL     1      -7.783  10.571  64.753  1.00  0.00     0.000 A  
HETATM   40  C   UNL     1      -8.598  11.189  65.705  1.00  0.00    -0.113 A  
HETATM   41  C   UNL     1      -8.294  10.275  63.497  1.00  0.00    -0.169 A  
ENDBRANCH  20  35
ENDBRANCH  17  18
ENDBRANCH   2  17
TORSDOF 6
ENDMDL
MODEL      108
REMARK 921   NORMALIZED FREE ENERGY PREDICTED BY IDOCK:   -7.20 KCAL/MOL
REMARK 922        TOTAL FREE ENERGY PREDICTED BY IDOCK:  -10.62 KCAL/MOL
REMARK 923 INTER-LIGAND FREE ENERGY PREDICTED BY IDOCK:   -9.99 KCAL/MOL
REMARK 924 INTRA-LIGAND FREE ENERGY PREDICTED BY IDOCK:   -0.64 KCAL/MOL
REMARK 927      BINDING AFFINITY PREDICTED BY RF-SCORE:    0.00 PKD
ROOT
HETATM    1  C   UNL     1     -12.055  14.782  68.423  1.00  0.00    -0.202 C  
HETATM    2  C   UNL     1     -10.813  14.740  69.304  1.00  0.00    -0.264 C  
ENDROOT
BRANCH   2   3
HETATM    3  C   UNL     1      -9.929  15.958  69.124  1.00  0.00    -0.245 A  
HETATM    4  F   UNL     1     -11.172  19.497  67.072  1.00  0.00    -0.558 F  
HETATM    5  F   UNL     1      -9.265  20.456  67.474  1.00  0.00    -0.427 F  
HETATM    6  C   UNL     1      -8.545  15.753  69.065  1.00  0.00    -0.236 A  
HETATM    7  C   UNL     1      -7.692  16.741  68.579  1.00  0.00    -0.223 A  
HETATM    8  F   UNL     1     -10.731  20.249  69.066  1.00  0.00    -0.434 F  
HETATM    9  C   UNL     1      -6.244  16.404  68.299  1.00  0.00    -0.120 C  
HETATM   10  C   UNL     1      -8.227  17.993  68.241  1.00  0.00    -0.298 A  
HETATM   11  C   UNL     1     -10.185  19.600  68.002  1.00  0.00    -0.457 C  
HETATM   12  C   UNL     1      -9.602  18.256  68.379  1.00  0.00    -0.350 A  
HETATM   13  F   UNL     1      -5.870  15.187  68.784  1.00  0.00    -0.085 F  
HETATM   14  F   UNL     1      -5.986  16.369  66.966  1.00  0.00    -0.175 F  
HETATM   15  C   UNL     1     -10.449  17.225  68.816  1.00  0.00    -0.340 A  
HETATM   16  F   UNL     1      -5.381  17.306  68.834  1.00  0.00    -0.138 F  
ENDBRANCH   2   3
BRANCH   2  17
HETATM   17  O   UNL     1     -10.065  13.535  69.070  1.00  0.00    -0.076 OA 
BRANCH  17  18
HETATM   18  C   UNL     1     -10.656  12.667  68.071  1.00  0.00    -0.221 C  
HETATM   19  N   UNL     1      -8.938  10.824  68.241  1.00  0.00    -0.137 NA 
HETATM   20  C   UNL     1     -10.391  11.122  68.345  1.00  0.00    -0.186 C  
HETATM   21  O   UNL     1     -10.203  12.999  66.747  1.00  0.00    -0.240 OA 
HETATM   22  C   UNL     1      -8.797  12.750  66.626  1.00  0.00    -0.108 C  
HETATM   23  C   UNL     1      -8.452  11.285  66.918  1.00  0.00    -0.152 C  
BRANCH  19  24
HETATM   24  C   UNL     1      -8.486   9.456  68.548  1.00  0.00    -0.119 C  
BRANCH  24  25
HETATM   25  C   UNL     1      -8.943   8.399  67.559  1.00  0.00    -0.135 C  
HETATM   26  O   UNL     1      -6.787   5.461  65.684  1.00  0.00    -0.060 OA 
HETATM   27  O   UNL     1      -8.842   4.244  66.268  1.00  0.00    -0.113 OA 
HETATM   28  N   UNL     1     -10.168   7.937  67.533  1.00  0.00    -0.220 NA 
HETATM   29  O   UNL     1      -8.593   5.218  63.888  1.00  0.00    -0.127 OA 
HETATM   30  C   UNL     1     -10.147   6.915  66.610  1.00  0.00    -0.141 C  
HETATM   31  O   UNL     1     -11.021   6.072  66.458  1.00  0.00    -0.245 OA 
HETATM   32  P   UNL     1      -8.362   5.456  65.338  1.00  0.00    -0.147 P  
HETATM   33  N   UNL     1      -8.916   6.878  66.010  1.00  0.00    -0.139 N  
HETATM   34  N   UNL     1      -8.098   7.852  66.622  1.00  0.00    -0.105 NA 
ENDBRANCH  24  25
ENDBRANCH  19  24
BRANCH  20  35
HETATM   35  C   UNL     1     -11.080  10.709  69.644  1.00  0.00    -0.342 A  
HETATM   36  C   UNL     1     -11.098   9.334  71.661  1.00  0.00    -0.438 A  
HETATM   37  F   UNL     1     -13.084   9.172  72.925  1.00  0.00    -0.464 F  
HETATM   38  C   UNL     1     -10.428   9.839  70.543  1.00  0.00    -0.366 A  
HETATM   39  C   UNL     1     -13.083  10.559  71.019  1.00  0.00    -0.419 A  
HETATM   40  C   UNL     1     -12.409  11.076  69.909  1.00  0.00    -0.356 A  
HETATM   41  C   UNL     1     -12.428   9.689  71.879  1.00  0.00    -0.377 A  
ENDBRANCH  20  35
ENDBRANCH  17  18
ENDBRANCH   2  17
TORSDOF 6
ENDMDL
MODEL      109
REMARK 921   NORMALIZED FREE ENERGY PREDICTED BY IDOCK:   -7.17 KCAL/MOL
REMARK 922        TOTAL FREE ENERGY PREDICTED BY IDOCK:  -10.59 KCAL/MOL
REMARK 923 INTER-LIGAND FREE ENERGY PREDICTED BY IDOCK:   -8.72 KCAL/MOL
REMARK 924 INTRA-LIGAND FREE ENERGY PREDICTED BY IDOCK:   -1.86 KCAL/MOL
REMARK 927      BINDING AFFINITY PREDICTED BY RF-SCORE:    0.00 PKD
ROOT
HETATM    1  C   UNL     1     -10.942   8.072  72.615  1.00  0.00    -0.448 C  
HETATM    2  C   UNL     1     -11.009   7.919  71.101  1.00  0.00    -0.239 C  
ENDROOT
BRANCH   2   3
HETATM    3  C   UNL     1     -10.339   6.651  70.612  1.00  0.00    -0.233 A  
HETATM    4  F   UNL     1     -11.143   4.869  66.809  1.00  0.00    -0.143 F  
HETATM    5  F   UNL     1      -9.694   3.297  67.186  1.00  0.00    -0.231 F  
HETATM    6  C   UNL     1      -9.933   5.718  71.574  1.00  0.00    -0.226 A  
HETATM    7  C   UNL     1      -9.621   4.408  71.219  1.00  0.00    -0.242 A  
HETATM    8  F   UNL     1      -9.014   5.298  66.677  1.00  0.00    -0.116 F  
HETATM    9  C   UNL     1      -9.425   3.369  72.300  1.00  0.00    -0.123 C  
HETATM   10  C   UNL     1      -9.618   4.055  69.861  1.00  0.00    -0.281 A  
HETATM   11  C   UNL     1      -9.944   4.619  67.401  1.00  0.00    -0.141 C  
HETATM   12  C   UNL     1      -9.932   4.999  68.865  1.00  0.00    -0.236 A  
HETATM   13  F   UNL     1      -9.354   3.900  73.552  1.00  0.00    -0.103 F  
HETATM   14  F   UNL     1     -10.452   2.479  72.332  1.00  0.00    -0.230 F  
HETATM   15  C   UNL     1     -10.301   6.297  69.254  1.00  0.00    -0.266 A  
HETATM   16  F   UNL     1      -8.291   2.641  72.133  1.00  0.00    -0.056 F  
ENDBRANCH   2   3
BRANCH   2  17
HETATM   17  O   UNL     1     -10.447   9.071  70.449  1.00  0.00    -0.192 OA 
BRANCH  17  18
HETATM   18  C   UNL     1     -11.209   9.523  69.303  1.00  0.00    -0.000 C  
HETATM   19  N   UNL     1      -9.956  11.688  68.961  1.00  0.00    -0.059 NA 
HETATM   20  C   UNL     1     -10.362  10.420  68.299  1.00  0.00    -0.171 C  
HETATM   21  O   UNL     1     -12.389  10.242  69.703  1.00  0.00    -0.077 OA 
HETATM   22  C   UNL     1     -12.027  11.456  70.371  1.00  0.00    -0.374 C  
HETATM   23  C   UNL     1     -11.169  12.363  69.481  1.00  0.00    -0.100 C  
BRANCH  19  24
HETATM   24  C   UNL     1      -9.087  12.615  68.214  1.00  0.00    -0.181 C  
BRANCH  24  25
HETATM   25  C   UNL     1      -9.773  13.348  67.076  1.00  0.00    -0.239 C  
HETATM   26  O   UNL     1     -13.101  12.311  64.920  1.00  0.00    -0.654 OA 
HETATM   27  O   UNL     1     -13.479  14.717  65.251  1.00  0.00    -0.247 OA 
HETATM   28  N   UNL     1      -9.718  14.649  66.937  1.00  0.00    -0.234 NA 
HETATM   29  O   UNL     1     -12.432  13.904  63.033  1.00  0.00    -0.689 OA 
HETATM   30  C   UNL     1     -10.564  14.935  65.889  1.00  0.00    -0.325 C  
HETATM   31  O   UNL     1     -10.980  16.046  65.589  1.00  0.00    -0.272 OA 
HETATM   32  P   UNL     1     -12.457  13.731  64.511  1.00  0.00    -0.158 P  
HETATM   33  N   UNL     1     -11.012  13.762  65.341  1.00  0.00    -0.300 N  
HETATM   34  N   UNL     1     -10.502  12.694  66.111  1.00  0.00    -0.253 NA 
ENDBRANCH  24  25
ENDBRANCH  19  24
BRANCH  20  35
HETATM   35  C   UNL     1      -9.242   9.582  67.687  1.00  0.00    -0.138 A  
HETATM   36  C   UNL     1      -8.415   8.218  65.838  1.00  0.00    -0.151 A  
HETATM   37  F   UNL     1      -6.479   6.906  66.152  1.00  0.00    -0.044 F  
HETATM   38  C   UNL     1      -9.358   9.107  66.363  1.00  0.00    -0.261 A  
HETATM   39  C   UNL     1      -7.212   8.260  67.937  1.00  0.00    -0.095 A  
HETATM   40  C   UNL     1      -8.146   9.161  68.457  1.00  0.00    -0.103 A  
HETATM   41  C   UNL     1      -7.358   7.791  66.639  1.00  0.00    -0.088 A  
ENDBRANCH  20  35
ENDBRANCH  17  18
ENDBRANCH   2  17
TORSDOF 6
ENDMDL
MODEL      110
REMARK 921   NORMALIZED FREE ENERGY PREDICTED BY IDOCK:   -7.15 KCAL/MOL
REMARK 922        TOTAL FREE ENERGY PREDICTED BY IDOCK:  -10.56 KCAL/MOL
REMARK 923 INTER-LIGAND FREE ENERGY PREDICTED BY IDOCK:   -7.34 KCAL/MOL
REMARK 924 INTRA-LIGAND FREE ENERGY PREDICTED BY IDOCK:   -3.22 KCAL/MOL
REMARK 927      BINDING AFFINITY PREDICTED BY RF-SCORE:    0.00 PKD
ROOT
HETATM    1  C   UNL     1     -11.093   6.343  67.112  1.00  0.00    -0.422 C  
HETATM    2  C   UNL     1      -9.863   6.844  67.856  1.00  0.00    -0.135 C  
ENDROOT
BRANCH   2   3
HETATM    3  C   UNL     1     -10.174   7.277  69.274  1.00  0.00    -0.193 A  
HETATM    4  F   UNL     1     -10.997   4.539  72.454  1.00  0.00    -0.238 F  
HETATM    5  F   UNL     1     -11.217   6.173  73.867  1.00  0.00    -0.069 F  
HETATM    6  C   UNL     1     -10.796   8.520  69.452  1.00  0.00    -0.103 A  
HETATM    7  C   UNL     1     -11.411   8.850  70.658  1.00  0.00    -0.299 A  
HETATM    8  F   UNL     1      -9.236   5.586  73.189  1.00  0.00    -0.132 F  
HETATM    9  C   UNL     1     -12.277  10.086  70.739  1.00  0.00    -0.315 C  
HETATM   10  C   UNL     1     -11.312   7.958  71.737  1.00  0.00    -0.309 A  
HETATM   11  C   UNL     1     -10.517   5.772  72.769  1.00  0.00    -0.210 C  
HETATM   12  C   UNL     1     -10.613   6.743  71.612  1.00  0.00    -0.239 A  
HETATM   13  F   UNL     1     -12.175  10.889  69.643  1.00  0.00    -0.334 F  
HETATM   14  F   UNL     1     -13.594   9.769  70.846  1.00  0.00    -0.415 F  
HETATM   15  C   UNL     1     -10.053   6.407  70.369  1.00  0.00    -0.221 A  
HETATM   16  F   UNL     1     -11.983  10.868  71.809  1.00  0.00    -0.260 F  
ENDBRANCH   2   3
BRANCH   2  17
HETATM   17  O   UNL     1      -9.231   7.912  67.130  1.00  0.00    -0.138 OA 
BRANCH  17  18
HETATM   18  C   UNL     1      -7.862   7.629  66.751  1.00  0.00    -0.107 C  
HETATM   19  N   UNL     1      -7.026  10.008  66.896  1.00  0.00    -0.087 NA 
HETATM   20  C   UNL     1      -6.809   8.627  67.404  1.00  0.00    -0.071 C  
HETATM   21  O   UNL     1      -7.696   7.633  65.322  1.00  0.00    -0.096 OA 
HETATM   22  C   UNL     1      -7.929   8.947  64.800  1.00  0.00    -0.129 C  
HETATM   23  C   UNL     1      -6.979   9.981  65.414  1.00  0.00    -0.127 C  
BRANCH  19  24
HETATM   24  C   UNL     1      -6.200  11.092  67.454  1.00  0.00    -0.066 C  
BRANCH  24  25
HETATM   25  C   UNL     1      -6.843  12.466  67.411  1.00  0.00    -0.147 C  
HETATM   26  O   UNL     1     -10.541  13.669  68.705  1.00  0.00    -0.244 OA 
HETATM   27  O   UNL     1      -9.142  15.546  69.452  1.00  0.00    -0.259 OA 
HETATM   28  N   UNL     1      -6.145  13.575  67.420  1.00  0.00    -0.336 NA 
HETATM   29  O   UNL     1     -10.433  15.753  67.224  1.00  0.00    -0.294 OA 
HETATM   30  C   UNL     1      -7.077  14.584  67.511  1.00  0.00    -0.175 C  
HETATM   31  O   UNL     1      -6.839  15.753  67.785  1.00  0.00    -0.127 OA 
HETATM   32  P   UNL     1      -9.631  14.852  68.095  1.00  0.00    -0.220 P  
HETATM   33  N   UNL     1      -8.333  14.045  67.427  1.00  0.00    -0.186 N  
HETATM   34  N   UNL     1      -8.206  12.641  67.360  1.00  0.00    -0.176 NA 
ENDBRANCH  24  25
ENDBRANCH  19  24
BRANCH  20  35
HETATM   35  C   UNL     1      -6.814   8.452  68.921  1.00  0.00    -0.061 A  
HETATM   36  C   UNL     1      -6.480   7.013  70.866  1.00  0.00    -0.044 A  
HETATM   37  F   UNL     1      -7.261   7.729  72.974  1.00  0.00    -0.072 F  
HETATM   38  C   UNL     1      -6.345   7.250  69.495  1.00  0.00    -0.035 A  
HETATM   39  C   UNL     1      -7.543   9.170  71.131  1.00  0.00    -0.093 A  
HETATM   40  C   UNL     1      -7.395   9.414  69.762  1.00  0.00    -0.083 A  
HETATM   41  C   UNL     1      -7.093   7.972  71.668  1.00  0.00    -0.072 A  
ENDBRANCH  20  35
ENDBRANCH  17  18
ENDBRANCH   2  17
TORSDOF 6
ENDMDL
MODEL      111
REMARK 921   NORMALIZED FREE ENERGY PREDICTED BY IDOCK:   -7.14 KCAL/MOL
REMARK 922        TOTAL FREE ENERGY PREDICTED BY IDOCK:  -10.55 KCAL/MOL
REMARK 923 INTER-LIGAND FREE ENERGY PREDICTED BY IDOCK:   -9.16 KCAL/MOL
REMARK 924 INTRA-LIGAND FREE ENERGY PREDICTED BY IDOCK:   -1.39 KCAL/MOL
REMARK 927      BINDING AFFINITY PREDICTED BY RF-SCORE:    0.00 PKD
ROOT
HETATM    1  C   UNL     1      -7.306  13.579  68.809  1.00  0.00    -0.086 C  
HETATM    2  C   UNL     1      -8.398  13.434  67.757  1.00  0.00    -0.178 C  
ENDROOT
BRANCH   2   3
HETATM    3  C   UNL     1      -9.478  14.488  67.888  1.00  0.00    -0.212 A  
HETATM    4  F   UNL     1      -9.063  18.488  66.433  1.00  0.00    -0.282 F  
HETATM    5  F   UNL     1     -11.073  18.985  67.088  1.00  0.00    -0.508 F  
HETATM    6  C   UNL     1     -10.348  14.395  68.981  1.00  0.00    -0.204 A  
HETATM    7  C   UNL     1     -11.140  15.475  69.364  1.00  0.00    -0.291 A  
HETATM    8  F   UNL     1     -10.782  17.764  65.312  1.00  0.00    -0.373 F  
HETATM    9  C   UNL     1     -11.879  15.427  70.682  1.00  0.00    -0.351 C  
HETATM   10  C   UNL     1     -11.133  16.635  68.575  1.00  0.00    -0.301 A  
HETATM   11  C   UNL     1     -10.315  17.976  66.573  1.00  0.00    -0.373 C  
HETATM   12  C   UNL     1     -10.337  16.721  67.418  1.00  0.00    -0.302 A  
HETATM   13  F   UNL     1     -11.865  14.196  71.264  1.00  0.00    -0.376 F  
HETATM   14  F   UNL     1     -11.335  16.275  71.594  1.00  0.00    -0.415 F  
HETATM   15  C   UNL     1      -9.503  15.641  67.086  1.00  0.00    -0.226 A  
HETATM   16  F   UNL     1     -13.187  15.776  70.567  1.00  0.00    -0.488 F  
ENDBRANCH   2   3
BRANCH   2  17
HETATM   17  O   UNL     1      -8.971  12.116  67.800  1.00  0.00    -0.164 OA 
BRANCH  17  18
HETATM   18  C   UNL     1     -10.132  11.957  66.948  1.00  0.00    -0.207 C  
HETATM   19  N   UNL     1      -9.982   9.446  66.725  1.00  0.00    -0.220 NA 
HETATM   20  C   UNL     1     -10.871  10.561  67.146  1.00  0.00    -0.259 C  
HETATM   21  O   UNL     1      -9.796  12.124  65.560  1.00  0.00    -0.242 OA 
HETATM   22  C   UNL     1      -8.915  11.078  65.133  1.00  0.00    -0.145 C  
HETATM   23  C   UNL     1      -9.539   9.692  65.332  1.00  0.00    -0.291 C  
BRANCH  19  24
HETATM   24  C   UNL     1     -10.461   8.066  66.917  1.00  0.00    -0.317 C  
BRANCH  24  25
HETATM   25  C   UNL     1      -9.550   7.189  67.755  1.00  0.00    -0.129 C  
HETATM   26  O   UNL     1      -6.715   8.247  70.520  1.00  0.00    -0.036 OA 
HETATM   27  O   UNL     1      -7.778   6.332  71.637  1.00  0.00    -0.098 OA 
HETATM   28  N   UNL     1      -9.866   5.966  68.101  1.00  0.00    -0.126 NA 
HETATM   29  O   UNL     1      -5.591   5.958  70.313  1.00  0.00    -0.012 OA 
HETATM   30  C   UNL     1      -8.865   5.564  68.957  1.00  0.00    -0.105 C  
HETATM   31  O   UNL     1      -8.900   4.582  69.686  1.00  0.00    -0.079 OA 
HETATM   32  P   UNL     1      -6.905   6.656  70.335  1.00  0.00    -0.065 P  
HETATM   33  N   UNL     1      -7.896   6.532  68.999  1.00  0.00    -0.109 N  
HETATM   34  N   UNL     1      -8.326   7.621  68.211  1.00  0.00    -0.124 NA 
ENDBRANCH  24  25
ENDBRANCH  19  24
BRANCH  20  35
HETATM   35  C   UNL     1     -11.440  10.482  68.561  1.00  0.00    -0.284 A  
HETATM   36  C   UNL     1     -12.887  11.414  70.293  1.00  0.00    -0.005 A  
HETATM   37  F   UNL     1     -12.668  10.642  72.513  1.00  0.00    -0.285 F  
HETATM   38  C   UNL     1     -12.459  11.372  68.963  1.00  0.00     0.195 A  
HETATM   39  C   UNL     1     -11.300   9.676  70.854  1.00  0.00    -0.431 A  
HETATM   40  C   UNL     1     -10.883   9.623  69.521  1.00  0.00    -0.253 A  
HETATM   41  C   UNL     1     -12.290  10.573  71.230  1.00  0.00    -0.397 A  
ENDBRANCH  20  35
ENDBRANCH  17  18
ENDBRANCH   2  17
TORSDOF 6
ENDMDL
MODEL      112
REMARK 921   NORMALIZED FREE ENERGY PREDICTED BY IDOCK:   -7.13 KCAL/MOL
REMARK 922        TOTAL FREE ENERGY PREDICTED BY IDOCK:  -10.54 KCAL/MOL
REMARK 923 INTER-LIGAND FREE ENERGY PREDICTED BY IDOCK:  -10.19 KCAL/MOL
REMARK 924 INTRA-LIGAND FREE ENERGY PREDICTED BY IDOCK:   -0.34 KCAL/MOL
REMARK 927      BINDING AFFINITY PREDICTED BY RF-SCORE:    0.00 PKD
ROOT
HETATM    1  C   UNL     1      -6.929  12.715  67.692  1.00  0.00    -0.140 C  
HETATM    2  C   UNL     1      -8.158  11.975  67.181  1.00  0.00    -0.177 C  
ENDROOT
BRANCH   2   3
HETATM    3  C   UNL     1      -9.275  12.912  66.772  1.00  0.00    -0.230 A  
HETATM    4  F   UNL     1     -11.389  12.595  63.068  1.00  0.00    -0.504 F  
HETATM    5  F   UNL     1     -12.655  14.280  63.592  1.00  0.00    -0.428 F  
HETATM    6  C   UNL     1      -9.238  14.222  67.266  1.00  0.00    -0.218 A  
HETATM    7  C   UNL     1     -10.014  15.229  66.695  1.00  0.00    -0.264 A  
HETATM    8  F   UNL     1     -12.980  12.346  64.531  1.00  0.00    -0.541 F  
HETATM    9  C   UNL     1      -9.771  16.669  67.085  1.00  0.00    -0.250 C  
HETATM   10  C   UNL     1     -10.918  14.893  65.676  1.00  0.00    -0.347 A  
HETATM   11  C   UNL     1     -12.007  13.202  64.117  1.00  0.00    -0.436 C  
HETATM   12  C   UNL     1     -11.043  13.566  65.224  1.00  0.00    -0.307 A  
HETATM   13  F   UNL     1      -8.942  16.805  68.157  1.00  0.00    -0.204 F  
HETATM   14  F   UNL     1      -9.192  17.372  66.076  1.00  0.00    -0.264 F  
HETATM   15  C   UNL     1     -10.208  12.581  65.776  1.00  0.00    -0.289 A  
HETATM   16  F   UNL     1     -10.914  17.329  67.405  1.00  0.00    -0.308 F  
ENDBRANCH   2   3
BRANCH   2  17
HETATM   17  O   UNL     1      -8.624  11.030  68.158  1.00  0.00    -0.128 OA 
BRANCH  17  18
HETATM   18  C   UNL     1      -9.455   9.980  67.605  1.00  0.00    -0.144 C  
HETATM   19  N   UNL     1      -9.072   8.305  69.456  1.00  0.00    -0.153 NA 
HETATM   20  C   UNL     1     -10.121   9.054  68.714  1.00  0.00    -0.199 C  
HETATM   21  O   UNL     1      -8.722   9.158  66.679  1.00  0.00    -0.124 OA 
HETATM   22  C   UNL     1      -7.683   8.446  67.362  1.00  0.00    -0.098 C  
HETATM   23  C   UNL     1      -8.242   7.559  68.480  1.00  0.00    -0.125 C  
BRANCH  19  24
HETATM   24  C   UNL     1      -9.491   7.457  70.586  1.00  0.00    -0.164 C  
BRANCH  24  25
HETATM   25  C   UNL     1      -9.243   5.973  70.391  1.00  0.00    -0.156 C  
HETATM   26  O   UNL     1      -9.689   3.662  67.035  1.00  0.00    -0.197 OA 
HETATM   27  O   UNL     1      -7.578   2.786  67.939  1.00  0.00    -0.056 OA 
HETATM   28  N   UNL     1      -8.378   5.299  71.107  1.00  0.00    -0.120 NA 
HETATM   29  O   UNL     1      -9.779   1.535  68.454  1.00  0.00    -0.188 OA 
HETATM   30  C   UNL     1      -8.345   4.043  70.544  1.00  0.00    -0.065 C  
HETATM   31  O   UNL     1      -7.500   3.185  70.760  1.00  0.00    -0.037 OA 
HETATM   32  P   UNL     1      -9.130   2.868  68.322  1.00  0.00    -0.193 P  
HETATM   33  N   UNL     1      -9.302   3.965  69.566  1.00  0.00    -0.161 N  
HETATM   34  N   UNL     1      -9.911   5.232  69.444  1.00  0.00    -0.198 NA 
ENDBRANCH  24  25
ENDBRANCH  19  24
BRANCH  20  35
HETATM   35  C   UNL     1     -11.089   9.883  69.555  1.00  0.00    -0.255 A  
HETATM   36  C   UNL     1     -12.071  12.054  70.090  1.00  0.00    -0.377 A  
HETATM   37  F   UNL     1     -13.311  12.296  72.083  1.00  0.00    -0.574 F  
HETATM   38  C   UNL     1     -11.306  11.243  69.246  1.00  0.00    -0.354 A  
HETATM   39  C   UNL     1     -12.431  10.171  71.566  1.00  0.00    -0.526 A  
HETATM   40  C   UNL     1     -11.679   9.356  70.715  1.00  0.00    -0.349 A  
HETATM   41  C   UNL     1     -12.614  11.511  71.253  1.00  0.00    -0.347 A  
ENDBRANCH  20  35
ENDBRANCH  17  18
ENDBRANCH   2  17
TORSDOF 6
ENDMDL
MODEL      113
REMARK 921   NORMALIZED FREE ENERGY PREDICTED BY IDOCK:   -7.12 KCAL/MOL
REMARK 922        TOTAL FREE ENERGY PREDICTED BY IDOCK:  -10.51 KCAL/MOL
REMARK 923 INTER-LIGAND FREE ENERGY PREDICTED BY IDOCK:   -9.76 KCAL/MOL
REMARK 924 INTRA-LIGAND FREE ENERGY PREDICTED BY IDOCK:   -0.76 KCAL/MOL
REMARK 927      BINDING AFFINITY PREDICTED BY RF-SCORE:    0.00 PKD
ROOT
HETATM    1  C   UNL     1     -11.777  15.149  69.900  1.00  0.00    -0.346 C  
HETATM    2  C   UNL     1     -10.327  14.771  69.628  1.00  0.00    -0.065 C  
ENDROOT
BRANCH   2   3
HETATM    3  C   UNL     1      -9.520  15.921  69.060  1.00  0.00    -0.247 A  
HETATM    4  F   UNL     1      -5.627  16.996  70.464  1.00  0.00    -0.208 F  
HETATM    5  F   UNL     1      -5.488  18.593  68.999  1.00  0.00    -0.189 F  
HETATM    6  C   UNL     1     -10.225  17.007  68.527  1.00  0.00    -0.324 A  
HETATM    7  C   UNL     1      -9.596  18.228  68.293  1.00  0.00    -0.332 A  
HETATM    8  F   UNL     1      -5.251  16.524  68.374  1.00  0.00    -0.099 F  
HETATM    9  C   UNL     1     -10.428  19.443  67.951  1.00  0.00    -0.421 C  
HETATM   10  C   UNL     1      -8.212  18.329  68.503  1.00  0.00    -0.329 A  
HETATM   11  C   UNL     1      -5.974  17.335  69.193  1.00  0.00    -0.205 C  
HETATM   12  C   UNL     1      -7.463  17.225  68.951  1.00  0.00    -0.240 A  
HETATM   13  F   UNL     1     -11.730  19.146  67.681  1.00  0.00    -0.022 F  
HETATM   14  F   UNL     1     -10.456  20.336  68.974  1.00  0.00    -0.536 F  
HETATM   15  C   UNL     1      -8.131  16.024  69.236  1.00  0.00    -0.212 A  
HETATM   16  F   UNL     1      -9.961  20.115  66.867  1.00  0.00    -0.475 F  
ENDBRANCH   2   3
BRANCH   2  17
HETATM   17  O   UNL     1     -10.255  13.628  68.760  1.00  0.00    -0.223 OA 
BRANCH  17  18
HETATM   18  C   UNL     1     -11.497  13.339  68.072  1.00  0.00    -0.309 C  
HETATM   19  N   UNL     1     -10.608  11.449  66.653  1.00  0.00    -0.247 NA 
HETATM   20  C   UNL     1     -11.645  11.810  67.655  1.00  0.00    -0.294 C  
HETATM   21  O   UNL     1     -11.662  14.166  66.907  1.00  0.00    -0.372 OA 
HETATM   22  C   UNL     1     -10.656  13.860  65.935  1.00  0.00    -0.293 C  
HETATM   23  C   UNL     1     -10.704  12.388  65.510  1.00  0.00    -0.280 C  
BRANCH  19  24
HETATM   24  C   UNL     1     -10.530  10.046  66.210  1.00  0.00    -0.102 C  
BRANCH  24  25
HETATM   25  C   UNL     1      -9.125   9.550  65.920  1.00  0.00    -0.184 C  
HETATM   26  O   UNL     1      -7.758   5.722  65.391  1.00  0.00    -0.084 OA 
HETATM   27  O   UNL     1      -6.527   6.915  63.629  1.00  0.00    -0.041 OA 
HETATM   28  N   UNL     1      -8.231  10.278  65.297  1.00  0.00    -0.157 NA 
HETATM   29  O   UNL     1      -5.359   6.461  65.888  1.00  0.00    -0.013 OA 
HETATM   30  C   UNL     1      -7.155   9.440  65.107  1.00  0.00    -0.100 C  
HETATM   31  O   UNL     1      -6.208   9.651  64.361  1.00  0.00    -0.087 OA 
HETATM   32  P   UNL     1      -6.629   6.862  65.225  1.00  0.00    -0.052 P  
HETATM   33  N   UNL     1      -7.394   8.250  65.744  1.00  0.00    -0.071 N  
HETATM   34  N   UNL     1      -8.695   8.297  66.290  1.00  0.00    -0.143 NA 
ENDBRANCH  24  25
ENDBRANCH  19  24
BRANCH  20  35
HETATM   35  C   UNL     1     -11.711  10.944  68.911  1.00  0.00    -0.376 A  
HETATM   36  C   UNL     1     -12.487  10.634  71.206  1.00  0.00    -0.515 A  
HETATM   37  F   UNL     1     -11.550   8.908  72.514  1.00  0.00    -0.411 F  
HETATM   38  C   UNL     1     -12.528  11.332  69.995  1.00  0.00    -0.251 A  
HETATM   39  C   UNL     1     -10.824   9.139  70.284  1.00  0.00    -0.282 A  
HETATM   40  C   UNL     1     -10.875   9.827  69.067  1.00  0.00    -0.223 A  
HETATM   41  C   UNL     1     -11.621   9.552  71.342  1.00  0.00    -0.395 A  
ENDBRANCH  20  35
ENDBRANCH  17  18
ENDBRANCH   2  17
TORSDOF 6
ENDMDL
MODEL      114
REMARK 921   NORMALIZED FREE ENERGY PREDICTED BY IDOCK:   -7.10 KCAL/MOL
REMARK 922        TOTAL FREE ENERGY PREDICTED BY IDOCK:  -10.50 KCAL/MOL
REMARK 923 INTER-LIGAND FREE ENERGY PREDICTED BY IDOCK:   -7.09 KCAL/MOL
REMARK 924 INTRA-LIGAND FREE ENERGY PREDICTED BY IDOCK:   -3.41 KCAL/MOL
REMARK 927      BINDING AFFINITY PREDICTED BY RF-SCORE:    0.00 PKD
ROOT
HETATM    1  C   UNL     1      -9.830   4.234  69.341  1.00  0.00    -0.205 C  
HETATM    2  C   UNL     1      -8.949   5.472  69.234  1.00  0.00    -0.112 C  
ENDROOT
BRANCH   2   3
HETATM    3  C   UNL     1      -9.371   6.573  70.185  1.00  0.00    -0.162 A  
HETATM    4  F   UNL     1     -10.828  10.380  68.896  1.00  0.00    -0.197 F  
HETATM    5  F   UNL     1     -11.125  11.015  70.952  1.00  0.00    -0.138 F  
HETATM    6  C   UNL     1      -8.743   6.626  71.437  1.00  0.00    -0.129 A  
HETATM    7  C   UNL     1      -8.818   7.768  72.230  1.00  0.00    -0.180 A  
HETATM    8  F   UNL     1     -12.508   9.606  70.042  1.00  0.00    -0.027 F  
HETATM    9  C   UNL     1      -7.936   7.885  73.453  1.00  0.00    -0.169 C  
HETATM   10  C   UNL     1      -9.620   8.838  71.806  1.00  0.00    -0.371 A  
HETATM   11  C   UNL     1     -11.190   9.931  70.129  1.00  0.00    -0.289 C  
HETATM   12  C   UNL     1     -10.336   8.774  70.596  1.00  0.00    -0.253 A  
HETATM   13  F   UNL     1      -7.306   6.721  73.777  1.00  0.00    -0.083 F  
HETATM   14  F   UNL     1      -6.950   8.803  73.274  1.00  0.00    -0.117 F  
HETATM   15  C   UNL     1     -10.197   7.635  69.786  1.00  0.00    -0.210 A  
HETATM   16  F   UNL     1      -8.619   8.267  74.562  1.00  0.00    -0.275 F  
ENDBRANCH   2   3
BRANCH   2  17
HETATM   17  O   UNL     1      -8.919   5.958  67.881  1.00  0.00    -0.113 OA 
BRANCH  17  18
HETATM   18  C   UNL     1      -7.635   5.795  67.231  1.00  0.00    -0.096 C  
HETATM   19  N   UNL     1      -7.924   7.661  65.554  1.00  0.00    -0.112 NA 
HETATM   20  C   UNL     1      -7.050   7.155  66.645  1.00  0.00    -0.078 C  
HETATM   21  O   UNL     1      -7.693   4.813  66.182  1.00  0.00    -0.090 OA 
HETATM   22  C   UNL     1      -8.553   5.262  65.129  1.00  0.00    -0.151 C  
HETATM   23  C   UNL     1      -8.080   6.595  64.537  1.00  0.00    -0.073 C  
BRANCH  19  24
HETATM   24  C   UNL     1      -7.591   8.961  64.945  1.00  0.00    -0.108 C  
BRANCH  24  25
HETATM   25  C   UNL     1      -8.786   9.853  64.660  1.00  0.00    -0.194 C  
HETATM   26  O   UNL     1     -10.469  12.792  66.968  1.00  0.00    -0.235 OA 
HETATM   27  O   UNL     1     -10.538  13.835  64.744  1.00  0.00    -0.386 OA 
HETATM   28  N   UNL     1      -9.154  10.175  63.445  1.00  0.00    -0.254 NA 
HETATM   29  O   UNL     1     -12.651  12.649  65.641  1.00  0.00    -0.611 OA 
HETATM   30  C   UNL     1     -10.170  11.090  63.610  1.00  0.00    -0.372 C  
HETATM   31  O   UNL     1     -10.628  11.814  62.736  1.00  0.00    -0.060 OA 
HETATM   32  P   UNL     1     -11.169  12.591  65.530  1.00  0.00    -0.342 P  
HETATM   33  N   UNL     1     -10.468  11.196  64.943  1.00  0.00    -0.308 N  
HETATM   34  N   UNL     1      -9.563  10.385  65.661  1.00  0.00    -0.209 NA 
ENDBRANCH  24  25
ENDBRANCH  19  24
BRANCH  20  35
HETATM   35  C   UNL     1      -6.762   8.121  67.792  1.00  0.00    -0.065 A  
HETATM   36  C   UNL     1      -5.830   8.519  70.014  1.00  0.00    -0.024 A  
HETATM   37  F   UNL     1      -6.362  10.522  71.143  1.00  0.00    -0.024 F  
HETATM   38  C   UNL     1      -5.980   7.701  68.890  1.00  0.00    -0.031 A  
HETATM   39  C   UNL     1      -7.226  10.199  68.974  1.00  0.00    -0.076 A  
HETATM   40  C   UNL     1      -7.364   9.388  67.843  1.00  0.00    -0.083 A  
HETATM   41  C   UNL     1      -6.469   9.756  70.050  1.00  0.00    -0.074 A  
ENDBRANCH  20  35
ENDBRANCH  17  18
ENDBRANCH   2  17
TORSDOF 6
ENDMDL
MODEL      115
REMARK 921   NORMALIZED FREE ENERGY PREDICTED BY IDOCK:   -7.10 KCAL/MOL
REMARK 922        TOTAL FREE ENERGY PREDICTED BY IDOCK:  -10.49 KCAL/MOL
REMARK 923 INTER-LIGAND FREE ENERGY PREDICTED BY IDOCK:   -9.08 KCAL/MOL
REMARK 924 INTRA-LIGAND FREE ENERGY PREDICTED BY IDOCK:   -1.41 KCAL/MOL
REMARK 927      BINDING AFFINITY PREDICTED BY RF-SCORE:    0.00 PKD
ROOT
HETATM    1  C   UNL     1     -12.511  10.876  71.179  1.00  0.00    -0.511 C  
HETATM    2  C   UNL     1     -11.747  10.675  69.876  1.00  0.00    -0.317 C  
ENDROOT
BRANCH   2   3
HETATM    3  C   UNL     1     -10.743   9.544  69.957  1.00  0.00    -0.278 A  
HETATM    4  F   UNL     1     -11.617   5.729  71.681  1.00  0.00    -0.318 F  
HETATM    5  F   UNL     1      -9.622   5.009  71.214  1.00  0.00    -0.175 F  
HETATM    6  C   UNL     1      -9.387   9.883  70.046  1.00  0.00    -0.232 A  
HETATM    7  C   UNL     1      -8.437   8.948  70.452  1.00  0.00    -0.181 A  
HETATM    8  F   UNL     1     -11.101   5.204  69.633  1.00  0.00    -0.238 F  
HETATM    9  C   UNL     1      -7.032   9.405  70.772  1.00  0.00    -0.114 C  
HETATM   10  C   UNL     1      -8.841   7.623  70.674  1.00  0.00    -0.145 A  
HETATM   11  C   UNL     1     -10.624   5.810  70.754  1.00  0.00    -0.269 C  
HETATM   12  C   UNL     1     -10.183   7.234  70.501  1.00  0.00    -0.203 A  
HETATM   13  F   UNL     1      -6.785  10.692  70.399  1.00  0.00    -0.145 F  
HETATM   14  F   UNL     1      -6.779   9.350  72.106  1.00  0.00     0.047 F  
HETATM   15  C   UNL     1     -11.131   8.208  70.149  1.00  0.00    -0.187 A  
HETATM   16  F   UNL     1      -6.080   8.647  70.169  1.00  0.00    -0.032 F  
ENDBRANCH   2   3
BRANCH   2  17
HETATM   17  O   UNL     1     -11.102  11.895  69.474  1.00  0.00    -0.201 OA 
BRANCH  17  18
HETATM   18  C   UNL     1     -11.793  12.599  68.413  1.00  0.00    -0.301 C  
HETATM   19  N   UNL     1      -9.933  14.224  67.887  1.00  0.00    -0.226 NA 
HETATM   20  C   UNL     1     -10.814  13.179  67.301  1.00  0.00    -0.257 C  
HETATM   21  O   UNL     1     -12.610  13.664  68.929  1.00  0.00     0.036 OA 
HETATM   22  C   UNL     1     -11.788  14.674  69.527  1.00  0.00    -0.330 C  
HETATM   23  C   UNL     1     -10.783  15.257  68.527  1.00  0.00    -0.247 C  
BRANCH  19  24
HETATM   24  C   UNL     1      -8.895  14.820  67.028  1.00  0.00    -0.237 C  
BRANCH  24  25
HETATM   25  C   UNL     1      -8.592  16.278  67.318  1.00  0.00    -0.179 C  
HETATM   26  O   UNL     1     -11.059  19.547  67.159  1.00  0.00    -0.446 OA 
HETATM   27  O   UNL     1      -9.794  20.005  69.216  1.00  0.00    -0.251 OA 
HETATM   28  N   UNL     1      -7.646  16.654  68.142  1.00  0.00    -0.166 NA 
HETATM   29  O   UNL     1      -9.045  21.118  67.008  1.00  0.00    -0.044 OA 
HETATM   30  C   UNL     1      -7.777  18.022  68.240  1.00  0.00    -0.282 C  
HETATM   31  O   UNL     1      -7.247  18.732  69.083  1.00  0.00    -0.291 OA 
HETATM   32  P   UNL     1      -9.554  19.871  67.639  1.00  0.00    -0.407 P  
HETATM   33  N   UNL     1      -8.737  18.444  67.357  1.00  0.00    -0.258 N  
HETATM   34  N   UNL     1      -9.293  17.307  66.734  1.00  0.00    -0.250 NA 
ENDBRANCH  24  25
ENDBRANCH  19  24
BRANCH  20  35
HETATM   35  C   UNL     1     -10.117  12.025  66.584  1.00  0.00    -0.220 A  
HETATM   36  C   UNL     1      -8.313  10.381  66.519  1.00  0.00    -0.130 A  
HETATM   37  F   UNL     1      -7.877   9.229  64.507  1.00  0.00    -0.104 F  
HETATM   38  C   UNL     1      -9.058  11.338  67.215  1.00  0.00    -0.156 A  
HETATM   39  C   UNL     1      -9.667  10.762  64.551  1.00  0.00    -0.351 A  
HETATM   40  C   UNL     1     -10.422  11.708  65.250  1.00  0.00    -0.323 A  
HETATM   41  C   UNL     1      -8.617  10.114  65.186  1.00  0.00    -0.164 A  
ENDBRANCH  20  35
ENDBRANCH  17  18
ENDBRANCH   2  17
TORSDOF 6
ENDMDL
MODEL      116
REMARK 921   NORMALIZED FREE ENERGY PREDICTED BY IDOCK:   -7.07 KCAL/MOL
REMARK 922        TOTAL FREE ENERGY PREDICTED BY IDOCK:  -10.45 KCAL/MOL
REMARK 923 INTER-LIGAND FREE ENERGY PREDICTED BY IDOCK:   -8.93 KCAL/MOL
REMARK 924 INTRA-LIGAND FREE ENERGY PREDICTED BY IDOCK:   -1.52 KCAL/MOL
REMARK 927      BINDING AFFINITY PREDICTED BY RF-SCORE:    0.00 PKD
ROOT
HETATM    1  C   UNL     1      -8.199   8.563  63.276  1.00  0.00    -0.141 C  
HETATM    2  C   UNL     1      -8.508   8.806  64.747  1.00  0.00    -0.160 C  
ENDROOT
BRANCH   2   3
HETATM    3  C   UNL     1      -8.757   7.522  65.511  1.00  0.00    -0.062 A  
HETATM    4  F   UNL     1      -9.606   3.778  63.627  1.00  0.00    -0.126 F  
HETATM    5  F   UNL     1      -9.710   2.779  65.553  1.00  0.00    -0.090 F  
HETATM    6  C   UNL     1      -9.317   7.626  66.791  1.00  0.00    -0.218 A  
HETATM    7  C   UNL     1      -9.880   6.519  67.422  1.00  0.00    -0.163 A  
HETATM    8  F   UNL     1      -7.779   3.340  64.726  1.00  0.00    -0.073 F  
HETATM    9  C   UNL     1     -10.688   6.711  68.685  1.00  0.00    -0.254 C  
HETATM   10  C   UNL     1      -9.789   5.265  66.800  1.00  0.00    -0.195 A  
HETATM   11  C   UNL     1      -9.062   3.768  64.875  1.00  0.00    -0.140 C  
HETATM   12  C   UNL     1      -9.149   5.116  65.555  1.00  0.00    -0.157 A  
HETATM   13  F   UNL     1     -10.583   7.966  69.207  1.00  0.00    -0.214 F  
HETATM   14  F   UNL     1     -12.014   6.510  68.468  1.00  0.00    -0.006 F  
HETATM   15  C   UNL     1      -8.642   6.257  64.913  1.00  0.00     0.057 A  
HETATM   16  F   UNL     1     -10.327   5.858  69.678  1.00  0.00    -0.216 F  
ENDBRANCH   2   3
BRANCH   2  17
HETATM   17  O   UNL     1      -9.623   9.703  64.889  1.00  0.00    -0.277 OA 
BRANCH  17  18
HETATM   18  C   UNL     1      -9.310  11.079  64.559  1.00  0.00    -0.198 C  
HETATM   19  N   UNL     1     -11.188  12.125  65.884  1.00  0.00    -0.326 NA 
HETATM   20  C   UNL     1      -9.712  12.107  65.706  1.00  0.00    -0.229 C  
HETATM   21  O   UNL     1      -9.926  11.481  63.324  1.00  0.00    -0.356 OA 
HETATM   22  C   UNL     1     -11.353  11.478  63.457  1.00  0.00    -0.279 C  
HETATM   23  C   UNL     1     -11.821  12.417  64.575  1.00  0.00    -0.384 C  
BRANCH  19  24
HETATM   24  C   UNL     1     -11.747  12.956  66.964  1.00  0.00    -0.385 C  
BRANCH  24  25
HETATM   25  C   UNL     1     -11.019  14.267  67.198  1.00  0.00    -0.302 C  
HETATM   26  O   UNL     1     -10.959  17.671  64.916  1.00  0.00    -0.886 OA 
HETATM   27  O   UNL     1     -11.125  18.618  67.178  1.00  0.00    -0.250 OA 
HETATM   28  N   UNL     1     -10.708  14.701  68.394  1.00  0.00    -0.235 NA 
HETATM   29  O   UNL     1      -8.805  18.452  66.055  1.00  0.00    -0.498 OA 
HETATM   30  C   UNL     1     -10.193  15.963  68.196  1.00  0.00    -0.232 C  
HETATM   31  O   UNL     1     -10.003  16.801  69.066  1.00  0.00    -0.257 OA 
HETATM   32  P   UNL     1     -10.107  17.769  66.281  1.00  0.00    -0.263 P  
HETATM   33  N   UNL     1     -10.095  16.201  66.850  1.00  0.00    -0.265 N  
HETATM   34  N   UNL     1     -10.637  15.092  66.166  1.00  0.00    -0.299 NA 
ENDBRANCH  24  25
ENDBRANCH  19  24
BRANCH  20  35
HETATM   35  C   UNL     1      -8.878  11.830  66.955  1.00  0.00    -0.191 A  
HETATM   36  C   UNL     1      -6.728  11.939  68.106  1.00  0.00    -0.062 A  
HETATM   37  F   UNL     1      -6.418  10.694  70.086  1.00  0.00    -0.092 F  
HETATM   38  C   UNL     1      -7.553  12.308  67.039  1.00  0.00    -0.071 A  
HETATM   39  C   UNL     1      -8.527  10.615  69.036  1.00  0.00    -0.148 A  
HETATM   40  C   UNL     1      -9.358  10.996  67.977  1.00  0.00    -0.163 A  
HETATM   41  C   UNL     1      -7.221  11.082  69.087  1.00  0.00    -0.121 A  
ENDBRANCH  20  35
ENDBRANCH  17  18
ENDBRANCH   2  17
TORSDOF 6
ENDMDL
MODEL      117
REMARK 921   NORMALIZED FREE ENERGY PREDICTED BY IDOCK:   -7.07 KCAL/MOL
REMARK 922        TOTAL FREE ENERGY PREDICTED BY IDOCK:  -10.45 KCAL/MOL
REMARK 923 INTER-LIGAND FREE ENERGY PREDICTED BY IDOCK:   -9.47 KCAL/MOL
REMARK 924 INTRA-LIGAND FREE ENERGY PREDICTED BY IDOCK:   -0.98 KCAL/MOL
REMARK 927      BINDING AFFINITY PREDICTED BY RF-SCORE:    0.00 PKD
ROOT
HETATM    1  C   UNL     1      -7.811   9.552  70.348  1.00  0.00    -0.190 C  
HETATM    2  C   UNL     1      -9.061   8.926  69.744  1.00  0.00    -0.150 C  
ENDROOT
BRANCH   2   3
HETATM    3  C   UNL     1      -8.945   7.423  69.590  1.00  0.00    -0.141 A  
HETATM    4  F   UNL     1      -8.260   4.759  72.863  1.00  0.00    -0.097 F  
HETATM    5  F   UNL     1      -8.331   3.038  71.539  1.00  0.00    -0.060 F  
HETATM    6  C   UNL     1      -8.451   6.931  68.375  1.00  0.00    -0.123 A  
HETATM    7  C   UNL     1      -8.002   5.617  68.261  1.00  0.00    -0.100 A  
HETATM    8  F   UNL     1     -10.170   4.060  72.090  1.00  0.00    -0.233 F  
HETATM    9  C   UNL     1      -7.253   5.190  67.019  1.00  0.00    -0.081 C  
HETATM   10  C   UNL     1      -8.147   4.753  69.357  1.00  0.00    -0.070 A  
HETATM   11  C   UNL     1      -8.870   4.273  71.749  1.00  0.00    -0.115 C  
HETATM   12  C   UNL     1      -8.726   5.197  70.560  1.00  0.00    -0.134 A  
HETATM   13  F   UNL     1      -7.299   6.113  66.018  1.00  0.00    -0.073 F  
HETATM   14  F   UNL     1      -5.935   4.983  67.274  1.00  0.00    -0.022 F  
HETATM   15  C   UNL     1      -9.116   6.542  70.669  1.00  0.00    -0.148 A  
HETATM   16  F   UNL     1      -7.727   4.033  66.488  1.00  0.00    -0.084 F  
ENDBRANCH   2   3
BRANCH   2  17
HETATM   17  O   UNL     1      -9.377   9.540  68.483  1.00  0.00    -0.137 OA 
BRANCH  17  18
HETATM   18  C   UNL     1      -9.008  10.938  68.407  1.00  0.00    -0.154 C  
HETATM   19  N   UNL     1     -10.710  11.589  66.657  1.00  0.00    -0.257 NA 
HETATM   20  C   UNL     1     -10.227  11.891  68.031  1.00  0.00    -0.192 C  
HETATM   21  O   UNL     1      -7.934  11.153  67.475  1.00  0.00    -0.113 OA 
HETATM   22  C   UNL     1      -8.362  10.841  66.144  1.00  0.00    -0.166 C  
HETATM   23  C   UNL     1      -9.566  11.690  65.719  1.00  0.00    -0.232 C  
BRANCH  19  24
HETATM   24  C   UNL     1     -11.894  12.312  66.162  1.00  0.00    -0.329 C  
BRANCH  24  25
HETATM   25  C   UNL     1     -11.688  13.802  65.959  1.00  0.00    -0.363 C  
HETATM   26  O   UNL     1      -9.256  16.409  67.980  1.00  0.00    -0.201 OA 
HETATM   27  O   UNL     1      -8.927  17.153  65.660  1.00  0.00    -0.491 OA 
HETATM   28  N   UNL     1     -11.863  14.389  64.801  1.00  0.00    -0.411 NA 
HETATM   29  O   UNL     1     -10.627  18.404  67.151  1.00  0.00    -0.400 OA 
HETATM   30  C   UNL     1     -11.450  15.689  64.992  1.00  0.00    -0.175 C  
HETATM   31  O   UNL     1     -11.228  16.505  64.107  1.00  0.00    -1.004 OA 
HETATM   32  P   UNL     1     -10.083  17.074  66.766  1.00  0.00    -0.308 P  
HETATM   33  N   UNL     1     -11.151  15.875  66.316  1.00  0.00    -0.105 N  
HETATM   34  N   UNL     1     -11.301  14.639  66.979  1.00  0.00    -0.345 NA 
ENDBRANCH  24  25
ENDBRANCH  19  24
BRANCH  20  35
HETATM   35  C   UNL     1     -11.271  11.846  69.145  1.00  0.00    -0.314 A  
HETATM   36  C   UNL     1     -12.332  12.915  71.067  1.00  0.00    -0.318 A  
HETATM   37  F   UNL     1     -13.720  11.629  72.477  1.00  0.00    -0.401 F  
HETATM   38  C   UNL     1     -11.491  12.983  69.952  1.00  0.00    -0.151 A  
HETATM   39  C   UNL     1     -12.763  10.582  70.595  1.00  0.00    -0.441 A  
HETATM   40  C   UNL     1     -11.934  10.653  69.471  1.00  0.00    -0.319 A  
HETATM   41  C   UNL     1     -12.948  11.707  71.385  1.00  0.00    -0.324 A  
ENDBRANCH  20  35
ENDBRANCH  17  18
ENDBRANCH   2  17
TORSDOF 6
ENDMDL
MODEL      118
REMARK 921   NORMALIZED FREE ENERGY PREDICTED BY IDOCK:   -7.04 KCAL/MOL
REMARK 922        TOTAL FREE ENERGY PREDICTED BY IDOCK:  -10.41 KCAL/MOL
REMARK 923 INTER-LIGAND FREE ENERGY PREDICTED BY IDOCK:   -7.72 KCAL/MOL
REMARK 924 INTRA-LIGAND FREE ENERGY PREDICTED BY IDOCK:   -2.68 KCAL/MOL
REMARK 927      BINDING AFFINITY PREDICTED BY RF-SCORE:    0.00 PKD
ROOT
HETATM    1  C   UNL     1     -12.998  10.877  70.020  1.00  0.00     0.046 C  
HETATM    2  C   UNL     1     -11.476  10.853  69.961  1.00  0.00    -0.329 C  
ENDROOT
BRANCH   2   3
HETATM    3  C   UNL     1     -10.922  11.708  68.840  1.00  0.00    -0.282 A  
HETATM    4  F   UNL     1     -11.713  15.892  68.447  1.00  0.00    -0.361 F  
HETATM    5  F   UNL     1     -10.464  16.010  66.674  1.00  0.00    -0.285 F  
HETATM    6  C   UNL     1     -10.671  11.085  67.611  1.00  0.00    -0.281 A  
HETATM    7  C   UNL     1     -10.484  11.832  66.450  1.00  0.00    -0.271 A  
HETATM    8  F   UNL     1      -9.546  15.847  68.639  1.00  0.00    -0.188 F  
HETATM    9  C   UNL     1     -10.459  11.134  65.109  1.00  0.00    -0.277 C  
HETATM   10  C   UNL     1     -10.447  13.232  66.543  1.00  0.00    -0.282 A  
HETATM   11  C   UNL     1     -10.581  15.391  67.883  1.00  0.00    -0.267 C  
HETATM   12  C   UNL     1     -10.605  13.882  67.781  1.00  0.00    -0.248 A  
HETATM   13  F   UNL     1     -10.397   9.777  65.210  1.00  0.00    -0.364 F  
HETATM   14  F   UNL     1     -11.576  11.402  64.384  1.00  0.00    -0.347 F  
HETATM   15  C   UNL     1     -10.851  13.108  68.927  1.00  0.00    -0.240 A  
HETATM   16  F   UNL     1      -9.403  11.505  64.340  1.00  0.00    -0.212 F  
ENDBRANCH   2   3
BRANCH   2  17
HETATM   17  O   UNL     1     -10.994   9.503  69.852  1.00  0.00    -0.231 OA 
BRANCH  17  18
HETATM   18  C   UNL     1      -9.992   9.160  70.841  1.00  0.00    -0.288 C  
HETATM   19  N   UNL     1      -9.198   7.040  69.722  1.00  0.00    -0.148 NA 
HETATM   20  C   UNL     1      -8.755   8.364  70.234  1.00  0.00    -0.140 C  
HETATM   21  O   UNL     1     -10.557   8.404  71.926  1.00  0.00    -0.251 OA 
HETATM   22  C   UNL     1     -11.020   7.132  71.456  1.00  0.00    -0.235 C  
HETATM   23  C   UNL     1      -9.892   6.317  70.815  1.00  0.00    -0.185 C  
BRANCH  19  24
HETATM   24  C   UNL     1      -8.205   6.191  69.041  1.00  0.00    -0.112 C  
BRANCH  24  25
HETATM   25  C   UNL     1      -8.616   5.718  67.659  1.00  0.00    -0.101 C  
HETATM   26  O   UNL     1      -6.478   3.608  64.871  1.00  0.00    -0.030 OA 
HETATM   27  O   UNL     1      -8.677   2.523  64.704  1.00  0.00    -0.099 OA 
HETATM   28  N   UNL     1      -9.861   5.466  67.338  1.00  0.00    -0.143 NA 
HETATM   29  O   UNL     1      -8.059   4.374  63.010  1.00  0.00    -0.077 OA 
HETATM   30  C   UNL     1      -9.804   4.937  66.068  1.00  0.00    -0.203 C  
HETATM   31  O   UNL     1     -10.715   4.353  65.496  1.00  0.00    -0.256 OA 
HETATM   32  P   UNL     1      -7.993   3.945  64.434  1.00  0.00    -0.087 P  
HETATM   33  N   UNL     1      -8.514   5.005  65.611  1.00  0.00    -0.123 N  
HETATM   34  N   UNL     1      -7.706   5.519  66.647  1.00  0.00    -0.099 NA 
ENDBRANCH  24  25
ENDBRANCH  19  24
BRANCH  20  35
HETATM   35  C   UNL     1      -8.007   9.260  69.248  1.00  0.00    -0.098 A  
HETATM   36  C   UNL     1      -6.870  11.369  68.780  1.00  0.00    -0.082 A  
HETATM   37  F   UNL     1      -6.404  11.953  66.542  1.00  0.00    -0.126 F  
HETATM   38  C   UNL     1      -7.427  10.468  69.692  1.00  0.00    -0.145 A  
HETATM   39  C   UNL     1      -7.445   9.881  66.962  1.00  0.00    -0.091 A  
HETATM   40  C   UNL     1      -7.989   8.972  67.874  1.00  0.00    -0.102 A  
HETATM   41  C   UNL     1      -6.899  11.072  67.420  1.00  0.00    -0.082 A  
ENDBRANCH  20  35
ENDBRANCH  17  18
ENDBRANCH   2  17
TORSDOF 6
ENDMDL
MODEL      119
REMARK 921   NORMALIZED FREE ENERGY PREDICTED BY IDOCK:   -7.03 KCAL/MOL
REMARK 922        TOTAL FREE ENERGY PREDICTED BY IDOCK:  -10.40 KCAL/MOL
REMARK 923 INTER-LIGAND FREE ENERGY PREDICTED BY IDOCK:   -7.77 KCAL/MOL
REMARK 924 INTRA-LIGAND FREE ENERGY PREDICTED BY IDOCK:   -2.63 KCAL/MOL
REMARK 927      BINDING AFFINITY PREDICTED BY RF-SCORE:    0.00 PKD
ROOT
HETATM    1  C   UNL     1     -11.847   9.993  70.036  1.00  0.00    -0.196 C  
HETATM    2  C   UNL     1     -11.556  10.722  68.730  1.00  0.00    -0.280 C  
ENDROOT
BRANCH   2   3
HETATM    3  C   UNL     1     -10.834   9.850  67.723  1.00  0.00    -0.321 A  
HETATM    4  F   UNL     1      -7.581   7.267  68.738  1.00  0.00    -0.093 F  
HETATM    5  F   UNL     1      -7.431   6.572  66.685  1.00  0.00    -0.073 F  
HETATM    6  C   UNL     1     -10.780  10.298  66.397  1.00  0.00    -0.103 A  
HETATM    7  C   UNL     1      -9.877   9.749  65.489  1.00  0.00    -0.378 A  
HETATM    8  F   UNL     1      -9.053   5.870  67.951  1.00  0.00    -0.114 F  
HETATM    9  C   UNL     1      -9.673  10.414  64.146  1.00  0.00    -0.324 C  
HETATM   10  C   UNL     1      -9.084   8.664  65.892  1.00  0.00    -0.259 A  
HETATM   11  C   UNL     1      -8.323   6.973  67.635  1.00  0.00    -0.117 C  
HETATM   12  C   UNL     1      -9.185   8.134  67.193  1.00  0.00    -0.175 A  
HETATM   13  F   UNL     1     -10.594  11.381  63.879  1.00  0.00    -0.328 F  
HETATM   14  F   UNL     1      -8.461  11.022  64.067  1.00  0.00    -0.102 F  
HETATM   15  C   UNL     1     -10.061   8.742  68.106  1.00  0.00    -0.228 A  
HETATM   16  F   UNL     1      -9.732   9.538  63.110  1.00  0.00    -0.087 F  
ENDBRANCH   2   3
BRANCH   2  17
HETATM   17  O   UNL     1     -10.813  11.928  68.978  1.00  0.00    -0.222 OA 
BRANCH  17  18
HETATM   18  C   UNL     1     -10.465  12.656  67.775  1.00  0.00    -0.221 C  
HETATM   19  N   UNL     1      -9.055  14.420  68.905  1.00  0.00    -0.123 NA 
HETATM   20  C   UNL     1      -9.042  13.364  67.858  1.00  0.00    -0.208 C  
HETATM   21  O   UNL     1     -11.464  13.635  67.441  1.00  0.00    -0.303 OA 
HETATM   22  C   UNL     1     -11.519  14.651  68.449  1.00  0.00    -0.311 C  
HETATM   23  C   UNL     1     -10.169  15.357  68.622  1.00  0.00    -0.217 C  
BRANCH  19  24
HETATM   24  C   UNL     1      -7.796  15.131  69.190  1.00  0.00    -0.199 C  
BRANCH  24  25
HETATM   25  C   UNL     1      -7.576  16.386  68.366  1.00  0.00    -0.178 C  
HETATM   26  O   UNL     1      -6.603  20.178  69.580  1.00  0.00    -0.315 OA 
HETATM   27  O   UNL     1      -5.178  19.935  67.591  1.00  0.00    -0.176 OA 
HETATM   28  N   UNL     1      -7.166  16.353  67.122  1.00  0.00    -0.177 NA 
HETATM   29  O   UNL     1      -7.446  21.152  67.370  1.00  0.00    -0.406 OA 
HETATM   30  C   UNL     1      -6.958  17.670  66.778  1.00  0.00    -0.199 C  
HETATM   31  O   UNL     1      -6.352  18.064  65.790  1.00  0.00    -0.239 OA 
HETATM   32  P   UNL     1      -6.729  20.001  67.982  1.00  0.00    -0.298 P  
HETATM   33  N   UNL     1      -7.376  18.474  67.806  1.00  0.00    -0.226 N  
HETATM   34  N   UNL     1      -7.790  17.647  68.871  1.00  0.00    -0.232 NA 
ENDBRANCH  24  25
ENDBRANCH  19  24
BRANCH  20  35
HETATM   35  C   UNL     1      -7.951  12.303  67.974  1.00  0.00    -0.150 A  
HETATM   36  C   UNL     1      -6.393  10.769  66.884  1.00  0.00    -0.084 A  
HETATM   37  F   UNL     1      -5.345   9.090  68.168  1.00  0.00    -0.033 F  
HETATM   38  C   UNL     1      -7.287  11.843  66.816  1.00  0.00    -0.011 A  
HETATM   39  C   UNL     1      -6.793  10.592  69.263  1.00  0.00    -0.086 A  
HETATM   40  C   UNL     1      -7.675  11.675  69.199  1.00  0.00     0.071 A  
HETATM   41  C   UNL     1      -6.168  10.144  68.108  1.00  0.00    -0.049 A  
ENDBRANCH  20  35
ENDBRANCH  17  18
ENDBRANCH   2  17
TORSDOF 6
ENDMDL
MODEL      120
REMARK 921   NORMALIZED FREE ENERGY PREDICTED BY IDOCK:   -7.03 KCAL/MOL
REMARK 922        TOTAL FREE ENERGY PREDICTED BY IDOCK:  -10.40 KCAL/MOL
REMARK 923 INTER-LIGAND FREE ENERGY PREDICTED BY IDOCK:   -9.18 KCAL/MOL
REMARK 924 INTRA-LIGAND FREE ENERGY PREDICTED BY IDOCK:   -1.22 KCAL/MOL
REMARK 927      BINDING AFFINITY PREDICTED BY RF-SCORE:    0.00 PKD
ROOT
HETATM    1  C   UNL     1     -10.228  12.787  67.599  1.00  0.00    -0.219 C  
HETATM    2  C   UNL     1     -10.519  11.514  68.383  1.00  0.00    -0.207 C  
ENDROOT
BRANCH   2   3
HETATM    3  C   UNL     1     -11.555  11.721  69.468  1.00  0.00    -0.398 A  
HETATM    4  F   UNL     1     -11.714  15.199  71.950  1.00  0.00    -0.364 F  
HETATM    5  F   UNL     1     -13.474  14.445  72.976  1.00  0.00    -0.531 F  
HETATM    6  C   UNL     1     -12.077  10.582  70.094  1.00  0.00    -0.380 A  
HETATM    7  C   UNL     1     -12.767  10.677  71.301  1.00  0.00    -0.537 A  
HETATM    8  F   UNL     1     -13.653  15.247  70.963  1.00  0.00    -0.450 F  
HETATM    9  C   UNL     1     -13.101   9.418  72.069  1.00  0.00    -0.433 C  
HETATM   10  C   UNL     1     -13.025  11.947  71.836  1.00  0.00    -0.434 A  
HETATM   11  C   UNL     1     -12.857  14.485  71.761  1.00  0.00    -0.343 C  
HETATM   12  C   UNL     1     -12.592  13.114  71.179  1.00  0.00    -0.403 A  
HETATM   13  F   UNL     1     -12.878   8.277  71.359  1.00  0.00    -0.308 F  
HETATM   14  F   UNL     1     -12.352   9.305  73.197  1.00  0.00     0.066 F  
HETATM   15  C   UNL     1     -11.849  12.989  69.995  1.00  0.00    -0.355 A  
HETATM   16  F   UNL     1     -14.399   9.370  72.464  1.00  0.00    -0.429 F  
ENDBRANCH   2   3
BRANCH   2  17
HETATM   17  O   UNL     1      -9.308  10.972  68.937  1.00  0.00    -0.190 OA 
BRANCH  17  18
HETATM   18  C   UNL     1      -8.198  10.955  68.007  1.00  0.00    -0.121 C  
HETATM   19  N   UNL     1      -6.844   9.194  69.210  1.00  0.00    -0.049 NA 
HETATM   20  C   UNL     1      -7.481   9.537  67.910  1.00  0.00    -0.083 C  
HETATM   21  O   UNL     1      -7.221  11.959  68.329  1.00  0.00    -0.076 OA 
HETATM   22  C   UNL     1      -6.611  11.671  69.593  1.00  0.00    -0.096 C  
HETATM   23  C   UNL     1      -5.931  10.297  69.597  1.00  0.00    -0.046 C  
BRANCH  19  24
HETATM   24  C   UNL     1      -6.203   7.875  69.342  1.00  0.00    -0.034 C  
BRANCH  24  25
HETATM   25  C   UNL     1      -6.934   6.902  70.249  1.00  0.00    -0.066 C  
HETATM   26  O   UNL     1     -10.847   5.685  70.168  1.00  0.00    -0.316 OA 
HETATM   27  O   UNL     1      -9.698   3.563  70.635  1.00  0.00    -0.180 OA 
HETATM   28  N   UNL     1      -6.328   5.924  70.874  1.00  0.00    -0.038 NA 
HETATM   29  O   UNL     1     -10.704   4.905  72.601  1.00  0.00    -0.208 OA 
HETATM   30  C   UNL     1      -7.335   5.198  71.469  1.00  0.00    -0.086 C  
HETATM   31  O   UNL     1      -7.222   4.078  71.949  1.00  0.00    -0.054 OA 
HETATM   32  P   UNL     1      -9.956   4.988  71.317  1.00  0.00    -0.199 P  
HETATM   33  N   UNL     1      -8.527   5.847  71.281  1.00  0.00    -0.127 N  
HETATM   34  N   UNL     1      -8.289   6.980  70.474  1.00  0.00    -0.130 NA 
ENDBRANCH  24  25
ENDBRANCH  19  24
BRANCH  20  35
HETATM   35  C   UNL     1      -8.456   8.511  67.338  1.00  0.00    -0.127 A  
HETATM   36  C   UNL     1     -10.699   7.545  67.298  1.00  0.00    -0.365 A  
HETATM   37  F   UNL     1     -11.042   5.477  66.215  1.00  0.00    -0.310 F  
HETATM   38  C   UNL     1      -9.822   8.560  67.692  1.00  0.00    -0.222 A  
HETATM   39  C   UNL     1      -8.878   6.411  66.179  1.00  0.00    -0.158 A  
HETATM   40  C   UNL     1      -8.004   7.434  66.560  1.00  0.00    -0.111 A  
HETATM   41  C   UNL     1     -10.212   6.471  66.557  1.00  0.00    -0.065 A  
ENDBRANCH  20  35
ENDBRANCH  17  18
ENDBRANCH   2  17
TORSDOF 6
ENDMDL
MODEL      121
REMARK 921   NORMALIZED FREE ENERGY PREDICTED BY IDOCK:   -7.03 KCAL/MOL
REMARK 922        TOTAL FREE ENERGY PREDICTED BY IDOCK:  -10.40 KCAL/MOL
REMARK 923 INTER-LIGAND FREE ENERGY PREDICTED BY IDOCK:   -8.01 KCAL/MOL
REMARK 924 INTRA-LIGAND FREE ENERGY PREDICTED BY IDOCK:   -2.38 KCAL/MOL
REMARK 927      BINDING AFFINITY PREDICTED BY RF-SCORE:    0.00 PKD
ROOT
HETATM    1  C   UNL     1      -8.369   8.572  72.070  1.00  0.00    -0.209 C  
HETATM    2  C   UNL     1      -8.262   9.162  70.669  1.00  0.00    -0.190 C  
ENDROOT
BRANCH   2   3
HETATM    3  C   UNL     1      -9.587   9.686  70.154  1.00  0.00    -0.300 A  
HETATM    4  F   UNL     1     -10.045  13.485  68.246  1.00  0.00    -0.219 F  
HETATM    5  F   UNL     1     -12.165  13.128  67.938  1.00  0.00    -0.362 F  
HETATM    6  C   UNL     1     -10.751   9.261  70.807  1.00  0.00    -0.350 A  
HETATM    7  C   UNL     1     -11.961   9.930  70.628  1.00  0.00    -0.361 A  
HETATM    8  F   UNL     1     -10.702  12.107  66.696  1.00  0.00    -0.246 F  
HETATM    9  C   UNL     1     -13.133   9.604  71.526  1.00  0.00    -0.400 C  
HETATM   10  C   UNL     1     -12.024  10.980  69.700  1.00  0.00    -0.424 A  
HETATM   11  C   UNL     1     -10.951  12.509  67.972  1.00  0.00    -0.232 C  
HETATM   12  C   UNL     1     -10.890  11.367  68.962  1.00  0.00    -0.265 A  
HETATM   13  F   UNL     1     -12.934   8.493  72.290  1.00  0.00    -0.338 F  
HETATM   14  F   UNL     1     -13.393  10.613  72.398  1.00  0.00    -0.522 F  
HETATM   15  C   UNL     1      -9.670  10.716  69.204  1.00  0.00    -0.205 A  
HETATM   16  F   UNL     1     -14.282   9.387  70.835  1.00  0.00    -0.318 F  
ENDBRANCH   2   3
BRANCH   2  17
HETATM   17  O   UNL     1      -7.710   8.200  69.755  1.00  0.00    -0.095 OA 
BRANCH  17  18
HETATM   18  C   UNL     1      -6.489   8.642  69.112  1.00  0.00    -0.043 C  
HETATM   19  N   UNL     1      -6.305   6.713  67.492  1.00  0.00    -0.042 NA 
HETATM   20  C   UNL     1      -6.384   8.195  67.587  1.00  0.00    -0.053 C  
HETATM   21  O   UNL     1      -5.323   8.188  69.820  1.00  0.00    -0.023 OA 
HETATM   22  C   UNL     1      -5.236   6.759  69.770  1.00  0.00    -0.014 C  
HETATM   23  C   UNL     1      -5.174   6.243  68.328  1.00  0.00    -0.007 C  
BRANCH  19  24
HETATM   24  C   UNL     1      -6.290   6.104  66.150  1.00  0.00    -0.038 C  
BRANCH  24  25
HETATM   25  C   UNL     1      -7.414   5.119  65.888  1.00  0.00    -0.082 C  
HETATM   26  O   UNL     1      -9.150   4.009  62.345  1.00  0.00    -0.094 OA 
HETATM   27  O   UNL     1      -8.984   1.842  63.493  1.00  0.00    -0.087 OA 
HETATM   28  N   UNL     1      -7.663   4.103  66.677  1.00  0.00    -0.089 NA 
HETATM   29  O   UNL     1     -11.217   3.138  63.577  1.00  0.00    -0.277 OA 
HETATM   30  C   UNL     1      -8.646   3.383  66.036  1.00  0.00    -0.118 C  
HETATM   31  O   UNL     1      -8.995   2.244  66.315  1.00  0.00    -0.131 OA 
HETATM   32  P   UNL     1      -9.734   3.248  63.641  1.00  0.00    -0.160 P  
HETATM   33  N   UNL     1      -9.051   4.070  64.921  1.00  0.00    -0.133 N  
HETATM   34  N   UNL     1      -8.248   5.225  64.800  1.00  0.00    -0.124 NA 
ENDBRANCH  24  25
ENDBRANCH  19  24
BRANCH  20  35
HETATM   35  C   UNL     1      -7.490   8.872  66.781  1.00  0.00    -0.083 A  
HETATM   36  C   UNL     1      -9.804   8.890  66.001  1.00  0.00    -0.277 A  
HETATM   37  F   UNL     1     -10.417  10.349  64.251  1.00  0.00    -0.413 F  
HETATM   38  C   UNL     1      -8.812   8.379  66.843  1.00  0.00    -0.157 A  
HETATM   39  C   UNL     1      -8.191  10.403  65.022  1.00  0.00    -0.152 A  
HETATM   40  C   UNL     1      -7.201   9.903  65.874  1.00  0.00    -0.108 A  
HETATM   41  C   UNL     1      -9.478   9.888  65.087  1.00  0.00    -0.275 A  
ENDBRANCH  20  35
ENDBRANCH  17  18
ENDBRANCH   2  17
TORSDOF 6
ENDMDL
MODEL      122
REMARK 921   NORMALIZED FREE ENERGY PREDICTED BY IDOCK:   -7.00 KCAL/MOL
REMARK 922        TOTAL FREE ENERGY PREDICTED BY IDOCK:  -10.36 KCAL/MOL
REMARK 923 INTER-LIGAND FREE ENERGY PREDICTED BY IDOCK:   -9.51 KCAL/MOL
REMARK 924 INTRA-LIGAND FREE ENERGY PREDICTED BY IDOCK:   -0.85 KCAL/MOL
REMARK 927      BINDING AFFINITY PREDICTED BY RF-SCORE:    0.00 PKD
ROOT
HETATM    1  C   UNL     1      -6.839  11.936  67.014  1.00  0.00    -0.122 C  
HETATM    2  C   UNL     1      -8.312  11.748  66.671  1.00  0.00    -0.136 C  
ENDROOT
BRANCH   2   3
HETATM    3  C   UNL     1      -9.051  13.064  66.535  1.00  0.00    -0.136 A  
HETATM    4  F   UNL     1     -11.861  13.884  63.418  1.00  0.00    -0.327 F  
HETATM    5  F   UNL     1     -12.253  15.861  64.228  1.00  0.00    -0.367 F  
HETATM    6  C   UNL     1      -8.417  14.218  67.014  1.00  0.00    -0.190 A  
HETATM    7  C   UNL     1      -8.857  15.486  66.642  1.00  0.00    -0.325 A  
HETATM    8  F   UNL     1     -13.078  14.104  65.208  1.00  0.00    -0.484 F  
HETATM    9  C   UNL     1      -8.011  16.695  66.973  1.00  0.00    -0.196 C  
HETATM   10  C   UNL     1     -10.015  15.600  65.858  1.00  0.00    -0.379 A  
HETATM   11  C   UNL     1     -11.965  14.577  64.584  1.00  0.00    -0.468 C  
HETATM   12  C   UNL     1     -10.725  14.459  65.441  1.00  0.00    -0.359 A  
HETATM   13  F   UNL     1      -6.985  16.418  67.825  1.00  0.00    -0.121 F  
HETATM   14  F   UNL     1      -7.438  17.225  65.861  1.00  0.00    -0.324 F  
HETATM   15  C   UNL     1     -10.227  13.190  65.780  1.00  0.00    -0.294 A  
HETATM   16  F   UNL     1      -8.724  17.695  67.552  1.00  0.00    -0.225 F  
ENDBRANCH   2   3
BRANCH   2  17
HETATM   17  O   UNL     1      -8.955  10.905  67.641  1.00  0.00    -0.139 OA 
BRANCH  17  18
HETATM   18  C   UNL     1     -10.112  10.202  67.126  1.00  0.00    -0.209 C  
HETATM   19  N   UNL     1     -10.384   8.628  69.082  1.00  0.00    -0.215 NA 
HETATM   20  C   UNL     1     -11.079   9.661  68.269  1.00  0.00    -0.046 C  
HETATM   21  O   UNL     1      -9.731   9.110  66.271  1.00  0.00    -0.231 OA 
HETATM   22  C   UNL     1      -9.032   8.111  67.023  1.00  0.00    -0.141 C  
HETATM   23  C   UNL     1      -9.884   7.567  68.176  1.00  0.00    -0.159 C  
BRANCH  19  24
HETATM   24  C   UNL     1     -11.092   8.069  70.247  1.00  0.00    -0.224 C  
BRANCH  24  25
HETATM   25  C   UNL     1     -10.393   6.897  70.912  1.00  0.00    -0.198 C  
HETATM   26  O   UNL     1      -7.435   6.879  73.749  1.00  0.00    -0.081 OA 
HETATM   27  O   UNL     1      -8.887   5.069  74.563  1.00  0.00    -0.111 OA 
HETATM   28  N   UNL     1     -10.962   5.726  71.062  1.00  0.00    -0.259 NA 
HETATM   29  O   UNL     1      -6.809   4.472  73.148  1.00  0.00    -0.058 OA 
HETATM   30  C   UNL     1     -10.076   4.992  71.818  1.00  0.00    -0.200 C  
HETATM   31  O   UNL     1     -10.324   3.933  72.380  1.00  0.00    -0.174 OA 
HETATM   32  P   UNL     1      -7.949   5.414  73.312  1.00  0.00    -0.111 P  
HETATM   33  N   UNL     1      -8.928   5.718  71.997  1.00  0.00    -0.138 N  
HETATM   34  N   UNL     1      -9.113   6.986  71.405  1.00  0.00    -0.147 NA 
ENDBRANCH  24  25
ENDBRANCH  19  24
BRANCH  20  35
HETATM   35  C   UNL     1     -11.676  10.841  69.033  1.00  0.00    -0.357 A  
HETATM   36  C   UNL     1     -12.248  13.214  69.110  1.00  0.00    -0.137 A  
HETATM   37  F   UNL     1     -12.822  14.192  71.179  1.00  0.00    -0.361 F  
HETATM   38  C   UNL     1     -11.844  12.086  68.389  1.00  0.00    -0.360 A  
HETATM   39  C   UNL     1     -12.337  11.886  71.130  1.00  0.00    -0.303 A  
HETATM   40  C   UNL     1     -11.948  10.754  70.407  1.00  0.00    -0.448 A  
HETATM   41  C   UNL     1     -12.476  13.104  70.480  1.00  0.00    -0.248 A  
ENDBRANCH  20  35
ENDBRANCH  17  18
ENDBRANCH   2  17
TORSDOF 6
ENDMDL
MODEL      123
REMARK 921   NORMALIZED FREE ENERGY PREDICTED BY IDOCK:   -6.98 KCAL/MOL
REMARK 922        TOTAL FREE ENERGY PREDICTED BY IDOCK:  -10.33 KCAL/MOL
REMARK 923 INTER-LIGAND FREE ENERGY PREDICTED BY IDOCK:   -8.74 KCAL/MOL
REMARK 924 INTRA-LIGAND FREE ENERGY PREDICTED BY IDOCK:   -1.58 KCAL/MOL
REMARK 927      BINDING AFFINITY PREDICTED BY RF-SCORE:    0.00 PKD
ROOT
HETATM    1  C   UNL     1     -12.297  11.208  71.009  1.00  0.00    -0.487 C  
HETATM    2  C   UNL     1     -11.662  10.507  69.815  1.00  0.00    -0.281 C  
ENDROOT
BRANCH   2   3
HETATM    3  C   UNL     1     -11.038   9.176  70.183  1.00  0.00    -0.248 A  
HETATM    4  F   UNL     1      -8.993   8.466  73.871  1.00  0.00    -0.298 F  
HETATM    5  F   UNL     1      -8.629   6.395  73.324  1.00  0.00    -0.121 F  
HETATM    6  C   UNL     1     -10.576   8.364  69.140  1.00  0.00    -0.177 A  
HETATM    7  C   UNL     1      -9.707   7.303  69.385  1.00  0.00    -0.161 A  
HETATM    8  F   UNL     1     -10.615   7.017  73.955  1.00  0.00    -0.363 F  
HETATM    9  C   UNL     1      -9.038   6.604  68.223  1.00  0.00    -0.123 C  
HETATM   10  C   UNL     1      -9.378   6.989  70.712  1.00  0.00    -0.161 A  
HETATM   11  C   UNL     1      -9.539   7.404  73.217  1.00  0.00    -0.232 C  
HETATM   12  C   UNL     1      -9.903   7.731  71.786  1.00  0.00    -0.210 A  
HETATM   13  F   UNL     1      -9.550   6.959  67.012  1.00  0.00    -0.146 F  
HETATM   14  F   UNL     1      -7.711   6.890  68.164  1.00  0.00    -0.102 F  
HETATM   15  C   UNL     1     -10.729   8.832  71.509  1.00  0.00    -0.371 A  
HETATM   16  F   UNL     1      -9.136   5.252  68.294  1.00  0.00    -0.108 F  
ENDBRANCH   2   3
BRANCH   2  17
HETATM   17  O   UNL     1     -10.694  11.360  69.182  1.00  0.00    -0.216 OA 
BRANCH  17  18
HETATM   18  C   UNL     1     -10.921  11.548  67.763  1.00  0.00    -0.236 C  
HETATM   19  N   UNL     1      -9.496  13.618  67.516  1.00  0.00    -0.214 NA 
HETATM   20  C   UNL     1      -9.694  12.233  67.015  1.00  0.00    -0.205 C  
HETATM   21  O   UNL     1     -12.114  12.311  67.514  1.00  0.00    -0.514 OA 
HETATM   22  C   UNL     1     -11.963  13.645  68.014  1.00  0.00    -0.350 C  
HETATM   23  C   UNL     1     -10.770  14.363  67.372  1.00  0.00    -0.280 C  
BRANCH  19  24
HETATM   24  C   UNL     1      -8.348  14.386  67.002  1.00  0.00    -0.145 C  
BRANCH  24  25
HETATM   25  C   UNL     1      -8.353  15.858  67.371  1.00  0.00    -0.171 C  
HETATM   26  O   UNL     1      -5.430  18.125  69.135  1.00  0.00    -0.190 OA 
HETATM   27  O   UNL     1      -6.257  19.672  67.414  1.00  0.00    -0.186 OA 
HETATM   28  N   UNL     1      -9.079  16.744  66.736  1.00  0.00    -0.229 NA 
HETATM   29  O   UNL     1      -7.150  19.888  69.828  1.00  0.00    -0.269 OA 
HETATM   30  C   UNL     1      -8.707  17.959  67.265  1.00  0.00    -0.239 C  
HETATM   31  O   UNL     1      -8.970  19.056  66.790  1.00  0.00    -0.291 OA 
HETATM   32  P   UNL     1      -6.764  18.943  68.746  1.00  0.00    -0.295 P  
HETATM   33  N   UNL     1      -7.842  17.749  68.307  1.00  0.00    -0.269 N  
HETATM   34  N   UNL     1      -7.591  16.363  68.398  1.00  0.00    -0.170 NA 
ENDBRANCH  24  25
ENDBRANCH  19  24
BRANCH  20  35
HETATM   35  C   UNL     1      -8.481  11.307  67.074  1.00  0.00    -0.150 A  
HETATM   36  C   UNL     1      -7.089   9.605  66.011  1.00  0.00    -0.097 A  
HETATM   37  F   UNL     1      -5.517   8.425  67.316  1.00  0.00    -0.034 F  
HETATM   38  C   UNL     1      -8.102  10.566  65.934  1.00  0.00    -0.154 A  
HETATM   39  C   UNL     1      -6.798  10.105  68.360  1.00  0.00    -0.061 A  
HETATM   40  C   UNL     1      -7.800  11.077  68.280  1.00  0.00    -0.121 A  
HETATM   41  C   UNL     1      -6.457   9.374  67.231  1.00  0.00    -0.070 A  
ENDBRANCH  20  35
ENDBRANCH  17  18
ENDBRANCH   2  17
TORSDOF 6
ENDMDL
MODEL      124
REMARK 921   NORMALIZED FREE ENERGY PREDICTED BY IDOCK:   -6.93 KCAL/MOL
REMARK 922        TOTAL FREE ENERGY PREDICTED BY IDOCK:  -10.26 KCAL/MOL
REMARK 923 INTER-LIGAND FREE ENERGY PREDICTED BY IDOCK:   -9.30 KCAL/MOL
REMARK 924 INTRA-LIGAND FREE ENERGY PREDICTED BY IDOCK:   -0.96 KCAL/MOL
REMARK 927      BINDING AFFINITY PREDICTED BY RF-SCORE:    0.00 PKD
ROOT
HETATM    1  C   UNL     1     -10.473  12.151  65.306  1.00  0.00    -0.311 C  
HETATM    2  C   UNL     1     -10.973  11.955  66.731  1.00  0.00    -0.292 C  
ENDROOT
BRANCH   2   3
HETATM    3  C   UNL     1     -10.910  13.226  67.552  1.00  0.00    -0.276 A  
HETATM    4  F   UNL     1     -13.780  14.246  70.554  1.00  0.00    -0.193 F  
HETATM    5  F   UNL     1     -12.711  16.078  71.021  1.00  0.00    -0.485 F  
HETATM    6  C   UNL     1     -10.316  14.350  66.964  1.00  0.00    -0.263 A  
HETATM    7  C   UNL     1     -10.506  15.624  67.494  1.00  0.00    -0.285 A  
HETATM    8  F   UNL     1     -11.928  14.164  71.693  1.00  0.00    -0.375 F  
HETATM    9  C   UNL     1     -10.059  16.835  66.705  1.00  0.00    -0.294 C  
HETATM   10  C   UNL     1     -11.220  15.760  68.694  1.00  0.00    -0.351 A  
HETATM   11  C   UNL     1     -12.532  14.781  70.641  1.00  0.00    -0.345 C  
HETATM   12  C   UNL     1     -11.749  14.636  69.356  1.00  0.00    -0.355 A  
HETATM   13  F   UNL     1      -9.292  16.520  65.624  1.00  0.00    -0.299 F  
HETATM   14  F   UNL     1     -11.117  17.534  66.219  1.00  0.00    -0.089 F  
HETATM   15  C   UNL     1     -11.594  13.370  68.769  1.00  0.00    -0.363 A  
HETATM   16  F   UNL     1      -9.330  17.708  67.446  1.00  0.00    -0.240 F  
ENDBRANCH   2   3
BRANCH   2  17
HETATM   17  O   UNL     1     -10.248  10.898  67.382  1.00  0.00    -0.188 OA 
BRANCH  17  18
HETATM   18  C   UNL     1      -8.926  10.673  66.833  1.00  0.00    -0.137 C  
HETATM   19  N   UNL     1      -7.984   9.462  68.839  1.00  0.00    -0.086 NA 
HETATM   20  C   UNL     1      -8.236   9.346  67.378  1.00  0.00    -0.121 C  
HETATM   21  O   UNL     1      -8.056  11.793  67.071  1.00  0.00    -0.158 OA 
HETATM   22  C   UNL     1      -7.819  11.947  68.476  1.00  0.00    -0.136 C  
HETATM   23  C   UNL     1      -7.191  10.690  69.088  1.00  0.00    -0.102 C  
BRANCH  19  24
HETATM   24  C   UNL     1      -7.427   8.293  69.542  1.00  0.00    -0.086 C  
BRANCH  24  25
HETATM   25  C   UNL     1      -8.084   7.981  70.874  1.00  0.00    -0.102 C  
HETATM   26  O   UNL     1      -8.999   4.358  72.556  1.00  0.00    -0.114 OA 
HETATM   27  O   UNL     1      -8.140   5.584  74.505  1.00  0.00    -0.104 OA 
HETATM   28  N   UNL     1      -8.005   8.782  71.907  1.00  0.00    -0.326 NA 
HETATM   29  O   UNL     1     -10.692   5.461  74.126  1.00  0.00    -0.274 OA 
HETATM   30  C   UNL     1      -8.599   8.093  72.941  1.00  0.00    -0.205 C  
HETATM   31  O   UNL     1      -8.525   8.383  74.128  1.00  0.00    -0.233 OA 
HETATM   32  P   UNL     1      -9.365   5.631  73.476  1.00  0.00    -0.139 P  
HETATM   33  N   UNL     1      -9.137   6.930  72.455  1.00  0.00    -0.132 N  
HETATM   34  N   UNL     1      -8.809   6.832  71.086  1.00  0.00    -0.137 NA 
ENDBRANCH  24  25
ENDBRANCH  19  24
BRANCH  20  35
HETATM   35  C   UNL     1      -9.036   8.130  66.918  1.00  0.00    -0.185 A  
HETATM   36  C   UNL     1     -10.991   6.689  67.174  1.00  0.00    -0.478 A  
HETATM   37  F   UNL     1     -11.030   4.599  66.080  1.00  0.00    -0.331 F  
HETATM   38  C   UNL     1     -10.309   7.873  67.471  1.00  0.00    -0.329 A  
HETATM   39  C   UNL     1      -9.156   5.992  65.760  1.00  0.00    -0.083 A  
HETATM   40  C   UNL     1      -8.481   7.182  66.044  1.00  0.00    -0.148 A  
HETATM   41  C   UNL     1     -10.398   5.752  66.331  1.00  0.00    -0.151 A  
ENDBRANCH  20  35
ENDBRANCH  17  18
ENDBRANCH   2  17
TORSDOF 6
ENDMDL
MODEL      125
REMARK 921   NORMALIZED FREE ENERGY PREDICTED BY IDOCK:   -6.91 KCAL/MOL
REMARK 922        TOTAL FREE ENERGY PREDICTED BY IDOCK:  -10.23 KCAL/MOL
REMARK 923 INTER-LIGAND FREE ENERGY PREDICTED BY IDOCK:   -8.73 KCAL/MOL
REMARK 924 INTRA-LIGAND FREE ENERGY PREDICTED BY IDOCK:   -1.50 KCAL/MOL
REMARK 927      BINDING AFFINITY PREDICTED BY RF-SCORE:    0.00 PKD
ROOT
HETATM    1  C   UNL     1      -6.449   7.048  69.534  1.00  0.00    -0.043 C  
HETATM    2  C   UNL     1      -7.759   7.248  70.284  1.00  0.00    -0.094 C  
ENDROOT
BRANCH   2   3
HETATM    3  C   UNL     1      -8.519   5.953  70.487  1.00  0.00    -0.128 A  
HETATM    4  F   UNL     1      -9.909   4.602  74.299  1.00  0.00    -0.135 F  
HETATM    5  F   UNL     1     -10.805   2.839  73.400  1.00  0.00    -0.216 F  
HETATM    6  C   UNL     1      -8.260   4.901  69.599  1.00  0.00    -0.080 A  
HETATM    7  C   UNL     1      -8.647   3.596  69.896  1.00  0.00    -0.105 A  
HETATM    8  F   UNL     1     -11.759   4.779  73.168  1.00  0.00    -0.373 F  
HETATM    9  C   UNL     1      -8.141   2.456  69.042  1.00  0.00    -0.051 C  
HETATM   10  C   UNL     1      -9.397   3.360  71.058  1.00  0.00    -0.212 A  
HETATM   11  C   UNL     1     -10.548   4.160  73.182  1.00  0.00    -0.184 C  
HETATM   12  C   UNL     1      -9.751   4.413  71.921  1.00  0.00    -0.233 A  
HETATM   13  F   UNL     1      -7.521   2.870  67.902  1.00  0.00    -0.055 F  
HETATM   14  F   UNL     1      -7.230   1.698  69.706  1.00  0.00    -0.035 F  
HETATM   15  C   UNL     1      -9.299   5.710  71.629  1.00  0.00    -0.164 A  
HETATM   16  F   UNL     1      -9.130   1.612  68.650  1.00  0.00    -0.110 F  
ENDBRANCH   2   3
BRANCH   2  17
HETATM   17  O   UNL     1      -8.584   8.217  69.615  1.00  0.00    -0.128 OA 
BRANCH  17  18
HETATM   18  C   UNL     1      -8.784   9.435  70.373  1.00  0.00    -0.240 C  
HETATM   19  N   UNL     1     -10.229  10.603  68.663  1.00  0.00    -0.173 NA 
HETATM   20  C   UNL     1     -10.180  10.139  70.075  1.00  0.00    -0.220 C  
HETATM   21  O   UNL     1      -7.721  10.377  70.153  1.00  0.00    -0.122 OA 
HETATM   22  C   UNL     1      -7.725  10.820  68.790  1.00  0.00    -0.121 C  
HETATM   23  C   UNL     1      -9.058  11.475  68.409  1.00  0.00    -0.185 C  
BRANCH  19  24
HETATM   24  C   UNL     1     -11.482  11.205  68.173  1.00  0.00    -0.303 C  
BRANCH  24  25
HETATM   25  C   UNL     1     -11.311  12.535  67.463  1.00  0.00    -0.312 C  
HETATM   26  O   UNL     1      -9.267  15.888  68.638  1.00  0.00    -0.191 OA 
HETATM   27  O   UNL     1      -8.670  15.777  66.256  1.00  0.00    -0.310 OA 
HETATM   28  N   UNL     1     -11.358  12.652  66.159  1.00  0.00    -0.312 NA 
HETATM   29  O   UNL     1     -10.597  17.331  66.997  1.00  0.00    -0.310 OA 
HETATM   30  C   UNL     1     -11.025  13.964  65.904  1.00  0.00    -0.284 C  
HETATM   31  O   UNL     1     -10.722  14.425  64.812  1.00  0.00    -0.408 OA 
HETATM   32  P   UNL     1      -9.955  16.002  67.185  1.00  0.00    -0.260 P  
HETATM   33  N   UNL     1     -10.908  14.636  67.093  1.00  0.00    -0.296 N  
HETATM   34  N   UNL     1     -11.093  13.711  68.142  1.00  0.00    -0.247 NA 
ENDBRANCH  24  25
ENDBRANCH  19  24
BRANCH  20  35
HETATM   35  C   UNL     1     -11.318   9.229  70.533  1.00  0.00    -0.306 A  
HETATM   36  C   UNL     1     -13.118   8.758  72.114  1.00  0.00    -0.451 A  
HETATM   37  F   UNL     1     -14.094   6.610  72.140  1.00  0.00    -0.376 F  
HETATM   38  C   UNL     1     -12.168   9.636  71.583  1.00  0.00    -0.484 A  
HETATM   39  C   UNL     1     -12.403   7.049  70.558  1.00  0.00    -0.153 A  
HETATM   40  C   UNL     1     -11.463   7.932  70.017  1.00  0.00     0.046 A  
HETATM   41  C   UNL     1     -13.214   7.465  71.604  1.00  0.00    -0.362 A  
ENDBRANCH  20  35
ENDBRANCH  17  18
ENDBRANCH   2  17
TORSDOF 6
ENDMDL
MODEL      126
REMARK 921   NORMALIZED FREE ENERGY PREDICTED BY IDOCK:   -6.91 KCAL/MOL
REMARK 922        TOTAL FREE ENERGY PREDICTED BY IDOCK:  -10.23 KCAL/MOL
REMARK 923 INTER-LIGAND FREE ENERGY PREDICTED BY IDOCK:   -8.93 KCAL/MOL
REMARK 924 INTRA-LIGAND FREE ENERGY PREDICTED BY IDOCK:   -1.31 KCAL/MOL
REMARK 927      BINDING AFFINITY PREDICTED BY RF-SCORE:    0.00 PKD
ROOT
HETATM    1  C   UNL     1     -12.567  13.726  70.195  1.00  0.00    -0.253 C  
HETATM    2  C   UNL     1     -11.550  13.012  69.315  1.00  0.00    -0.310 C  
ENDROOT
BRANCH   2   3
HETATM    3  C   UNL     1     -11.602  13.471  67.873  1.00  0.00    -0.377 A  
HETATM    4  F   UNL     1     -11.089  10.844  64.538  1.00  0.00    -0.347 F  
HETATM    5  F   UNL     1     -11.394  12.480  63.142  1.00  0.00    -0.496 F  
HETATM    6  C   UNL     1     -11.209  14.786  67.594  1.00  0.00    -0.332 A  
HETATM    7  C   UNL     1     -10.909  15.187  66.294  1.00  0.00    -0.333 A  
HETATM    8  F   UNL     1     -13.091  11.629  64.204  1.00  0.00    -0.365 F  
HETATM    9  C   UNL     1     -10.257  16.531  66.060  1.00  0.00    -0.356 C  
HETATM   10  C   UNL     1     -11.106  14.280  65.242  1.00  0.00    -0.335 A  
HETATM   11  C   UNL     1     -11.789  11.996  64.354  1.00  0.00    -0.313 C  
HETATM   12  C   UNL     1     -11.589  12.981  65.484  1.00  0.00    -0.382 A  
HETATM   13  F   UNL     1     -10.239  17.322  67.169  1.00  0.00    -0.284 F  
HETATM   14  F   UNL     1      -8.960  16.400  65.677  1.00  0.00    -0.306 F  
HETATM   15  C   UNL     1     -11.827  12.582  66.809  1.00  0.00    -0.416 A  
HETATM   16  F   UNL     1     -10.872  17.255  65.090  1.00  0.00    -0.390 F  
ENDBRANCH   2   3
BRANCH   2  17
HETATM   17  O   UNL     1     -11.719  11.587  69.398  1.00  0.00    -0.286 OA 
BRANCH  17  18
HETATM   18  C   UNL     1     -11.119  10.996  70.578  1.00  0.00     0.287 C  
HETATM   19  N   UNL     1     -11.260   8.598  69.800  1.00  0.00    -0.069 NA 
HETATM   20  C   UNL     1     -10.324   9.652  70.272  1.00  0.00    -0.280 C  
HETATM   21  O   UNL     1     -12.098  10.747  71.601  1.00  0.00    -0.211 OA 
HETATM   22  C   UNL     1     -13.033   9.754  71.161  1.00  0.00    -0.348 C  
HETATM   23  C   UNL     1     -12.338   8.435  70.805  1.00  0.00     0.064 C  
BRANCH  19  24
HETATM   24  C   UNL     1     -10.695   7.303  69.384  1.00  0.00    -0.225 C  
BRANCH  24  25
HETATM   25  C   UNL     1     -10.202   6.430  70.523  1.00  0.00    -0.189 C  
HETATM   26  O   UNL     1      -6.693   6.616  72.633  1.00  0.00    -0.063 OA 
HETATM   27  O   UNL     1      -8.306   6.163  74.431  1.00  0.00    -0.114 OA 
HETATM   28  N   UNL     1     -11.013   5.809  71.342  1.00  0.00    -0.260 NA 
HETATM   29  O   UNL     1      -6.978   4.195  73.412  1.00  0.00    -0.058 OA 
HETATM   30  C   UNL     1     -10.198   5.250  72.300  1.00  0.00    -0.199 C  
HETATM   31  O   UNL     1     -10.567   4.788  73.372  1.00  0.00    -0.185 OA 
HETATM   32  P   UNL     1      -7.706   5.461  73.124  1.00  0.00    -0.101 P  
HETATM   33  N   UNL     1      -8.889   5.451  71.949  1.00  0.00    -0.135 N  
HETATM   34  N   UNL     1      -8.864   6.232  70.774  1.00  0.00    -0.143 NA 
ENDBRANCH  24  25
ENDBRANCH  19  24
BRANCH  20  35
HETATM   35  C   UNL     1      -9.132   9.959  69.369  1.00  0.00    -0.216 A  
HETATM   36  C   UNL     1      -6.714  10.016  69.036  1.00  0.00    -0.053 A  
HETATM   37  F   UNL     1      -5.833  11.203  67.196  1.00  0.00    -0.047 F  
HETATM   38  C   UNL     1      -7.827   9.612  69.779  1.00  0.00    -0.144 A  
HETATM   39  C   UNL     1      -8.175  11.115  67.452  1.00  0.00    -0.132 A  
HETATM   40  C   UNL     1      -9.289  10.698  68.185  1.00  0.00    -0.152 A  
HETATM   41  C   UNL     1      -6.900  10.779  67.885  1.00  0.00    -0.072 A  
ENDBRANCH  20  35
ENDBRANCH  17  18
ENDBRANCH   2  17
TORSDOF 6
ENDMDL
MODEL      127
REMARK 921   NORMALIZED FREE ENERGY PREDICTED BY IDOCK:   -6.91 KCAL/MOL
REMARK 922        TOTAL FREE ENERGY PREDICTED BY IDOCK:  -10.23 KCAL/MOL
REMARK 923 INTER-LIGAND FREE ENERGY PREDICTED BY IDOCK:   -9.06 KCAL/MOL
REMARK 924 INTRA-LIGAND FREE ENERGY PREDICTED BY IDOCK:   -1.17 KCAL/MOL
REMARK 927      BINDING AFFINITY PREDICTED BY RF-SCORE:    0.00 PKD
ROOT
HETATM    1  C   UNL     1     -12.944  13.040  71.244  1.00  0.00    -0.330 C  
HETATM    2  C   UNL     1     -11.786  12.681  70.321  1.00  0.00    -0.214 C  
ENDROOT
BRANCH   2   3
HETATM    3  C   UNL     1     -11.818  13.454  69.019  1.00  0.00    -0.378 A  
HETATM    4  F   UNL     1     -11.102  11.673  65.198  1.00  0.00    -0.339 F  
HETATM    5  F   UNL     1     -11.438  13.571  64.197  1.00  0.00    -0.372 F  
HETATM    6  C   UNL     1     -11.473  14.811  69.059  1.00  0.00    -0.316 A  
HETATM    7  C   UNL     1     -11.155  15.507  67.895  1.00  0.00    -0.321 A  
HETATM    8  F   UNL     1     -13.125  12.443  64.977  1.00  0.00    -0.488 F  
HETATM    9  C   UNL     1     -10.554  16.891  67.995  1.00  0.00    -0.367 C  
HETATM   10  C   UNL     1     -11.284  14.857  66.659  1.00  0.00    -0.340 A  
HETATM   11  C   UNL     1     -11.845  12.811  65.253  1.00  0.00    -0.403 C  
HETATM   12  C   UNL     1     -11.718  13.520  66.583  1.00  0.00    -0.425 A  
HETATM   13  F   UNL     1     -10.600  17.409  69.254  1.00  0.00    -0.335 F  
HETATM   14  F   UNL     1      -9.242  16.895  67.640  1.00  0.00    -0.220 F  
HETATM   15  C   UNL     1     -11.976  12.823  67.774  1.00  0.00    -0.316 A  
HETATM   16  F   UNL     1     -11.172  17.794  67.191  1.00  0.00    -0.149 F  
ENDBRANCH   2   3
BRANCH   2  17
HETATM   17  O   UNL     1     -11.758  11.266  70.069  1.00  0.00    -0.296 OA 
BRANCH  17  18
HETATM   18  C   UNL     1     -11.543  10.466  71.257  1.00  0.00    -0.146 C  
HETATM   19  N   UNL     1     -11.556   8.223  70.098  1.00  0.00     0.000 NA 
HETATM   20  C   UNL     1     -10.750   9.116  70.971  1.00  0.00    -0.293 C  
HETATM   21  O   UNL     1     -12.782  10.157  71.919  1.00  0.00    -0.409 OA 
HETATM   22  C   UNL     1     -13.594   9.320  71.087  1.00  0.00    -0.138 C  
HETATM   23  C   UNL     1     -12.881   8.011  70.729  1.00  0.00     0.277 C  
BRANCH  19  24
HETATM   24  C   UNL     1     -10.949   6.957  69.651  1.00  0.00    -0.259 C  
BRANCH  24  25
HETATM   25  C   UNL     1     -10.289   7.017  68.286  1.00  0.00    -0.194 C  
HETATM   26  O   UNL     1      -9.015  10.264  66.134  1.00  0.00    -0.149 OA 
HETATM   27  O   UNL     1      -7.171   8.686  65.750  1.00  0.00    -0.078 OA 
HETATM   28  N   UNL     1      -9.568   6.035  67.804  1.00  0.00    -0.112 NA 
HETATM   29  O   UNL     1      -9.033   8.897  63.972  1.00  0.00    -0.041 OA 
HETATM   30  C   UNL     1      -9.039   6.520  66.629  1.00  0.00    -0.147 C  
HETATM   31  O   UNL     1      -8.126   6.012  65.993  1.00  0.00    -0.105 OA 
HETATM   32  P   UNL     1      -8.731   8.843  65.428  1.00  0.00    -0.165 P  
HETATM   33  N   UNL     1      -9.570   7.758  66.376  1.00  0.00    -0.192 N  
HETATM   34  N   UNL     1     -10.401   8.111  67.460  1.00  0.00    -0.243 NA 
ENDBRANCH  24  25
ENDBRANCH  19  24
BRANCH  20  35
HETATM   35  C   UNL     1      -9.338   9.447  70.491  1.00  0.00    -0.319 A  
HETATM   36  C   UNL     1      -6.923   9.253  70.790  1.00  0.00    -0.110 A  
HETATM   37  F   UNL     1      -5.494  10.675  69.563  1.00  0.00    -0.038 F  
HETATM   38  C   UNL     1      -8.222   8.852  71.116  1.00  0.00    -0.218 A  
HETATM   39  C   UNL     1      -7.817  10.844  69.202  1.00  0.00    -0.119 A  
HETATM   40  C   UNL     1      -9.115  10.433  69.516  1.00  0.00    -0.129 A  
HETATM   41  C   UNL     1      -6.735  10.259  69.845  1.00  0.00    -0.125 A  
ENDBRANCH  20  35
ENDBRANCH  17  18
ENDBRANCH   2  17
TORSDOF 6
ENDMDL
MODEL      128
REMARK 921   NORMALIZED FREE ENERGY PREDICTED BY IDOCK:   -6.85 KCAL/MOL
REMARK 922        TOTAL FREE ENERGY PREDICTED BY IDOCK:  -10.15 KCAL/MOL
REMARK 923 INTER-LIGAND FREE ENERGY PREDICTED BY IDOCK:   -9.84 KCAL/MOL
REMARK 924 INTRA-LIGAND FREE ENERGY PREDICTED BY IDOCK:   -0.31 KCAL/MOL
REMARK 927      BINDING AFFINITY PREDICTED BY RF-SCORE:    0.00 PKD
ROOT
HETATM    1  C   UNL     1     -11.717  14.457  67.427  1.00  0.00    -0.424 C  
HETATM    2  C   UNL     1     -10.797  14.697  68.617  1.00  0.00    -0.255 C  
ENDROOT
BRANCH   2   3
HETATM    3  C   UNL     1      -9.821  15.832  68.381  1.00  0.00    -0.206 A  
HETATM    4  F   UNL     1      -6.138  16.262  70.511  1.00  0.00    -0.138 F  
HETATM    5  F   UNL     1      -5.637  18.046  69.377  1.00  0.00    -0.178 F  
HETATM    6  C   UNL     1     -10.342  17.056  67.942  1.00  0.00    -0.338 A  
HETATM    7  C   UNL     1      -9.589  18.226  68.017  1.00  0.00    -0.314 A  
HETATM    8  F   UNL     1      -5.463  16.087  68.450  1.00  0.00    -0.092 F  
HETATM    9  C   UNL     1     -10.257  19.559  67.768  1.00  0.00    -0.429 C  
HETATM   10  C   UNL     1      -8.255  18.148  68.445  1.00  0.00    -0.314 A  
HETATM   11  C   UNL     1      -6.245  16.830  69.279  1.00  0.00    -0.201 C  
HETATM   12  C   UNL     1      -7.678  16.915  68.803  1.00  0.00    -0.247 A  
HETATM   13  F   UNL     1     -11.516  19.445  67.261  1.00  0.00    -0.456 F  
HETATM   14  F   UNL     1     -10.382  20.279  68.914  1.00  0.00    -0.528 F  
HETATM   15  C   UNL     1      -8.476  15.760  68.775  1.00  0.00    -0.198 A  
HETATM   16  F   UNL     1      -9.568  20.340  66.897  1.00  0.00    -0.460 F  
ENDBRANCH   2   3
BRANCH   2  17
HETATM   17  O   UNL     1     -10.095  13.492  68.966  1.00  0.00    -0.076 OA 
BRANCH  17  18
HETATM   18  C   UNL     1     -10.329  12.395  68.050  1.00  0.00    -0.216 C  
HETATM   19  N   UNL     1      -8.607  10.830  69.031  1.00  0.00    -0.160 NA 
HETATM   20  C   UNL     1     -10.049  10.966  68.695  1.00  0.00    -0.191 C  
HETATM   21  O   UNL     1      -9.552  12.533  66.848  1.00  0.00    -0.216 OA 
HETATM   22  C   UNL     1      -8.154  12.436  67.147  1.00  0.00    -0.167 C  
HETATM   23  C   UNL     1      -7.807  11.099  67.812  1.00  0.00    -0.114 C  
BRANCH  19  24
HETATM   24  C   UNL     1      -8.167   9.604  69.719  1.00  0.00    -0.161 C  
BRANCH  24  25
HETATM   25  C   UNL     1      -7.898   8.424  68.803  1.00  0.00    -0.115 C  
HETATM   26  O   UNL     1     -10.491   6.280  66.463  1.00  0.00    -0.182 OA 
HETATM   27  O   UNL     1      -8.558   6.492  64.960  1.00  0.00    -0.067 OA 
HETATM   28  N   UNL     1      -6.738   8.225  68.228  1.00  0.00    -0.063 NA 
HETATM   29  O   UNL     1      -8.841   4.328  66.342  1.00  0.00    -0.112 OA 
HETATM   30  C   UNL     1      -6.934   7.154  67.385  1.00  0.00    -0.079 C  
HETATM   31  O   UNL     1      -6.175   6.798  66.494  1.00  0.00    -0.041 OA 
HETATM   32  P   UNL     1      -8.952   5.812  66.354  1.00  0.00    -0.142 P  
HETATM   33  N   UNL     1      -8.197   6.657  67.577  1.00  0.00    -0.121 N  
HETATM   34  N   UNL     1      -8.857   7.482  68.513  1.00  0.00    -0.127 NA 
ENDBRANCH  24  25
ENDBRANCH  19  24
BRANCH  20  35
HETATM   35  C   UNL     1     -11.040  10.716  69.829  1.00  0.00    -0.358 A  
HETATM   36  C   UNL     1     -12.215   9.138  71.276  1.00  0.00    -0.395 A  
HETATM   37  F   UNL     1     -14.051   9.894  72.550  1.00  0.00    -0.346 F  
HETATM   38  C   UNL     1     -11.209   9.413  70.344  1.00  0.00    -0.309 A  
HETATM   39  C   UNL     1     -12.901  11.457  71.213  1.00  0.00    -0.481 A  
HETATM   40  C   UNL     1     -11.886  11.736  70.293  1.00  0.00    -0.382 A  
HETATM   41  C   UNL     1     -13.061  10.164  71.690  1.00  0.00    -0.447 A  
ENDBRANCH  20  35
ENDBRANCH  17  18
ENDBRANCH   2  17
TORSDOF 6
ENDMDL
MODEL      129
REMARK 921   NORMALIZED FREE ENERGY PREDICTED BY IDOCK:   -6.84 KCAL/MOL
REMARK 922        TOTAL FREE ENERGY PREDICTED BY IDOCK:  -10.15 KCAL/MOL
REMARK 923 INTER-LIGAND FREE ENERGY PREDICTED BY IDOCK:   -8.83 KCAL/MOL
REMARK 924 INTRA-LIGAND FREE ENERGY PREDICTED BY IDOCK:   -1.31 KCAL/MOL
REMARK 927      BINDING AFFINITY PREDICTED BY RF-SCORE:    0.00 PKD
ROOT
HETATM    1  C   UNL     1     -11.398  11.960  66.735  1.00  0.00    -0.393 C  
HETATM    2  C   UNL     1     -11.937  12.024  68.158  1.00  0.00    -0.163 C  
ENDROOT
BRANCH   2   3
HETATM    3  C   UNL     1     -11.278  13.109  68.984  1.00  0.00    -0.309 A  
HETATM    4  F   UNL     1     -13.455  15.931  71.347  1.00  0.00    -0.532 F  
HETATM    5  F   UNL     1     -11.610  16.848  72.036  1.00  0.00    -0.465 F  
HETATM    6  C   UNL     1     -10.048  13.608  68.537  1.00  0.00    -0.219 A  
HETATM    7  C   UNL     1      -9.537  14.808  69.028  1.00  0.00    -0.178 A  
HETATM    8  F   UNL     1     -12.230  14.925  72.839  1.00  0.00    -0.396 F  
HETATM    9  C   UNL     1      -8.339  15.439  68.355  1.00  0.00    -0.147 C  
HETATM   10  C   UNL     1     -10.225  15.467  70.058  1.00  0.00    -0.265 A  
HETATM   11  C   UNL     1     -12.168  15.653  71.691  1.00  0.00    -0.426 C  
HETATM   12  C   UNL     1     -11.416  14.939  70.590  1.00  0.00    -0.313 A  
HETATM   13  F   UNL     1      -7.735  14.619  67.451  1.00  0.00    -0.160 F  
HETATM   14  F   UNL     1      -8.682  16.560  67.669  1.00  0.00    -0.184 F  
HETATM   15  C   UNL     1     -11.940  13.759  70.038  1.00  0.00    -0.407 A  
HETATM   16  F   UNL     1      -7.374  15.808  69.236  1.00  0.00    -0.160 F  
ENDBRANCH   2   3
BRANCH   2  17
HETATM   17  O   UNL     1     -11.808  10.747  68.807  1.00  0.00    -0.359 OA 
BRANCH  17  18
HETATM   18  C   UNL     1     -11.101  10.804  70.070  1.00  0.00    -0.255 C  
HETATM   19  N   UNL     1     -10.374   8.386  70.100  1.00  0.00    -0.206 NA 
HETATM   20  C   UNL     1      -9.879   9.787  70.153  1.00  0.00    -0.255 C  
HETATM   21  O   UNL     1     -11.984  10.576  71.182  1.00  0.00    -0.352 OA 
HETATM   22  C   UNL     1     -12.500   9.240  71.141  1.00  0.00    -0.272 C  
HETATM   23  C   UNL     1     -11.378   8.196  71.174  1.00  0.00    -0.269 C  
BRANCH  19  24
HETATM   24  C   UNL     1      -9.379   7.299  70.077  1.00  0.00    -0.154 C  
BRANCH  24  25
HETATM   25  C   UNL     1      -9.419   6.377  71.281  1.00  0.00    -0.166 C  
HETATM   26  O   UNL     1     -10.110   2.341  71.467  1.00  0.00    -0.126 OA 
HETATM   27  O   UNL     1      -8.273   2.584  73.082  1.00  0.00    -0.066 OA 
HETATM   28  N   UNL     1      -8.750   6.618  72.381  1.00  0.00    -0.129 NA 
HETATM   29  O   UNL     1     -10.705   2.509  73.949  1.00  0.00    -0.147 OA 
HETATM   30  C   UNL     1      -8.932   5.502  73.165  1.00  0.00    -0.121 C  
HETATM   31  O   UNL     1      -8.289   5.219  74.167  1.00  0.00    -0.109 OA 
HETATM   32  P   UNL     1      -9.798   3.030  72.891  1.00  0.00    -0.140 P  
HETATM   33  N   UNL     1      -9.824   4.662  72.551  1.00  0.00    -0.153 N  
HETATM   34  N   UNL     1     -10.162   5.220  71.299  1.00  0.00    -0.215 NA 
ENDBRANCH  24  25
ENDBRANCH  19  24
BRANCH  20  35
HETATM   35  C   UNL     1      -8.822  10.176  69.122  1.00  0.00    -0.179 A  
HETATM   36  C   UNL     1      -7.843   9.870  66.905  1.00  0.00    -0.102 A  
HETATM   37  F   UNL     1      -5.725  10.802  66.445  1.00  0.00    -0.053 F  
HETATM   38  C   UNL     1      -8.880   9.644  67.816  1.00  0.00    -0.125 A  
HETATM   39  C   UNL     1      -6.669  11.171  68.573  1.00  0.00    -0.062 A  
HETATM   40  C   UNL     1      -7.713  10.958  69.478  1.00  0.00    -0.022 A  
HETATM   41  C   UNL     1      -6.739  10.621  67.301  1.00  0.00    -0.078 A  
ENDBRANCH  20  35
ENDBRANCH  17  18
ENDBRANCH   2  17
TORSDOF 6
ENDMDL
MODEL      130
REMARK 921   NORMALIZED FREE ENERGY PREDICTED BY IDOCK:   -6.83 KCAL/MOL
REMARK 922        TOTAL FREE ENERGY PREDICTED BY IDOCK:  -10.13 KCAL/MOL
REMARK 923 INTER-LIGAND FREE ENERGY PREDICTED BY IDOCK:   -9.21 KCAL/MOL
REMARK 924 INTRA-LIGAND FREE ENERGY PREDICTED BY IDOCK:   -0.92 KCAL/MOL
REMARK 927      BINDING AFFINITY PREDICTED BY RF-SCORE:    0.00 PKD
ROOT
HETATM    1  C   UNL     1     -10.894   7.456  67.626  1.00  0.00    -0.220 C  
HETATM    2  C   UNL     1      -9.846   8.250  68.397  1.00  0.00    -0.172 C  
ENDROOT
BRANCH   2   3
HETATM    3  C   UNL     1      -9.401   7.551  69.665  1.00  0.00    -0.153 A  
HETATM    4  F   UNL     1     -12.115   5.944  72.553  1.00  0.00    -0.340 F  
HETATM    5  F   UNL     1     -10.467   5.223  73.770  1.00  0.00    -0.193 F  
HETATM    6  C   UNL     1      -8.178   7.938  70.225  1.00  0.00    -0.124 A  
HETATM    7  C   UNL     1      -7.849   7.603  71.537  1.00  0.00    -0.086 A  
HETATM    8  F   UNL     1     -10.998   4.181  71.937  1.00  0.00    -0.007 F  
HETATM    9  C   UNL     1      -6.641   8.238  72.188  1.00  0.00    -0.075 C  
HETATM   10  C   UNL     1      -8.720   6.778  72.265  1.00  0.00    -0.130 A  
HETATM   11  C   UNL     1     -10.861   5.421  72.480  1.00  0.00    -0.250 C  
HETATM   12  C   UNL     1      -9.913   6.298  71.694  1.00  0.00    -0.202 A  
HETATM   13  F   UNL     1      -5.853   8.921  71.312  1.00  0.00    -0.034 F  
HETATM   14  F   UNL     1      -7.000   9.135  73.143  1.00  0.00     0.084 F  
HETATM   15  C   UNL     1     -10.249   6.699  70.391  1.00  0.00    -0.215 A  
HETATM   16  F   UNL     1      -5.833   7.332  72.797  1.00  0.00    -0.041 F  
ENDBRANCH   2   3
BRANCH   2  17
HETATM   17  O   UNL     1     -10.327   9.572  68.691  1.00  0.00    -0.192 OA 
BRANCH  17  18
HETATM   18  C   UNL     1     -11.096  10.166  67.616  1.00  0.00    -0.206 C  
HETATM   19  N   UNL     1      -9.819  12.342  67.517  1.00  0.00    -0.190 NA 
HETATM   20  C   UNL     1     -10.248  11.166  66.714  1.00  0.00    -0.232 C  
HETATM   21  O   UNL     1     -12.262  10.846  68.112  1.00  0.00    -0.503 OA 
HETATM   22  C   UNL     1     -11.877  11.968  68.915  1.00  0.00    -0.299 C  
HETATM   23  C   UNL     1     -11.018  12.964  68.128  1.00  0.00    -0.248 C  
BRANCH  19  24
HETATM   24  C   UNL     1      -8.947  13.340  66.874  1.00  0.00    -0.207 C  
BRANCH  24  25
HETATM   25  C   UNL     1      -9.603  14.685  66.619  1.00  0.00    -0.278 C  
HETATM   26  O   UNL     1      -8.743  18.362  68.214  1.00  0.00    -0.287 OA 
HETATM   27  O   UNL     1      -9.143  18.946  65.860  1.00  0.00    -0.454 OA 
HETATM   28  N   UNL     1     -10.202  14.978  65.492  1.00  0.00    -0.351 NA 
HETATM   29  O   UNL     1     -11.060  19.235  67.568  1.00  0.00    -0.423 OA 
HETATM   30  C   UNL     1     -10.535  16.310  65.599  1.00  0.00    -0.368 C  
HETATM   31  O   UNL     1     -10.894  17.033  64.678  1.00  0.00    -0.855 OA 
HETATM   32  P   UNL     1      -9.934  18.368  67.127  1.00  0.00    -0.379 P  
HETATM   33  N   UNL     1     -10.231  16.749  66.860  1.00  0.00    -0.285 N  
HETATM   34  N   UNL     1      -9.611  15.691  67.557  1.00  0.00    -0.223 NA 
ENDBRANCH  24  25
ENDBRANCH  19  24
BRANCH  20  35
HETATM   35  C   UNL     1      -9.146  10.393  65.994  1.00  0.00    -0.187 A  
HETATM   36  C   UNL     1      -6.796   9.747  65.840  1.00  0.00    -0.096 A  
HETATM   37  F   UNL     1      -6.007   8.739  63.858  1.00  0.00    -0.068 F  
HETATM   38  C   UNL     1      -7.852  10.322  66.554  1.00  0.00    -0.116 A  
HETATM   39  C   UNL     1      -8.294   9.292  63.996  1.00  0.00    -0.179 A  
HETATM   40  C   UNL     1      -9.354   9.852  64.715  1.00  0.00    -0.339 A  
HETATM   41  C   UNL     1      -7.027   9.251  64.559  1.00  0.00    -0.093 A  
ENDBRANCH  20  35
ENDBRANCH  17  18
ENDBRANCH   2  17
TORSDOF 6
ENDMDL
MODEL      131
REMARK 921   NORMALIZED FREE ENERGY PREDICTED BY IDOCK:   -6.83 KCAL/MOL
REMARK 922        TOTAL FREE ENERGY PREDICTED BY IDOCK:  -10.12 KCAL/MOL
REMARK 923 INTER-LIGAND FREE ENERGY PREDICTED BY IDOCK:   -8.81 KCAL/MOL
REMARK 924 INTRA-LIGAND FREE ENERGY PREDICTED BY IDOCK:   -1.32 KCAL/MOL
REMARK 927      BINDING AFFINITY PREDICTED BY RF-SCORE:    0.00 PKD
ROOT
HETATM    1  C   UNL     1      -6.203  12.966  69.421  1.00  0.00    -0.114 C  
HETATM    2  C   UNL     1      -7.106  12.853  68.200  1.00  0.00    -0.108 C  
ENDROOT
BRANCH   2   3
HETATM    3  C   UNL     1      -7.939  14.098  67.973  1.00  0.00    -0.149 A  
HETATM    4  F   UNL     1      -6.265  18.000  67.468  1.00  0.00    -0.160 F  
HETATM    5  F   UNL     1      -8.239  18.863  67.194  1.00  0.00    -0.256 F  
HETATM    6  C   UNL     1      -9.228  14.126  68.520  1.00  0.00    -0.187 A  
HETATM    7  C   UNL     1      -9.928  15.324  68.651  1.00  0.00    -0.216 A  
HETATM    8  F   UNL     1      -7.329  17.707  65.593  1.00  0.00    -0.313 F  
HETATM    9  C   UNL     1     -11.204  15.357  69.461  1.00  0.00    -0.285 C  
HETATM   10  C   UNL     1      -9.365  16.499  68.130  1.00  0.00    -0.218 A  
HETATM   11  C   UNL     1      -7.494  17.749  66.943  1.00  0.00    -0.201 C  
HETATM   12  C   UNL     1      -8.111  16.482  67.492  1.00  0.00    -0.171 A  
HETATM   13  F   UNL     1     -11.660  14.119  69.799  1.00  0.00    -0.282 F  
HETATM   14  F   UNL     1     -11.036  16.023  70.634  1.00  0.00    -0.302 F  
HETATM   15  C   UNL     1      -7.400  15.273  67.426  1.00  0.00    -0.241 A  
HETATM   16  F   UNL     1     -12.225  15.973  68.813  1.00  0.00    -0.358 F  
ENDBRANCH   2   3
BRANCH   2  17
HETATM   17  O   UNL     1      -7.950  11.693  68.299  1.00  0.00    -0.128 OA 
BRANCH  17  18
HETATM   18  C   UNL     1      -7.584  10.627  67.388  1.00  0.00    -0.095 C  
HETATM   19  N   UNL     1      -9.319   8.969  68.176  1.00  0.00    -0.141 NA 
HETATM   20  C   UNL     1      -8.812   9.698  66.983  1.00  0.00    -0.131 C  
HETATM   21  O   UNL     1      -6.528   9.811  67.923  1.00  0.00    -0.059 OA 
HETATM   22  C   UNL     1      -6.980   9.119  69.093  1.00  0.00    -0.058 C  
HETATM   23  C   UNL     1      -8.193   8.230  68.795  1.00  0.00    -0.117 C  
BRANCH  19  24
HETATM   24  C   UNL     1     -10.513   8.122  68.016  1.00  0.00    -0.183 C  
BRANCH  24  25
HETATM   25  C   UNL     1     -10.642   7.008  69.038  1.00  0.00    -0.217 C  
HETATM   26  O   UNL     1      -7.824   4.357  70.392  1.00  0.00    -0.052 OA 
HETATM   27  O   UNL     1      -8.981   4.932  72.484  1.00  0.00    -0.130 OA 
HETATM   28  N   UNL     1     -11.520   7.037  70.010  1.00  0.00    -0.248 NA 
HETATM   29  O   UNL     1      -9.650   2.773  71.232  1.00  0.00    -0.144 OA 
HETATM   30  C   UNL     1     -11.232   5.937  70.787  1.00  0.00    -0.211 C  
HETATM   31  O   UNL     1     -11.658   5.728  71.915  1.00  0.00    -0.232 OA 
HETATM   32  P   UNL     1      -9.271   4.205  71.087  1.00  0.00    -0.155 P  
HETATM   33  N   UNL     1     -10.251   5.200  70.177  1.00  0.00    -0.270 N  
HETATM   34  N   UNL     1      -9.843   5.889  69.015  1.00  0.00    -0.145 NA 
ENDBRANCH  24  25
ENDBRANCH  19  24
BRANCH  20  35
HETATM   35  C   UNL     1      -9.834  10.517  66.199  1.00  0.00    -0.271 A  
HETATM   36  C   UNL     1     -10.552  11.504  64.084  1.00  0.00    -0.420 A  
HETATM   37  F   UNL     1     -12.276  13.116  64.093  1.00  0.00    -0.410 F  
HETATM   38  C   UNL     1      -9.716  10.640  64.798  1.00  0.00    -0.350 A  
HETATM   39  C   UNL     1     -11.652  12.137  66.144  1.00  0.00    -0.418 A  
HETATM   40  C   UNL     1     -10.826  11.262  66.857  1.00  0.00    -0.333 A  
HETATM   41  C   UNL     1     -11.503  12.256  64.770  1.00  0.00    -0.329 A  
ENDBRANCH  20  35
ENDBRANCH  17  18
ENDBRANCH   2  17
TORSDOF 6
ENDMDL
MODEL      132
REMARK 921   NORMALIZED FREE ENERGY PREDICTED BY IDOCK:   -6.82 KCAL/MOL
REMARK 922        TOTAL FREE ENERGY PREDICTED BY IDOCK:  -10.12 KCAL/MOL
REMARK 923 INTER-LIGAND FREE ENERGY PREDICTED BY IDOCK:   -9.66 KCAL/MOL
REMARK 924 INTRA-LIGAND FREE ENERGY PREDICTED BY IDOCK:   -0.47 KCAL/MOL
REMARK 927      BINDING AFFINITY PREDICTED BY RF-SCORE:    0.00 PKD
ROOT
HETATM    1  C   UNL     1      -9.848   7.857  66.890  1.00  0.00    -0.309 C  
HETATM    2  C   UNL     1      -9.272   8.677  68.037  1.00  0.00    -0.140 C  
ENDROOT
BRANCH   2   3
HETATM    3  C   UNL     1      -9.640   8.119  69.396  1.00  0.00    -0.167 A  
HETATM    4  F   UNL     1      -8.823   4.098  70.600  1.00  0.00    -0.093 F  
HETATM    5  F   UNL     1      -9.679   4.463  72.564  1.00  0.00    -0.159 F  
HETATM    6  C   UNL     1     -10.758   8.664  70.041  1.00  0.00    -0.233 A  
HETATM    7  C   UNL     1     -11.361   8.008  71.112  1.00  0.00    -0.292 A  
HETATM    8  F   UNL     1      -7.715   5.256  72.072  1.00  0.00    -0.090 F  
HETATM    9  C   UNL     1     -12.699   8.490  71.624  1.00  0.00    -0.332 C  
HETATM   10  C   UNL     1     -10.769   6.837  71.610  1.00  0.00    -0.252 A  
HETATM   11  C   UNL     1      -8.960   5.049  71.565  1.00  0.00    -0.136 C  
HETATM   12  C   UNL     1      -9.592   6.319  71.040  1.00  0.00    -0.191 A  
HETATM   13  F   UNL     1     -13.072   9.693  71.106  1.00  0.00    -0.369 F  
HETATM   14  F   UNL     1     -13.698   7.624  71.311  1.00  0.00    -0.379 F  
HETATM   15  C   UNL     1      -9.038   6.966  69.924  1.00  0.00    -0.144 A  
HETATM   16  F   UNL     1     -12.726   8.635  72.974  1.00  0.00    -0.392 F  
ENDBRANCH   2   3
BRANCH   2  17
HETATM   17  O   UNL     1      -9.675  10.053  67.929  1.00  0.00    -0.144 OA 
BRANCH  17  18
HETATM   18  C   UNL     1     -10.842  10.254  67.094  1.00  0.00    -0.212 C  
HETATM   19  N   UNL     1     -10.442  12.704  66.628  1.00  0.00    -0.243 NA 
HETATM   20  C   UNL     1     -10.635  11.377  65.985  1.00  0.00    -0.266 C  
HETATM   21  O   UNL     1     -12.006  10.570  67.877  1.00  0.00    -0.297 OA 
HETATM   22  C   UNL     1     -11.835  11.831  68.534  1.00  0.00    -0.303 C  
HETATM   23  C   UNL     1     -11.587  12.965  67.532  1.00  0.00    -0.356 C  
BRANCH  19  24
HETATM   24  C   UNL     1     -10.147  13.859  65.763  1.00  0.00    -0.320 C  
BRANCH  24  25
HETATM   25  C   UNL     1      -9.155  14.850  66.343  1.00  0.00    -0.258 C  
HETATM   26  O   UNL     1      -9.019  18.931  65.989  1.00  0.00    -0.470 OA 
HETATM   27  O   UNL     1      -8.457  18.640  68.364  1.00  0.00    -0.319 OA 
HETATM   28  N   UNL     1      -8.489  14.621  67.447  1.00  0.00    -0.190 NA 
HETATM   29  O   UNL     1      -6.548  18.953  66.652  1.00  0.00    -0.187 OA 
HETATM   30  C   UNL     1      -7.814  15.792  67.709  1.00  0.00    -0.141 C  
HETATM   31  O   UNL     1      -7.267  16.081  68.765  1.00  0.00    -0.138 OA 
HETATM   32  P   UNL     1      -7.860  18.303  66.918  1.00  0.00    -0.246 P  
HETATM   33  N   UNL     1      -8.001  16.661  66.666  1.00  0.00    -0.248 N  
HETATM   34  N   UNL     1      -8.888  16.060  65.747  1.00  0.00    -0.291 NA 
ENDBRANCH  24  25
ENDBRANCH  19  24
BRANCH  20  35
HETATM   35  C   UNL     1      -9.553  10.931  65.004  1.00  0.00    -0.299 A  
HETATM   36  C   UNL     1      -7.261  10.188  64.607  1.00  0.00    -0.124 A  
HETATM   37  F   UNL     1      -6.421  10.178  62.402  1.00  0.00    -0.102 F  
HETATM   38  C   UNL     1      -8.313  10.460  65.487  1.00  0.00    -0.168 A  
HETATM   39  C   UNL     1      -8.657  10.840  62.742  1.00  0.00    -0.236 A  
HETATM   40  C   UNL     1      -9.715  11.097  63.620  1.00  0.00    -0.352 A  
HETATM   41  C   UNL     1      -7.441  10.397  63.242  1.00  0.00    -0.062 A  
ENDBRANCH  20  35
ENDBRANCH  17  18
ENDBRANCH   2  17
TORSDOF 6
ENDMDL
MODEL      133
REMARK 921   NORMALIZED FREE ENERGY PREDICTED BY IDOCK:   -6.80 KCAL/MOL
REMARK 922        TOTAL FREE ENERGY PREDICTED BY IDOCK:  -10.09 KCAL/MOL
REMARK 923 INTER-LIGAND FREE ENERGY PREDICTED BY IDOCK:   -9.49 KCAL/MOL
REMARK 924 INTRA-LIGAND FREE ENERGY PREDICTED BY IDOCK:   -0.60 KCAL/MOL
REMARK 927      BINDING AFFINITY PREDICTED BY RF-SCORE:    0.00 PKD
ROOT
HETATM    1  C   UNL     1     -11.786  11.924  69.728  1.00  0.00    -0.411 C  
HETATM    2  C   UNL     1     -10.647  11.981  68.718  1.00  0.00    -0.209 C  
ENDROOT
BRANCH   2   3
HETATM    3  C   UNL     1     -11.014  12.752  67.467  1.00  0.00    -0.280 A  
HETATM    4  F   UNL     1     -11.272  10.972  63.587  1.00  0.00    -0.413 F  
HETATM    5  F   UNL     1     -11.867  12.865  62.706  1.00  0.00    -0.429 F  
HETATM    6  C   UNL     1     -10.683  14.112  67.420  1.00  0.00    -0.284 A  
HETATM    7  C   UNL     1     -10.676  14.809  66.214  1.00  0.00    -0.313 A  
HETATM    8  F   UNL     1     -13.292  11.723  63.886  1.00  0.00    -0.500 F  
HETATM    9  C   UNL     1     -10.083  16.199  66.160  1.00  0.00    -0.338 C  
HETATM   10  C   UNL     1     -11.108  14.156  65.050  1.00  0.00    -0.372 A  
HETATM   11  C   UNL     1     -11.987  12.103  63.830  1.00  0.00    -0.513 C  
HETATM   12  C   UNL     1     -11.535  12.815  65.086  1.00  0.00    -0.356 A  
HETATM   13  F   UNL     1      -9.814  16.718  67.390  1.00  0.00    -0.237 F  
HETATM   14  F   UNL     1      -8.904  16.215  65.485  1.00  0.00    -0.247 F  
HETATM   15  C   UNL     1     -11.476  12.117  66.302  1.00  0.00    -0.433 A  
HETATM   16  F   UNL     1     -10.892  17.095  65.540  1.00  0.00    -0.350 F  
ENDBRANCH   2   3
BRANCH   2  17
HETATM   17  O   UNL     1     -10.200  10.657  68.383  1.00  0.00    -0.161 OA 
BRANCH  17  18
HETATM   18  C   UNL     1      -8.993  10.634  67.582  1.00  0.00    -0.139 C  
HETATM   19  N   UNL     1      -7.668   9.114  69.102  1.00  0.00    -0.079 NA 
HETATM   20  C   UNL     1      -8.176   9.274  67.714  1.00  0.00    -0.115 C  
HETATM   21  O   UNL     1      -8.128  11.739  67.896  1.00  0.00    -0.129 OA 
HETATM   22  C   UNL     1      -7.647  11.626  69.240  1.00  0.00     0.125 C  
HETATM   23  C   UNL     1      -6.881  10.317  69.462  1.00  0.00    -0.084 C  
BRANCH  19  24
HETATM   24  C   UNL     1      -6.959   7.868  69.442  1.00  0.00    -0.059 C  
BRANCH  24  25
HETATM   25  C   UNL     1      -7.527   7.119  70.633  1.00  0.00    -0.081 C  
HETATM   26  O   UNL     1     -11.201   7.444  72.420  1.00  0.00    -0.260 OA 
HETATM   27  O   UNL     1     -10.885   5.006  72.422  1.00  0.00    -0.213 OA 
HETATM   28  N   UNL     1      -7.137   5.912  70.962  1.00  0.00    -0.067 NA 
HETATM   29  O   UNL     1     -10.312   6.347  74.554  1.00  0.00    -0.329 OA 
HETATM   30  C   UNL     1      -7.971   5.534  71.991  1.00  0.00    -0.111 C  
HETATM   31  O   UNL     1      -8.101   4.397  72.424  1.00  0.00    -0.096 OA 
HETATM   32  P   UNL     1     -10.242   6.321  73.068  1.00  0.00    -0.224 P  
HETATM   33  N   UNL     1      -8.768   6.594  72.335  1.00  0.00    -0.129 N  
HETATM   34  N   UNL     1      -8.494   7.658  71.450  1.00  0.00    -0.113 NA 
ENDBRANCH  24  25
ENDBRANCH  19  24
BRANCH  20  35
HETATM   35  C   UNL     1      -9.010   8.123  67.155  1.00  0.00    -0.154 A  
HETATM   36  C   UNL     1     -11.008   6.725  67.288  1.00  0.00    -0.433 A  
HETATM   37  F   UNL     1     -11.102   4.732  66.029  1.00  0.00    -0.321 F  
HETATM   38  C   UNL     1     -10.293   7.861  67.682  1.00  0.00    -0.307 A  
HETATM   39  C   UNL     1      -9.186   6.089  65.828  1.00  0.00    -0.032 A  
HETATM   40  C   UNL     1      -8.478   7.233  66.210  1.00  0.00    -0.135 A  
HETATM   41  C   UNL     1     -10.438   5.841  66.375  1.00  0.00    -0.157 A  
ENDBRANCH  20  35
ENDBRANCH  17  18
ENDBRANCH   2  17
TORSDOF 6
ENDMDL
MODEL      134
REMARK 921   NORMALIZED FREE ENERGY PREDICTED BY IDOCK:   -6.77 KCAL/MOL
REMARK 922        TOTAL FREE ENERGY PREDICTED BY IDOCK:  -10.04 KCAL/MOL
REMARK 923 INTER-LIGAND FREE ENERGY PREDICTED BY IDOCK:   -9.02 KCAL/MOL
REMARK 924 INTRA-LIGAND FREE ENERGY PREDICTED BY IDOCK:   -1.03 KCAL/MOL
REMARK 927      BINDING AFFINITY PREDICTED BY RF-SCORE:    0.00 PKD
ROOT
HETATM    1  C   UNL     1      -7.309   9.980  67.182  1.00  0.00    -0.091 C  
HETATM    2  C   UNL     1      -7.768  10.021  68.634  1.00  0.00    -0.086 C  
ENDROOT
BRANCH   2   3
HETATM    3  C   UNL     1      -8.486   8.756  69.055  1.00  0.00    -0.130 A  
HETATM    4  F   UNL     1      -9.620   5.664  66.327  1.00  0.00    -0.154 F  
HETATM    5  F   UNL     1     -10.443   4.472  67.946  1.00  0.00    -0.090 F  
HETATM    6  C   UNL     1      -9.323   8.826  70.176  1.00  0.00    -0.181 A  
HETATM    7  C   UNL     1     -10.262   7.830  70.435  1.00  0.00    -0.197 A  
HETATM    8  F   UNL     1      -8.288   4.613  67.689  1.00  0.00    -0.102 F  
HETATM    9  C   UNL     1     -11.308   8.052  71.504  1.00  0.00    -0.259 C  
HETATM   10  C   UNL     1     -10.292   6.694  69.612  1.00  0.00    -0.226 A  
HETATM   11  C   UNL     1      -9.438   5.339  67.636  1.00  0.00    -0.123 C  
HETATM   12  C   UNL     1      -9.398   6.555  68.534  1.00  0.00    -0.123 A  
HETATM   13  F   UNL     1     -11.068   9.150  72.274  1.00  0.00    -0.414 F  
HETATM   14  F   UNL     1     -12.542   8.239  70.967  1.00  0.00    -0.291 F  
HETATM   15  C   UNL     1      -8.502   7.600  68.258  1.00  0.00    -0.125 A  
HETATM   16  F   UNL     1     -11.417   7.006  72.362  1.00  0.00    -0.262 F  
ENDBRANCH   2   3
BRANCH   2  17
HETATM   17  O   UNL     1      -8.593  11.174  68.872  1.00  0.00    -0.153 OA 
BRANCH  17  18
HETATM   18  C   UNL     1      -9.099  11.789  67.662  1.00  0.00    -0.177 C  
HETATM   19  N   UNL     1     -10.624  13.449  68.800  1.00  0.00    -0.237 NA 
HETATM   20  C   UNL     1      -9.487  13.321  67.850  1.00  0.00    -0.214 C  
HETATM   21  O   UNL     1     -10.231  11.074  67.138  1.00  0.00    -0.193 OA 
HETATM   22  C   UNL     1     -11.334  11.155  68.048  1.00  0.00    -0.312 C  
HETATM   23  C   UNL     1     -11.745  12.608  68.317  1.00  0.00    -0.342 C  
BRANCH  19  24
HETATM   24  C   UNL     1     -11.071  14.804  69.170  1.00  0.00    -0.265 C  
BRANCH  24  25
HETATM   25  C   UNL     1     -10.874  15.853  68.091  1.00  0.00    -0.317 C  
HETATM   26  O   UNL     1      -8.272  19.017  67.961  1.00  0.00    -0.282 OA 
HETATM   27  O   UNL     1      -8.127  18.187  65.652  1.00  0.00    -0.488 OA 
HETATM   28  N   UNL     1     -11.138  15.628  66.828  1.00  0.00    -0.235 NA 
HETATM   29  O   UNL     1      -9.694  20.173  66.175  1.00  0.00    -0.411 OA 
HETATM   30  C   UNL     1     -10.704  16.754  66.165  1.00  0.00    -0.116 C  
HETATM   31  O   UNL     1     -10.549  16.855  64.955  1.00  0.00    -0.702 OA 
HETATM   32  P   UNL     1      -9.190  18.854  66.645  1.00  0.00    -0.338 P  
HETATM   33  N   UNL     1     -10.299  17.687  67.082  1.00  0.00    -0.340 N  
HETATM   34  N   UNL     1     -10.401  17.114  68.368  1.00  0.00    -0.340 NA 
ENDBRANCH  24  25
ENDBRANCH  19  24
BRANCH  20  35
HETATM   35  C   UNL     1      -8.232  14.128  68.176  1.00  0.00    -0.149 A  
HETATM   36  C   UNL     1      -6.725  15.076  69.848  1.00  0.00    -0.170 A  
HETATM   37  F   UNL     1      -5.139  16.691  69.182  1.00  0.00    -0.120 F  
HETATM   38  C   UNL     1      -7.781  14.224  69.510  1.00  0.00     0.203 A  
HETATM   39  C   UNL     1      -6.535  15.750  67.532  1.00  0.00    -0.203 A  
HETATM   40  C   UNL     1      -7.581  14.887  67.192  1.00  0.00    -0.145 A  
HETATM   41  C   UNL     1      -6.122  15.843  68.854  1.00  0.00    -0.118 A  
ENDBRANCH  20  35
ENDBRANCH  17  18
ENDBRANCH   2  17
TORSDOF 6
ENDMDL
MODEL      135
REMARK 921   NORMALIZED FREE ENERGY PREDICTED BY IDOCK:   -6.76 KCAL/MOL
REMARK 922        TOTAL FREE ENERGY PREDICTED BY IDOCK:  -10.03 KCAL/MOL
REMARK 923 INTER-LIGAND FREE ENERGY PREDICTED BY IDOCK:   -9.08 KCAL/MOL
REMARK 924 INTRA-LIGAND FREE ENERGY PREDICTED BY IDOCK:   -0.96 KCAL/MOL
REMARK 927      BINDING AFFINITY PREDICTED BY RF-SCORE:    0.00 PKD
ROOT
HETATM    1  C   UNL     1      -7.184  13.478  68.692  1.00  0.00    -0.107 C  
HETATM    2  C   UNL     1      -8.455  13.062  67.962  1.00  0.00    -0.181 C  
ENDROOT
BRANCH   2   3
HETATM    3  C   UNL     1      -9.547  14.108  68.049  1.00  0.00    -0.218 A  
HETATM    4  F   UNL     1      -9.097  18.116  66.627  1.00  0.00    -0.252 F  
HETATM    5  F   UNL     1     -11.137  18.596  67.195  1.00  0.00    -0.427 F  
HETATM    6  C   UNL     1     -10.464  14.004  69.102  1.00  0.00    -0.103 A  
HETATM    7  C   UNL     1     -11.279  15.078  69.454  1.00  0.00    -0.299 A  
HETATM    8  F   UNL     1     -10.759  17.384  65.429  1.00  0.00    -0.381 F  
HETATM    9  C   UNL     1     -12.075  15.020  70.738  1.00  0.00    -0.322 C  
HETATM   10  C   UNL     1     -11.246  16.241  68.670  1.00  0.00    -0.354 A  
HETATM   11  C   UNL     1     -10.351  17.594  66.710  1.00  0.00    -0.331 C  
HETATM   12  C   UNL     1     -10.400  16.337  67.549  1.00  0.00    -0.288 A  
HETATM   13  F   UNL     1     -12.078  13.786  71.316  1.00  0.00    -0.397 F  
HETATM   14  F   UNL     1     -11.577  15.868  71.676  1.00  0.00    -0.383 F  
HETATM   15  C   UNL     1      -9.545  15.263  67.251  1.00  0.00    -0.214 A  
HETATM   16  F   UNL     1     -13.379  15.360  70.567  1.00  0.00    -0.417 F  
ENDBRANCH   2   3
BRANCH   2  17
HETATM   17  O   UNL     1      -8.928  11.796  68.452  1.00  0.00    -0.178 OA 
BRANCH  17  18
HETATM   18  C   UNL     1      -8.077  10.678  68.099  1.00  0.00    -0.114 C  
HETATM   19  N   UNL     1      -9.882   8.913  68.152  1.00  0.00    -0.162 NA 
HETATM   20  C   UNL     1      -8.839   9.536  67.294  1.00  0.00    -0.128 C  
HETATM   21  O   UNL     1      -7.449  10.104  69.258  1.00  0.00    -0.088 OA 
HETATM   22  C   UNL     1      -8.435   9.522  70.119  1.00  0.00    -0.205 C  
HETATM   23  C   UNL     1      -9.246   8.435  69.403  1.00  0.00    -0.154 C  
BRANCH  19  24
HETATM   24  C   UNL     1     -10.755   7.890  67.552  1.00  0.00    -0.181 C  
BRANCH  24  25
HETATM   25  C   UNL     1     -10.022   6.705  66.950  1.00  0.00    -0.180 C  
HETATM   26  O   UNL     1     -11.359   3.860  64.320  1.00  0.00    -0.276 OA 
HETATM   27  O   UNL     1      -9.112   4.310  63.431  1.00  0.00    -0.132 OA 
HETATM   28  N   UNL     1      -8.724   6.689  66.776  1.00  0.00    -0.117 NA 
HETATM   29  O   UNL     1      -9.461   2.280  64.991  1.00  0.00    -0.112 OA 
HETATM   30  C   UNL     1      -8.467   5.523  66.090  1.00  0.00    -0.122 C  
HETATM   31  O   UNL     1      -7.418   5.242  65.526  1.00  0.00    -0.075 OA 
HETATM   32  P   UNL     1      -9.810   3.705  64.738  1.00  0.00    -0.119 P  
HETATM   33  N   UNL     1      -9.627   4.802  65.981  1.00  0.00    -0.166 N  
HETATM   34  N   UNL     1     -10.674   5.564  66.543  1.00  0.00    -0.289 NA 
ENDBRANCH  24  25
ENDBRANCH  19  24
BRANCH  20  35
HETATM   35  C   UNL     1      -9.303  10.084  65.947  1.00  0.00    -0.236 A  
HETATM   36  C   UNL     1      -8.842  10.513  63.587  1.00  0.00    -0.210 A  
HETATM   37  F   UNL     1     -10.262  11.964  62.384  1.00  0.00     0.060 F  
HETATM   38  C   UNL     1      -8.509   9.893  64.796  1.00  0.00    -0.179 A  
HETATM   39  C   UNL     1     -10.772  11.522  64.642  1.00  0.00    -0.379 A  
HETATM   40  C   UNL     1     -10.448  10.890  65.846  1.00  0.00    -0.285 A  
HETATM   41  C   UNL     1      -9.965  11.336  63.528  1.00  0.00    -0.376 A  
ENDBRANCH  20  35
ENDBRANCH  17  18
ENDBRANCH   2  17
TORSDOF 6
ENDMDL
MODEL      136
REMARK 921   NORMALIZED FREE ENERGY PREDICTED BY IDOCK:   -6.74 KCAL/MOL
REMARK 922        TOTAL FREE ENERGY PREDICTED BY IDOCK:  -10.01 KCAL/MOL
REMARK 923 INTER-LIGAND FREE ENERGY PREDICTED BY IDOCK:   -8.79 KCAL/MOL
REMARK 924 INTRA-LIGAND FREE ENERGY PREDICTED BY IDOCK:   -1.22 KCAL/MOL
REMARK 927      BINDING AFFINITY PREDICTED BY RF-SCORE:    0.00 PKD
ROOT
HETATM    1  C   UNL     1      -9.861  13.608  68.271  1.00  0.00    -0.232 C  
HETATM    2  C   UNL     1     -10.584  12.267  68.239  1.00  0.00    -0.227 C  
ENDROOT
BRANCH   2   3
HETATM    3  C   UNL     1     -11.598  12.124  69.355  1.00  0.00    -0.381 A  
HETATM    4  F   UNL     1     -12.166  15.051  72.421  1.00  0.00    -0.357 F  
HETATM    5  F   UNL     1     -13.759  13.875  73.314  1.00  0.00    -0.300 F  
HETATM    6  C   UNL     1     -11.926  10.828  69.773  1.00  0.00    -0.397 A  
HETATM    7  C   UNL     1     -12.577  10.607  70.985  1.00  0.00    -0.516 A  
HETATM    8  F   UNL     1     -14.126  14.982  71.479  1.00  0.00    -0.429 F  
HETATM    9  C   UNL     1     -12.697   9.197  71.520  1.00  0.00    -0.341 C  
HETATM   10  C   UNL     1     -12.996  11.711  71.742  1.00  0.00    -0.483 A  
HETATM   11  C   UNL     1     -13.199  14.219  72.120  1.00  0.00    -0.402 C  
HETATM   12  C   UNL     1     -12.761  13.026  71.299  1.00  0.00    -0.385 A  
HETATM   13  F   UNL     1     -12.338   8.245  70.614  1.00  0.00    -0.188 F  
HETATM   14  F   UNL     1     -11.898   9.002  72.601  1.00  0.00    -0.353 F  
HETATM   15  C   UNL     1     -12.052  13.222  70.104  1.00  0.00    -0.403 A  
HETATM   16  F   UNL     1     -13.959   8.888  71.914  1.00  0.00    -0.384 F  
ENDBRANCH   2   3
BRANCH   2  17
HETATM   17  O   UNL     1      -9.641  11.183  68.272  1.00  0.00    -0.171 OA 
BRANCH  17  18
HETATM   18  C   UNL     1      -9.279  10.684  66.961  1.00  0.00    -0.151 C  
HETATM   19  N   UNL     1      -7.017   9.772  67.614  1.00  0.00    -0.085 NA 
HETATM   20  C   UNL     1      -8.328   9.409  67.012  1.00  0.00    -0.127 C  
HETATM   21  O   UNL     1      -8.662  11.705  66.158  1.00  0.00    -0.174 OA 
HETATM   22  C   UNL     1      -7.408  12.096  66.731  1.00  0.00     0.084 C  
HETATM   23  C   UNL     1      -6.445  10.910  66.856  1.00  0.00    -0.097 C  
BRANCH  19  24
HETATM   24  C   UNL     1      -6.030   8.699  67.826  1.00  0.00    -0.047 C  
BRANCH  24  25
HETATM   25  C   UNL     1      -5.965   8.169  69.247  1.00  0.00    -0.037 C  
HETATM   26  O   UNL     1      -8.318   9.058  72.483  1.00  0.00    -0.332 OA 
HETATM   27  O   UNL     1      -8.078   6.624  72.724  1.00  0.00    -0.107 OA 
HETATM   28  N   UNL     1      -5.484   6.986  69.540  1.00  0.00    -0.015 NA 
HETATM   29  O   UNL     1      -6.527   8.179  74.086  1.00  0.00    -0.106 OA 
HETATM   30  C   UNL     1      -5.725   6.825  70.886  1.00  0.00    -0.027 C  
HETATM   31  O   UNL     1      -5.646   5.772  71.505  1.00  0.00    -0.019 OA 
HETATM   32  P   UNL     1      -7.182   7.950  72.769  1.00  0.00    -0.103 P  
HETATM   33  N   UNL     1      -6.240   7.988  71.393  1.00  0.00    -0.034 N  
HETATM   34  N   UNL     1      -6.410   8.896  70.326  1.00  0.00    -0.037 NA 
ENDBRANCH  24  25
ENDBRANCH  19  24
BRANCH  20  35
HETATM   35  C   UNL     1      -9.074   8.243  67.656  1.00  0.00    -0.139 A  
HETATM   36  C   UNL     1     -10.579   6.334  67.424  1.00  0.00    -0.361 A  
HETATM   37  F   UNL     1     -11.510   5.361  69.362  1.00  0.00    -0.052 F  
HETATM   38  C   UNL     1      -9.770   7.318  66.848  1.00  0.00    -0.252 A  
HETATM   39  C   UNL     1     -10.012   7.161  69.625  1.00  0.00    -0.176 A  
HETATM   40  C   UNL     1      -9.191   8.136  69.051  1.00  0.00    -0.148 A  
HETATM   41  C   UNL     1     -10.703   6.276  68.810  1.00  0.00    -0.297 A  
ENDBRANCH  20  35
ENDBRANCH  17  18
ENDBRANCH   2  17
TORSDOF 6
ENDMDL
MODEL      137
REMARK 921   NORMALIZED FREE ENERGY PREDICTED BY IDOCK:   -6.73 KCAL/MOL
REMARK 922        TOTAL FREE ENERGY PREDICTED BY IDOCK:   -9.99 KCAL/MOL
REMARK 923 INTER-LIGAND FREE ENERGY PREDICTED BY IDOCK:   -8.35 KCAL/MOL
REMARK 924 INTRA-LIGAND FREE ENERGY PREDICTED BY IDOCK:   -1.64 KCAL/MOL
REMARK 927      BINDING AFFINITY PREDICTED BY RF-SCORE:    0.00 PKD
ROOT
HETATM    1  C   UNL     1      -7.832   9.784  65.117  1.00  0.00    -0.126 C  
HETATM    2  C   UNL     1      -8.980   9.648  66.109  1.00  0.00    -0.154 C  
ENDROOT
BRANCH   2   3
HETATM    3  C   UNL     1      -9.813  10.908  66.214  1.00  0.00    -0.261 A  
HETATM    4  F   UNL     1     -11.784  12.144  69.802  1.00  0.00    -0.331 F  
HETATM    5  F   UNL     1     -12.536  13.935  68.829  1.00  0.00    -0.374 F  
HETATM    6  C   UNL     1     -10.460  11.358  65.056  1.00  0.00    -0.361 A  
HETATM    7  C   UNL     1     -11.491  12.292  65.125  1.00  0.00    -0.390 A  
HETATM    8  F   UNL     1     -10.445  13.814  69.412  1.00  0.00    -0.163 F  
HETATM    9  C   UNL     1     -12.327  12.572  63.896  1.00  0.00    -0.485 C  
HETATM   10  C   UNL     1     -11.811  12.859  66.368  1.00  0.00    -0.478 A  
HETATM   11  C   UNL     1     -11.466  13.091  68.878  1.00  0.00    -0.299 C  
HETATM   12  C   UNL     1     -11.114  12.493  67.535  1.00  0.00    -0.311 A  
HETATM   13  F   UNL     1     -11.814  12.024  62.760  1.00  0.00    -0.198 F  
HETATM   14  F   UNL     1     -13.583  12.068  64.018  1.00  0.00    -0.350 F  
HETATM   15  C   UNL     1     -10.119  11.506  67.447  1.00  0.00    -0.213 A  
HETATM   16  F   UNL     1     -12.468  13.899  63.646  1.00  0.00    -0.484 F  
ENDBRANCH   2   3
BRANCH   2  17
HETATM   17  O   UNL     1      -8.488   9.258  67.403  1.00  0.00    -0.121 OA 
BRANCH  17  18
HETATM   18  C   UNL     1      -7.126   8.765  67.384  1.00  0.00    -0.079 C  
HETATM   19  N   UNL     1      -7.374   7.164  69.321  1.00  0.00    -0.089 NA 
HETATM   20  C   UNL     1      -6.995   7.261  67.887  1.00  0.00    -0.076 C  
HETATM   21  O   UNL     1      -6.250   9.602  68.158  1.00  0.00    -0.054 OA 
HETATM   22  C   UNL     1      -6.611   9.552  69.544  1.00  0.00    -0.044 C  
HETATM   23  C   UNL     1      -6.551   8.123  70.096  1.00  0.00    -0.036 C  
BRANCH  19  24
HETATM   24  C   UNL     1      -7.399   5.829  69.945  1.00  0.00    -0.070 C  
BRANCH  24  25
HETATM   25  C   UNL     1      -8.669   5.511  70.711  1.00  0.00    -0.130 C  
HETATM   26  O   UNL     1      -9.175   3.358  74.162  1.00  0.00    -0.089 OA 
HETATM   27  O   UNL     1     -10.712   5.237  74.545  1.00  0.00    -0.323 OA 
HETATM   28  N   UNL     1      -9.728   6.282  70.680  1.00  0.00    -0.175 NA 
HETATM   29  O   UNL     1     -11.654   3.009  73.637  1.00  0.00    -0.183 OA 
HETATM   30  C   UNL     1     -10.598   5.735  71.596  1.00  0.00    -0.245 C  
HETATM   31  O   UNL     1     -11.599   6.279  72.044  1.00  0.00    -0.297 OA 
HETATM   32  P   UNL     1     -10.533   3.985  73.563  1.00  0.00    -0.229 P  
HETATM   33  N   UNL     1     -10.074   4.559  72.066  1.00  0.00    -0.193 N  
HETATM   34  N   UNL     1      -8.795   4.388  71.495  1.00  0.00    -0.116 NA 
ENDBRANCH  24  25
ENDBRANCH  19  24
BRANCH  20  35
HETATM   35  C   UNL     1      -7.733   6.335  66.923  1.00  0.00    -0.100 A  
HETATM   36  C   UNL     1      -7.764   5.088  64.823  1.00  0.00    -0.084 A  
HETATM   37  F   UNL     1      -9.812   4.232  64.024  1.00  0.00    -0.158 F  
HETATM   38  C   UNL     1      -7.066   5.814  65.793  1.00  0.00    -0.070 A  
HETATM   39  C   UNL     1      -9.808   5.375  66.085  1.00  0.00    -0.161 A  
HETATM   40  C   UNL     1      -9.108   6.087  67.063  1.00  0.00    -0.117 A  
HETATM   41  C   UNL     1      -9.135   4.890  64.973  1.00  0.00    -0.131 A  
ENDBRANCH  20  35
ENDBRANCH  17  18
ENDBRANCH   2  17
TORSDOF 6
ENDMDL
MODEL      138
REMARK 921   NORMALIZED FREE ENERGY PREDICTED BY IDOCK:   -6.72 KCAL/MOL
REMARK 922        TOTAL FREE ENERGY PREDICTED BY IDOCK:   -9.98 KCAL/MOL
REMARK 923 INTER-LIGAND FREE ENERGY PREDICTED BY IDOCK:   -8.67 KCAL/MOL
REMARK 924 INTRA-LIGAND FREE ENERGY PREDICTED BY IDOCK:   -1.31 KCAL/MOL
REMARK 927      BINDING AFFINITY PREDICTED BY RF-SCORE:    0.00 PKD
ROOT
HETATM    1  C   UNL     1     -13.270  12.712  71.263  1.00  0.00    -0.119 C  
HETATM    2  C   UNL     1     -11.996  12.066  70.732  1.00  0.00    -0.050 C  
ENDROOT
BRANCH   2   3
HETATM    3  C   UNL     1     -11.451  12.772  69.508  1.00  0.00    -0.293 A  
HETATM    4  F   UNL     1     -12.079  16.923  68.697  1.00  0.00     0.172 F  
HETATM    5  F   UNL     1     -10.896  16.795  66.880  1.00  0.00    -0.283 F  
HETATM    6  C   UNL     1     -11.274  12.011  68.345  1.00  0.00    -0.313 A  
HETATM    7  C   UNL     1     -11.101  12.623  67.105  1.00  0.00    -0.321 A  
HETATM    8  F   UNL     1      -9.910  16.798  68.818  1.00  0.00    -0.222 F  
HETATM    9  C   UNL     1     -11.158  11.786  65.847  1.00  0.00    -0.302 C  
HETATM   10  C   UNL     1     -11.002  14.021  67.046  1.00  0.00    -0.302 A  
HETATM   11  C   UNL     1     -10.992  16.313  68.151  1.00  0.00    -0.343 C  
HETATM   12  C   UNL     1     -11.084  14.805  68.212  1.00  0.00    -0.284 A  
HETATM   13  F   UNL     1     -11.149  10.446  66.090  1.00  0.00    -0.130 F  
HETATM   14  F   UNL     1     -12.290  12.027  65.135  1.00  0.00    -0.405 F  
HETATM   15  C   UNL     1     -11.317  14.168  69.442  1.00  0.00    -0.318 A  
HETATM   16  F   UNL     1     -10.118  12.025  65.007  1.00  0.00    -0.263 F  
ENDBRANCH   2   3
BRANCH   2  17
HETATM   17  O   UNL     1     -12.211  10.671  70.458  1.00  0.00    -0.300 OA 
BRANCH  17  18
HETATM   18  C   UNL     1     -11.680   9.788  71.476  1.00  0.00    -0.375 C  
HETATM   19  N   UNL     1     -11.868   7.657  70.133  1.00  0.00     0.086 NA 
HETATM   20  C   UNL     1     -10.917   8.526  70.877  1.00  0.00    -0.251 C  
HETATM   21  O   UNL     1     -12.708   9.339  72.376  1.00  0.00    -0.370 OA 
HETATM   22  C   UNL     1     -13.656   8.523  71.678  1.00  0.00    -0.361 C  
HETATM   23  C   UNL     1     -12.991   7.301  71.033  1.00  0.00    -0.175 C  
BRANCH  19  24
HETATM   24  C   UNL     1     -11.329   6.480  69.431  1.00  0.00    -0.332 C  
BRANCH  24  25
HETATM   25  C   UNL     1     -10.588   5.496  70.319  1.00  0.00    -0.287 C  
HETATM   26  O   UNL     1     -11.080   4.682  74.306  1.00  0.00    -0.287 OA 
HETATM   27  O   UNL     1     -10.764   2.422  73.394  1.00  0.00    -0.138 OA 
HETATM   28  N   UNL     1     -10.030   4.406  69.855  1.00  0.00    -0.218 NA 
HETATM   29  O   UNL     1      -8.742   3.651  74.431  1.00  0.00    -0.087 OA 
HETATM   30  C   UNL     1      -9.591   3.726  70.969  1.00  0.00    -0.179 C  
HETATM   31  O   UNL     1      -9.228   2.557  70.996  1.00  0.00    -0.106 OA 
HETATM   32  P   UNL     1      -9.953   3.789  73.577  1.00  0.00    -0.137 P  
HETATM   33  N   UNL     1      -9.793   4.504  72.079  1.00  0.00    -0.170 N  
HETATM   34  N   UNL     1     -10.453   5.684  71.674  1.00  0.00    -0.222 NA 
ENDBRANCH  24  25
ENDBRANCH  19  24
BRANCH  20  35
HETATM   35  C   UNL     1      -9.680   8.993  70.114  1.00  0.00    -0.213 A  
HETATM   36  C   UNL     1      -8.524   9.304  67.986  1.00  0.00    -0.120 A  
HETATM   37  F   UNL     1      -6.212   9.774  67.991  1.00  0.00    -0.053 F  
HETATM   38  C   UNL     1      -9.691   9.023  68.703  1.00  0.00    -0.168 A  
HETATM   39  C   UNL     1      -7.309   9.543  70.064  1.00  0.00    -0.115 A  
HETATM   40  C   UNL     1      -8.479   9.277  70.782  1.00  0.00    -0.244 A  
HETATM   41  C   UNL     1      -7.339   9.547  68.677  1.00  0.00    -0.075 A  
ENDBRANCH  20  35
ENDBRANCH  17  18
ENDBRANCH   2  17
TORSDOF 6
ENDMDL
MODEL      139
REMARK 921   NORMALIZED FREE ENERGY PREDICTED BY IDOCK:   -6.71 KCAL/MOL
REMARK 922        TOTAL FREE ENERGY PREDICTED BY IDOCK:   -9.97 KCAL/MOL
REMARK 923 INTER-LIGAND FREE ENERGY PREDICTED BY IDOCK:   -9.31 KCAL/MOL
REMARK 924 INTRA-LIGAND FREE ENERGY PREDICTED BY IDOCK:   -0.66 KCAL/MOL
REMARK 927      BINDING AFFINITY PREDICTED BY RF-SCORE:    0.00 PKD
ROOT
HETATM    1  C   UNL     1      -8.810   6.856  69.085  1.00  0.00    -0.134 C  
HETATM    2  C   UNL     1      -9.801   7.226  67.989  1.00  0.00    -0.145 C  
ENDROOT
BRANCH   2   3
HETATM    3  C   UNL     1      -9.411   6.666  66.637  1.00  0.00    -0.192 A  
HETATM    4  F   UNL     1      -8.767   2.503  65.900  1.00  0.00    -0.102 F  
HETATM    5  F   UNL     1      -8.354   2.890  63.803  1.00  0.00    -0.083 F  
HETATM    6  C   UNL     1      -8.669   7.491  65.782  1.00  0.00    -0.142 A  
HETATM    7  C   UNL     1      -7.993   6.965  64.683  1.00  0.00    -0.112 A  
HETATM    8  F   UNL     1     -10.399   2.968  64.537  1.00  0.00    -0.125 F  
HETATM    9  C   UNL     1      -7.010   7.831  63.928  1.00  0.00    -0.063 C  
HETATM   10  C   UNL     1      -8.147   5.603  64.380  1.00  0.00    -0.128 A  
HETATM   11  C   UNL     1      -9.118   3.300  64.854  1.00  0.00    -0.141 C  
HETATM   12  C   UNL     1      -8.962   4.771  65.170  1.00  0.00    -0.152 A  
HETATM   13  F   UNL     1      -7.065   9.145  64.283  1.00  0.00    -0.091 F  
HETATM   14  F   UNL     1      -5.727   7.441  64.146  1.00  0.00    -0.032 F  
HETATM   15  C   UNL     1      -9.585   5.313  66.305  1.00  0.00    -0.175 A  
HETATM   16  F   UNL     1      -7.199   7.794  62.584  1.00  0.00    -0.078 F  
ENDBRANCH   2   3
BRANCH   2  17
HETATM   17  O   UNL     1      -9.968   8.652  67.916  1.00  0.00    -0.170 OA 
BRANCH  17  18
HETATM   18  C   UNL     1      -9.170   9.382  68.880  1.00  0.00    -0.140 C  
HETATM   19  N   UNL     1     -10.319  11.611  68.573  1.00  0.00    -0.207 NA 
HETATM   20  C   UNL     1      -9.962  10.574  69.578  1.00  0.00    -0.158 C  
HETATM   21  O   UNL     1      -7.965   9.896  68.289  1.00  0.00    -0.098 OA 
HETATM   22  C   UNL     1      -8.279  10.878  67.294  1.00  0.00    -0.123 C  
HETATM   23  C   UNL     1      -9.083  12.045  67.879  1.00  0.00    -0.183 C  
BRANCH  19  24
HETATM   24  C   UNL     1     -11.134  12.755  69.016  1.00  0.00    -0.233 C  
BRANCH  24  25
HETATM   25  C   UNL     1     -11.145  13.934  68.059  1.00  0.00    -0.259 C  
HETATM   26  O   UNL     1      -8.910  17.369  68.112  1.00  0.00    -0.238 OA 
HETATM   27  O   UNL     1      -8.887  16.823  65.715  1.00  0.00    -0.505 OA 
HETATM   28  N   UNL     1     -11.497  13.822  66.803  1.00  0.00    -0.333 NA 
HETATM   29  O   UNL     1     -10.599  18.547  66.593  1.00  0.00    -0.390 OA 
HETATM   30  C   UNL     1     -11.243  15.057  66.248  1.00  0.00    -0.309 C  
HETATM   31  O   UNL     1     -11.209  15.309  65.051  1.00  0.00    -0.384 OA 
HETATM   32  P   UNL     1      -9.920  17.250  66.861  1.00  0.00    -0.317 P  
HETATM   33  N   UNL     1     -10.857  15.923  67.237  1.00  0.00    -0.309 N  
HETATM   34  N   UNL     1     -10.783  15.202  68.449  1.00  0.00    -0.242 NA 
ENDBRANCH  24  25
ENDBRANCH  19  24
BRANCH  20  35
HETATM   35  C   UNL     1     -11.111  10.005  70.407  1.00  0.00    -0.393 A  
HETATM   36  C   UNL     1     -13.411  10.189  71.205  1.00  0.00    -0.305 A  
HETATM   37  F   UNL     1     -14.122   8.820  72.992  1.00  0.00    -0.393 F  
HETATM   38  C   UNL     1     -12.389  10.601  70.345  1.00  0.00    -0.428 A  
HETATM   39  C   UNL     1     -11.914   8.572  72.204  1.00  0.00    -0.451 A  
HETATM   40  C   UNL     1     -10.896   8.973  71.334  1.00  0.00    -0.400 A  
HETATM   41  C   UNL     1     -13.157   9.186  72.139  1.00  0.00    -0.446 A  
ENDBRANCH  20  35
ENDBRANCH  17  18
ENDBRANCH   2  17
TORSDOF 6
ENDMDL
MODEL      140
REMARK 921   NORMALIZED FREE ENERGY PREDICTED BY IDOCK:   -6.70 KCAL/MOL
REMARK 922        TOTAL FREE ENERGY PREDICTED BY IDOCK:   -9.95 KCAL/MOL
REMARK 923 INTER-LIGAND FREE ENERGY PREDICTED BY IDOCK:   -9.79 KCAL/MOL
REMARK 924 INTRA-LIGAND FREE ENERGY PREDICTED BY IDOCK:   -0.16 KCAL/MOL
REMARK 927      BINDING AFFINITY PREDICTED BY RF-SCORE:    0.00 PKD
ROOT
HETATM    1  C   UNL     1      -7.590  11.881  67.185  1.00  0.00    -0.154 C  
HETATM    2  C   UNL     1      -9.069  11.574  66.986  1.00  0.00    -0.175 C  
ENDROOT
BRANCH   2   3
HETATM    3  C   UNL     1      -9.953  12.781  67.221  1.00  0.00    -0.219 A  
HETATM    4  F   UNL     1      -9.022  16.704  65.794  1.00  0.00    -0.310 F  
HETATM    5  F   UNL     1     -10.868  17.494  66.621  1.00  0.00    -0.272 F  
HETATM    6  C   UNL     1     -10.737  12.797  68.382  1.00  0.00    -0.269 A  
HETATM    7  C   UNL     1     -11.312  13.978  68.845  1.00  0.00    -0.314 A  
HETATM    8  F   UNL     1     -10.918  16.292  64.810  1.00  0.00    -0.426 F  
HETATM    9  C   UNL     1     -11.942  14.011  70.219  1.00  0.00    -0.339 C  
HETATM   10  C   UNL     1     -11.183  15.143  68.075  1.00  0.00    -0.329 A  
HETATM   11  C   UNL     1     -10.325  16.392  66.031  1.00  0.00    -0.352 C  
HETATM   12  C   UNL     1     -10.479  15.134  66.856  1.00  0.00    -0.282 A  
HETATM   13  F   UNL     1     -12.079  12.777  70.780  1.00  0.00    -0.425 F  
HETATM   14  F   UNL     1     -11.198  14.737  71.094  1.00  0.00    -0.314 F  
HETATM   15  C   UNL     1      -9.858  13.945  66.441  1.00  0.00    -0.304 A  
HETATM   16  F   UNL     1     -13.182  14.565  70.218  1.00  0.00    -0.341 F  
ENDBRANCH   2   3
BRANCH   2  17
HETATM   17  O   UNL     1      -9.477  10.479  67.824  1.00  0.00    -0.147 OA 
BRANCH  17  18
HETATM   18  C   UNL     1     -10.381   9.553  67.174  1.00  0.00    -0.253 C  
HETATM   19  N   UNL     1      -8.936   7.500  67.448  1.00  0.00    -0.126 NA 
HETATM   20  C   UNL     1     -10.278   8.069  67.742  1.00  0.00    -0.222 C  
HETATM   21  O   UNL     1     -10.183   9.530  65.750  1.00  0.00    -0.255 OA 
HETATM   22  C   UNL     1      -8.884   9.013  65.438  1.00  0.00    -0.197 C  
HETATM   23  C   UNL     1      -8.688   7.596  65.990  1.00  0.00    -0.156 C  
BRANCH  19  24
HETATM   24  C   UNL     1      -8.620   6.161  67.975  1.00  0.00    -0.115 C  
BRANCH  24  25
HETATM   25  C   UNL     1      -8.549   5.067  66.925  1.00  0.00    -0.105 C  
HETATM   26  O   UNL     1     -11.321   3.946  64.120  1.00  0.00    -0.267 OA 
HETATM   27  O   UNL     1      -9.244   3.833  62.810  1.00  0.00    -0.097 OA 
HETATM   28  N   UNL     1      -7.418   4.647  66.415  1.00  0.00    -0.081 NA 
HETATM   29  O   UNL     1     -10.193   1.666  63.849  1.00  0.00    -0.119 OA 
HETATM   30  C   UNL     1      -7.778   3.769  65.417  1.00  0.00    -0.082 C  
HETATM   31  O   UNL     1      -7.037   3.337  64.544  1.00  0.00    -0.054 OA 
HETATM   32  P   UNL     1      -9.939   3.117  64.061  1.00  0.00    -0.155 P  
HETATM   33  N   UNL     1      -9.136   3.592  65.444  1.00  0.00    -0.139 N  
HETATM   34  N   UNL     1      -9.672   4.442  66.434  1.00  0.00    -0.198 NA 
ENDBRANCH  24  25
ENDBRANCH  19  24
BRANCH  20  35
HETATM   35  C   UNL     1     -10.721   8.052  69.203  1.00  0.00    -0.121 A  
HETATM   36  C   UNL     1     -10.799   9.149  71.383  1.00  0.00    -0.419 A  
HETATM   37  F   UNL     1     -11.445   7.900  73.278  1.00  0.00    -0.443 F  
HETATM   38  C   UNL     1     -10.537   9.195  70.011  1.00  0.00    -0.250 A  
HETATM   39  C   UNL     1     -11.443   6.826  71.180  1.00  0.00    -0.361 A  
HETATM   40  C   UNL     1     -11.196   6.875  69.804  1.00  0.00    -0.315 A  
HETATM   41  C   UNL     1     -11.235   7.957  71.957  1.00  0.00    -0.287 A  
ENDBRANCH  20  35
ENDBRANCH  17  18
ENDBRANCH   2  17
TORSDOF 6
ENDMDL
MODEL      141
REMARK 921   NORMALIZED FREE ENERGY PREDICTED BY IDOCK:   -6.70 KCAL/MOL
REMARK 922        TOTAL FREE ENERGY PREDICTED BY IDOCK:   -9.95 KCAL/MOL
REMARK 923 INTER-LIGAND FREE ENERGY PREDICTED BY IDOCK:   -9.53 KCAL/MOL
REMARK 924 INTRA-LIGAND FREE ENERGY PREDICTED BY IDOCK:   -0.42 KCAL/MOL
REMARK 927      BINDING AFFINITY PREDICTED BY RF-SCORE:    0.00 PKD
ROOT
HETATM    1  C   UNL     1      -7.219  11.526  67.569  1.00  0.00    -0.111 C  
HETATM    2  C   UNL     1      -8.644  11.126  67.206  1.00  0.00    -0.140 C  
ENDROOT
BRANCH   2   3
HETATM    3  C   UNL     1      -9.615  12.285  67.295  1.00  0.00    -0.187 A  
HETATM    4  F   UNL     1     -12.059  13.063  70.717  1.00  0.00    -0.412 F  
HETATM    5  F   UNL     1     -12.898  14.831  69.775  1.00  0.00    -0.268 F  
HETATM    6  C   UNL     1     -10.187  12.747  66.103  1.00  0.00    -0.286 A  
HETATM    7  C   UNL     1     -11.315  13.564  66.115  1.00  0.00    -0.325 A  
HETATM    8  F   UNL     1     -10.876  14.883  70.571  1.00  0.00    -0.258 F  
HETATM    9  C   UNL     1     -12.048  13.842  64.822  1.00  0.00    -0.419 C  
HETATM   10  C   UNL     1     -11.818  14.008  67.347  1.00  0.00    -0.445 A  
HETATM   11  C   UNL     1     -11.754  14.099  69.889  1.00  0.00    -0.309 C  
HETATM   12  C   UNL     1     -11.206  13.634  68.559  1.00  0.00    -0.310 A  
HETATM   13  F   UNL     1     -11.368  13.429  63.717  1.00  0.00    -0.392 F  
HETATM   14  F   UNL     1     -13.248  13.206  64.779  1.00  0.00    -0.303 F  
HETATM   15  C   UNL     1     -10.106  12.763  68.521  1.00  0.00    -0.189 A  
HETATM   16  F   UNL     1     -12.307  15.162  64.636  1.00  0.00    -0.376 F  
ENDBRANCH   2   3
BRANCH   2  17
HETATM   17  O   UNL     1      -9.088  10.032  68.026  1.00  0.00    -0.131 OA 
BRANCH  17  18
HETATM   18  C   UNL     1     -10.064   9.179  67.380  1.00  0.00    -0.230 C  
HETATM   19  N   UNL     1      -8.809   7.011  67.700  1.00  0.00    -0.120 NA 
HETATM   20  C   UNL     1     -10.098   7.701  67.971  1.00  0.00    -0.187 C  
HETATM   21  O   UNL     1      -9.856   9.116  65.959  1.00  0.00    -0.277 OA 
HETATM   22  C   UNL     1      -8.605   8.482  65.668  1.00  0.00    -0.177 C  
HETATM   23  C   UNL     1      -8.540   7.062  66.243  1.00  0.00    -0.139 C  
BRANCH  19  24
HETATM   24  C   UNL     1      -8.617   5.658  68.249  1.00  0.00    -0.107 C  
BRANCH  24  25
HETATM   25  C   UNL     1      -8.537   4.556  67.208  1.00  0.00    -0.104 C  
HETATM   26  O   UNL     1     -10.833   3.937  63.870  1.00  0.00    -0.267 OA 
HETATM   27  O   UNL     1      -8.590   3.419  63.008  1.00  0.00    -0.088 OA 
HETATM   28  N   UNL     1      -7.423   3.925  66.929  1.00  0.00    -0.072 NA 
HETATM   29  O   UNL     1     -10.118   1.482  63.776  1.00  0.00    -0.129 OA 
HETATM   30  C   UNL     1      -7.728   3.116  65.857  1.00  0.00    -0.081 C  
HETATM   31  O   UNL     1      -6.917   2.542  65.142  1.00  0.00    -0.046 OA 
HETATM   32  P   UNL     1      -9.648   2.863  64.073  1.00  0.00    -0.147 P  
HETATM   33  N   UNL     1      -9.071   3.197  65.602  1.00  0.00    -0.149 N  
HETATM   34  N   UNL     1      -9.631   4.146  66.484  1.00  0.00    -0.193 NA 
ENDBRANCH  24  25
ENDBRANCH  19  24
BRANCH  20  35
HETATM   35  C   UNL     1     -10.554   7.745  69.428  1.00  0.00    -0.211 A  
HETATM   36  C   UNL     1     -10.306   8.669  71.675  1.00  0.00    -0.366 A  
HETATM   37  F   UNL     1     -11.380   7.599  73.483  1.00  0.00    -0.372 F  
HETATM   38  C   UNL     1     -10.013   8.707  70.308  1.00  0.00    -0.204 A  
HETATM   39  C   UNL     1     -11.692   6.718  71.319  1.00  0.00    -0.384 A  
HETATM   40  C   UNL     1     -11.412   6.765  69.950  1.00  0.00    -0.355 A  
HETATM   41  C   UNL     1     -11.133   7.662  72.169  1.00  0.00    -0.267 A  
ENDBRANCH  20  35
ENDBRANCH  17  18
ENDBRANCH   2  17
TORSDOF 6
ENDMDL
MODEL      142
REMARK 921   NORMALIZED FREE ENERGY PREDICTED BY IDOCK:   -6.67 KCAL/MOL
REMARK 922        TOTAL FREE ENERGY PREDICTED BY IDOCK:   -9.92 KCAL/MOL
REMARK 923 INTER-LIGAND FREE ENERGY PREDICTED BY IDOCK:   -7.81 KCAL/MOL
REMARK 924 INTRA-LIGAND FREE ENERGY PREDICTED BY IDOCK:   -2.10 KCAL/MOL
REMARK 927      BINDING AFFINITY PREDICTED BY RF-SCORE:    0.00 PKD
ROOT
HETATM    1  C   UNL     1     -12.653  11.212  70.365  1.00  0.00    -0.328 C  
HETATM    2  C   UNL     1     -11.273  10.572  70.443  1.00  0.00    -0.298 C  
ENDROOT
BRANCH   2   3
HETATM    3  C   UNL     1     -10.463  10.777  69.180  1.00  0.00    -0.243 A  
HETATM    4  F   UNL     1      -6.198  11.084  69.132  1.00  0.00    -0.041 F  
HETATM    5  F   UNL     1      -6.189  11.286  66.970  1.00  0.00    -0.065 F  
HETATM    6  C   UNL     1     -11.069  11.468  68.123  1.00  0.00    -0.303 A  
HETATM    7  C   UNL     1     -10.313  11.986  67.074  1.00  0.00    -0.235 A  
HETATM    8  F   UNL     1      -6.550   9.343  67.876  1.00  0.00    -0.060 F  
HETATM    9  C   UNL     1     -10.958  12.929  66.085  1.00  0.00    -0.281 C  
HETATM   10  C   UNL     1      -8.936  11.718  67.034  1.00  0.00    -0.186 A  
HETATM   11  C   UNL     1      -6.830  10.668  68.002  1.00  0.00    -0.072 C  
HETATM   12  C   UNL     1      -8.317  10.947  68.035  1.00  0.00    -0.122 A  
HETATM   13  F   UNL     1     -12.314  12.993  66.206  1.00  0.00    -0.452 F  
HETATM   14  F   UNL     1     -10.512  14.203  66.241  1.00  0.00    -0.270 F  
HETATM   15  C   UNL     1      -9.091  10.486  69.112  1.00  0.00    -0.177 A  
HETATM   16  F   UNL     1     -10.709  12.591  64.793  1.00  0.00    -0.285 F  
ENDBRANCH   2   3
BRANCH   2  17
HETATM   17  O   UNL     1     -11.380   9.173  70.754  1.00  0.00    -0.258 OA 
BRANCH  17  18
HETATM   18  C   UNL     1     -11.667   8.905  72.148  1.00  0.00    -0.341 C  
HETATM   19  N   UNL     1     -11.285   6.411  72.046  1.00  0.00    -0.266 NA 
HETATM   20  C   UNL     1     -10.861   7.662  72.729  1.00  0.00    -0.360 C  
HETATM   21  O   UNL     1     -13.074   8.704  72.370  1.00  0.00    -0.373 OA 
HETATM   22  C   UNL     1     -13.518   7.519  71.697  1.00  0.00    -0.365 C  
HETATM   23  C   UNL     1     -12.756   6.276  72.172  1.00  0.00     0.104 C  
BRANCH  19  24
HETATM   24  C   UNL     1     -10.586   5.161  72.390  1.00  0.00    -0.221 C  
BRANCH  24  25
HETATM   25  C   UNL     1      -9.850   4.507  71.234  1.00  0.00    -0.190 C  
HETATM   26  O   UNL     1      -9.385   5.787  67.368  1.00  0.00    -0.112 OA 
HETATM   27  O   UNL     1      -7.135   4.929  67.859  1.00  0.00    -0.060 OA 
HETATM   28  N   UNL     1      -8.835   3.698  71.408  1.00  0.00    -0.092 NA 
HETATM   29  O   UNL     1      -8.808   3.414  66.603  1.00  0.00    -0.120 OA 
HETATM   30  C   UNL     1      -8.366   3.434  70.140  1.00  0.00    -0.051 C  
HETATM   31  O   UNL     1      -7.291   2.915  69.871  1.00  0.00    -0.043 OA 
HETATM   32  P   UNL     1      -8.637   4.399  67.705  1.00  0.00    -0.108 P  
HETATM   33  N   UNL     1      -9.207   4.004  69.222  1.00  0.00    -0.137 N  
HETATM   34  N   UNL     1     -10.200   4.722  69.922  1.00  0.00    -0.235 NA 
ENDBRANCH  24  25
ENDBRANCH  19  24
BRANCH  20  35
HETATM   35  C   UNL     1      -9.366   7.973  72.715  1.00  0.00    -0.330 A  
HETATM   36  C   UNL     1      -7.270   8.130  71.473  1.00  0.00    -0.077 A  
HETATM   37  F   UNL     1      -5.240   8.320  72.661  1.00  0.00    -0.035 F  
HETATM   38  C   UNL     1      -8.661   7.995  71.492  1.00  0.00    -0.168 A  
HETATM   39  C   UNL     1      -7.250   8.235  73.889  1.00  0.00    -0.185 A  
HETATM   40  C   UNL     1      -8.642   8.115  73.909  1.00  0.00    -0.288 A  
HETATM   41  C   UNL     1      -6.576   8.233  72.676  1.00  0.00    -0.087 A  
ENDBRANCH  20  35
ENDBRANCH  17  18
ENDBRANCH   2  17
TORSDOF 6
ENDMDL
MODEL      143
REMARK 921   NORMALIZED FREE ENERGY PREDICTED BY IDOCK:   -6.66 KCAL/MOL
REMARK 922        TOTAL FREE ENERGY PREDICTED BY IDOCK:   -9.90 KCAL/MOL
REMARK 923 INTER-LIGAND FREE ENERGY PREDICTED BY IDOCK:  -10.36 KCAL/MOL
REMARK 924 INTRA-LIGAND FREE ENERGY PREDICTED BY IDOCK:    0.46 KCAL/MOL
REMARK 927      BINDING AFFINITY PREDICTED BY RF-SCORE:    0.00 PKD
ROOT
HETATM    1  C   UNL     1      -9.755   8.526  66.292  1.00  0.00    -0.300 C  
HETATM    2  C   UNL     1      -9.691   8.787  67.791  1.00  0.00    -0.158 C  
ENDROOT
BRANCH   2   3
HETATM    3  C   UNL     1     -10.227   7.629  68.608  1.00  0.00    -0.214 A  
HETATM    4  F   UNL     1     -12.512   8.123  72.189  1.00  0.00    -0.309 F  
HETATM    5  F   UNL     1     -12.732   5.972  72.401  1.00  0.00    -0.304 F  
HETATM    6  C   UNL     1      -9.507   6.428  68.583  1.00  0.00    -0.122 A  
HETATM    7  C   UNL     1      -9.727   5.438  69.539  1.00  0.00    -0.238 A  
HETATM    8  F   UNL     1     -13.894   7.039  70.904  1.00  0.00    -0.386 F  
HETATM    9  C   UNL     1      -8.774   4.268  69.633  1.00  0.00    -0.074 C  
HETATM   10  C   UNL     1     -10.759   5.615  70.474  1.00  0.00    -0.344 A  
HETATM   11  C   UNL     1     -12.662   6.972  71.477  1.00  0.00    -0.381 C  
HETATM   12  C   UNL     1     -11.559   6.772  70.462  1.00  0.00    -0.426 A  
HETATM   13  F   UNL     1      -7.903   4.197  68.588  1.00  0.00    -0.070 F  
HETATM   14  F   UNL     1      -8.007   4.336  70.753  1.00  0.00    -0.056 F  
HETATM   15  C   UNL     1     -11.279   7.781  69.526  1.00  0.00     0.097 A  
HETATM   16  F   UNL     1      -9.411   3.070  69.677  1.00  0.00    -0.201 F  
ENDBRANCH   2   3
BRANCH   2  17
HETATM   17  O   UNL     1     -10.382  10.003  68.124  1.00  0.00    -0.173 OA 
BRANCH  17  18
HETATM   18  C   UNL     1      -9.501  11.126  68.369  1.00  0.00    -0.189 C  
HETATM   19  N   UNL     1     -10.893  12.852  67.161  1.00  0.00    -0.253 NA 
HETATM   20  C   UNL     1     -10.267  12.517  68.468  1.00  0.00    -0.203 C  
HETATM   21  O   UNL     1      -8.473  11.221  67.368  1.00  0.00    -0.131 OA 
HETATM   22  C   UNL     1      -9.050  11.514  66.090  1.00  0.00    -0.209 C  
HETATM   23  C   UNL     1      -9.846  12.824  66.112  1.00  0.00    -0.267 C  
BRANCH  19  24
HETATM   24  C   UNL     1     -11.723  14.067  67.079  1.00  0.00    -0.398 C  
BRANCH  24  25
HETATM   25  C   UNL     1     -11.009  15.350  67.465  1.00  0.00    -0.315 C  
HETATM   26  O   UNL     1      -7.627  17.041  65.883  1.00  0.00    -0.354 OA 
HETATM   27  O   UNL     1      -9.049  19.022  66.195  1.00  0.00    -0.422 OA 
HETATM   28  N   UNL     1     -11.628  16.367  68.011  1.00  0.00    -0.067 NA 
HETATM   29  O   UNL     1      -7.286  18.446  67.994  1.00  0.00    -0.236 OA 
HETATM   30  C   UNL     1     -10.684  17.367  68.078  1.00  0.00    -0.359 C  
HETATM   31  O   UNL     1     -10.909  18.549  68.302  1.00  0.00    -0.173 OA 
HETATM   32  P   UNL     1      -8.311  17.898  67.065  1.00  0.00    -0.249 P  
HETATM   33  N   UNL     1      -9.472  16.869  67.676  1.00  0.00    -0.239 N  
HETATM   34  N   UNL     1      -9.661  15.532  67.264  1.00  0.00    -0.218 NA 
ENDBRANCH  24  25
ENDBRANCH  19  24
BRANCH  20  35
HETATM   35  C   UNL     1     -11.192  12.504  69.683  1.00  0.00    -0.090 A  
HETATM   36  C   UNL     1     -12.718  11.277  71.142  1.00  0.00    -0.492 A  
HETATM   37  F   UNL     1     -14.081  12.476  72.650  1.00  0.00    -0.470 F  
HETATM   38  C   UNL     1     -11.756  11.289  70.128  1.00  0.00    -0.429 A  
HETATM   39  C   UNL     1     -12.573  13.687  71.302  1.00  0.00    -0.435 A  
HETATM   40  C   UNL     1     -11.600  13.698  70.298  1.00  0.00    -0.162 A  
HETATM   41  C   UNL     1     -13.129  12.482  71.709  1.00  0.00    -0.347 A  
ENDBRANCH  20  35
ENDBRANCH  17  18
ENDBRANCH   2  17
TORSDOF 6
ENDMDL
MODEL      144
REMARK 921   NORMALIZED FREE ENERGY PREDICTED BY IDOCK:   -6.63 KCAL/MOL
REMARK 922        TOTAL FREE ENERGY PREDICTED BY IDOCK:   -9.86 KCAL/MOL
REMARK 923 INTER-LIGAND FREE ENERGY PREDICTED BY IDOCK:   -8.48 KCAL/MOL
REMARK 924 INTRA-LIGAND FREE ENERGY PREDICTED BY IDOCK:   -1.38 KCAL/MOL
REMARK 927      BINDING AFFINITY PREDICTED BY RF-SCORE:    0.00 PKD
ROOT
HETATM    1  C   UNL     1      -8.163   8.924  70.325  1.00  0.00    -0.134 C  
HETATM    2  C   UNL     1      -8.537   9.976  69.290  1.00  0.00    -0.168 C  
ENDROOT
BRANCH   2   3
HETATM    3  C   UNL     1      -9.962  10.466  69.444  1.00  0.00    -0.240 A  
HETATM    4  F   UNL     1     -11.018  14.597  69.778  1.00  0.00    -0.257 F  
HETATM    5  F   UNL     1     -13.129  14.097  69.886  1.00  0.00    -0.225 F  
HETATM    6  C   UNL     1     -10.875   9.618  70.085  1.00  0.00    -0.325 A  
HETATM    7  C   UNL     1     -12.092  10.100  70.562  1.00  0.00    -0.380 A  
HETATM    8  F   UNL     1     -12.086  13.990  67.982  1.00  0.00    -0.373 F  
HETATM    9  C   UNL     1     -12.940   9.226  71.458  1.00  0.00    -0.359 C  
HETATM   10  C   UNL     1     -12.442  11.434  70.302  1.00  0.00    -0.312 A  
HETATM   11  C   UNL     1     -11.952  13.725  69.310  1.00  0.00    -0.352 C  
HETATM   12  C   UNL     1     -11.583  12.283  69.579  1.00  0.00    -0.366 A  
HETATM   13  F   UNL     1     -12.509   7.936  71.517  1.00  0.00    -0.292 F  
HETATM   14  F   UNL     1     -12.945   9.676  72.740  1.00  0.00    -0.378 F  
HETATM   15  C   UNL     1     -10.338  11.789  69.160  1.00  0.00    -0.008 A  
HETATM   16  F   UNL     1     -14.239   9.173  71.066  1.00  0.00    -0.381 F  
ENDBRANCH   2   3
BRANCH   2  17
HETATM   17  O   UNL     1      -8.316   9.480  67.959  1.00  0.00    -0.117 OA 
BRANCH  17  18
HETATM   18  C   UNL     1      -7.310  10.217  67.222  1.00  0.00    -0.090 C  
HETATM   19  N   UNL     1      -6.873   8.441  65.480  1.00  0.00    -0.069 NA 
HETATM   20  C   UNL     1      -7.278   9.859  65.671  1.00  0.00    -0.113 C  
HETATM   21  O   UNL     1      -5.998  10.025  67.779  1.00  0.00    -0.049 OA 
HETATM   22  C   UNL     1      -5.592   8.659  67.636  1.00  0.00    -0.039 C  
HETATM   23  C   UNL     1      -5.577   8.221  66.167  1.00  0.00    -0.035 C  
BRANCH  19  24
HETATM   24  C   UNL     1      -6.870   7.898  64.110  1.00  0.00    -0.061 C  
BRANCH  24  25
HETATM   25  C   UNL     1      -7.623   6.591  63.945  1.00  0.00    -0.103 C  
HETATM   26  O   UNL     1      -9.528   4.292  66.753  1.00  0.00    -0.157 OA 
HETATM   27  O   UNL     1     -11.128   4.191  64.891  1.00  0.00    -0.240 OA 
HETATM   28  N   UNL     1      -8.215   6.252  62.826  1.00  0.00    -0.075 NA 
HETATM   29  O   UNL     1      -9.448   2.255  65.208  1.00  0.00    -0.079 OA 
HETATM   30  C   UNL     1      -8.892   5.088  63.117  1.00  0.00    -0.038 C  
HETATM   31  O   UNL     1      -9.756   4.572  62.421  1.00  0.00    -0.133 OA 
HETATM   32  P   UNL     1      -9.637   3.730  65.246  1.00  0.00    -0.139 P  
HETATM   33  N   UNL     1      -8.577   4.692  64.390  1.00  0.00    -0.137 N  
HETATM   34  N   UNL     1      -7.738   5.672  64.961  1.00  0.00    -0.089 NA 
ENDBRANCH  24  25
ENDBRANCH  19  24
BRANCH  20  35
HETATM   35  C   UNL     1      -8.594  10.284  65.023  1.00  0.00    -0.190 A  
HETATM   36  C   UNL     1      -9.813  11.015  63.038  1.00  0.00    -0.370 A  
HETATM   37  F   UNL     1     -11.984  11.906  63.283  1.00  0.00    -0.529 F  
HETATM   38  C   UNL     1      -8.662  10.485  63.628  1.00  0.00    -0.184 A  
HETATM   39  C   UNL     1     -10.861  11.151  65.213  1.00  0.00    -0.222 A  
HETATM   40  C   UNL     1      -9.716  10.606  65.803  1.00  0.00    -0.272 A  
HETATM   41  C   UNL     1     -10.897  11.358  63.842  1.00  0.00    -0.393 A  
ENDBRANCH  20  35
ENDBRANCH  17  18
ENDBRANCH   2  17
TORSDOF 6
ENDMDL
MODEL      145
REMARK 921   NORMALIZED FREE ENERGY PREDICTED BY IDOCK:   -6.63 KCAL/MOL
REMARK 922        TOTAL FREE ENERGY PREDICTED BY IDOCK:   -9.86 KCAL/MOL
REMARK 923 INTER-LIGAND FREE ENERGY PREDICTED BY IDOCK:   -8.10 KCAL/MOL
REMARK 924 INTRA-LIGAND FREE ENERGY PREDICTED BY IDOCK:   -1.76 KCAL/MOL
REMARK 927      BINDING AFFINITY PREDICTED BY RF-SCORE:    0.00 PKD
ROOT
HETATM    1  C   UNL     1      -8.326  11.233  69.616  1.00  0.00     0.713 C  
HETATM    2  C   UNL     1      -9.691  11.281  68.942  1.00  0.00    -0.127 C  
ENDROOT
BRANCH   2   3
HETATM    3  C   UNL     1      -9.887  10.163  67.939  1.00  0.00    -0.176 A  
HETATM    4  F   UNL     1      -9.754   6.015  68.969  1.00  0.00    -0.128 F  
HETATM    5  F   UNL     1     -10.182   5.444  66.918  1.00  0.00    -0.160 F  
HETATM    6  C   UNL     1      -9.508  10.407  66.613  1.00  0.00    -0.199 A  
HETATM    7  C   UNL     1      -9.340   9.359  65.710  1.00  0.00    -0.301 A  
HETATM    8  F   UNL     1     -11.770   6.231  68.178  1.00  0.00    -0.247 F  
HETATM    9  C   UNL     1      -8.699   9.629  64.367  1.00  0.00    -0.205 C  
HETATM   10  C   UNL     1      -9.656   8.054  66.117  1.00  0.00    -0.159 A  
HETATM   11  C   UNL     1     -10.455   6.386  67.864  1.00  0.00    -0.222 C  
HETATM   12  C   UNL     1     -10.127   7.794  67.417  1.00  0.00    -0.288 A  
HETATM   13  F   UNL     1      -8.556  10.956  64.094  1.00  0.00    -0.164 F  
HETATM   14  F   UNL     1      -7.450   9.099  64.292  1.00  0.00    -0.099 F  
HETATM   15  C   UNL     1     -10.232   8.858  68.326  1.00  0.00    -0.239 A  
HETATM   16  F   UNL     1      -9.402   9.104  63.331  1.00  0.00    -0.120 F  
ENDBRANCH   2   3
BRANCH   2  17
HETATM   17  O   UNL     1      -9.906  12.560  68.322  1.00  0.00    -0.222 OA 
BRANCH  17  18
HETATM   18  C   UNL     1     -11.265  13.046  68.441  1.00  0.00    -0.269 C  
HETATM   19  N   UNL     1     -10.806  15.389  67.620  1.00  0.00    -0.297 NA 
HETATM   20  C   UNL     1     -11.626  14.173  67.377  1.00  0.00    -0.372 C  
HETATM   21  O   UNL     1     -11.538  13.538  69.764  1.00  0.00    -0.279 OA 
HETATM   22  C   UNL     1     -10.738  14.695  70.038  1.00  0.00    -0.000 C  
HETATM   23  C   UNL     1     -10.996  15.817  69.026  1.00  0.00    -0.262 C  
BRANCH  19  24
HETATM   24  C   UNL     1     -10.937  16.515  66.678  1.00  0.00     0.060 C  
BRANCH  24  25
HETATM   25  C   UNL     1      -9.737  17.443  66.629  1.00  0.00    -0.290 C  
HETATM   26  O   UNL     1      -7.529  19.034  69.693  1.00  0.00    -0.013 OA 
HETATM   27  O   UNL     1      -5.762  18.439  68.092  1.00  0.00    -0.173 OA 
HETATM   28  N   UNL     1      -8.912  17.480  65.612  1.00  0.00    -0.261 NA 
HETATM   29  O   UNL     1      -6.632  20.871  68.155  1.00  0.00    -0.295 OA 
HETATM   30  C   UNL     1      -7.900  18.329  66.002  1.00  0.00    -0.136 C  
HETATM   31  O   UNL     1      -6.818  18.453  65.444  1.00  0.00    -0.496 OA 
HETATM   32  P   UNL     1      -7.010  19.433  68.220  1.00  0.00    -0.305 P  
HETATM   33  N   UNL     1      -8.220  18.882  67.214  1.00  0.00    -0.268 N  
HETATM   34  N   UNL     1      -9.434  18.310  67.652  1.00  0.00    -0.269 NA 
ENDBRANCH  24  25
ENDBRANCH  19  24
BRANCH  20  35
HETATM   35  C   UNL     1     -11.569  13.582  65.970  1.00  0.00    -0.363 A  
HETATM   36  C   UNL     1     -12.608  12.236  64.217  1.00  0.00    -0.470 A  
HETATM   37  F   UNL     1     -11.307  11.543  62.375  1.00  0.00     0.473 F  
HETATM   38  C   UNL     1     -12.691  12.909  65.440  1.00  0.00    -0.313 A  
HETATM   39  C   UNL     1     -10.289  12.895  64.015  1.00  0.00    -0.346 A  
HETATM   40  C   UNL     1     -10.375  13.582  65.230  1.00  0.00    -0.344 A  
HETATM   41  C   UNL     1     -11.400  12.223  63.524  1.00  0.00    -0.470 A  
ENDBRANCH  20  35
ENDBRANCH  17  18
ENDBRANCH   2  17
TORSDOF 6
ENDMDL
MODEL      146
REMARK 921   NORMALIZED FREE ENERGY PREDICTED BY IDOCK:   -6.60 KCAL/MOL
REMARK 922        TOTAL FREE ENERGY PREDICTED BY IDOCK:   -9.81 KCAL/MOL
REMARK 923 INTER-LIGAND FREE ENERGY PREDICTED BY IDOCK:   -8.62 KCAL/MOL
REMARK 924 INTRA-LIGAND FREE ENERGY PREDICTED BY IDOCK:   -1.19 KCAL/MOL
REMARK 927      BINDING AFFINITY PREDICTED BY RF-SCORE:    0.00 PKD
ROOT
HETATM    1  C   UNL     1      -7.124  12.716  67.848  1.00  0.00    -0.113 C  
HETATM    2  C   UNL     1      -8.233  11.921  67.171  1.00  0.00    -0.171 C  
ENDROOT
BRANCH   2   3
HETATM    3  C   UNL     1      -9.564  12.644  67.191  1.00  0.00    -0.207 A  
HETATM    4  F   UNL     1     -11.640  13.870  63.659  1.00  0.00    -0.304 F  
HETATM    5  F   UNL     1     -13.276  14.671  64.842  1.00  0.00    -0.178 F  
HETATM    6  C   UNL     1      -9.846  13.456  68.297  1.00  0.00    -0.235 A  
HETATM    7  C   UNL     1     -10.870  14.401  68.253  1.00  0.00    -0.250 A  
HETATM    8  F   UNL     1     -13.070  12.521  64.591  1.00  0.00    -0.514 F  
HETATM    9  C   UNL     1     -10.990  15.421  69.363  1.00  0.00    -0.276 C  
HETATM   10  C   UNL     1     -11.690  14.461  67.117  1.00  0.00    -0.424 A  
HETATM   11  C   UNL     1     -12.360  13.664  64.795  1.00  0.00    -0.390 C  
HETATM   12  C   UNL     1     -11.487  13.592  66.028  1.00  0.00    -0.340 A  
HETATM   13  F   UNL     1     -10.190  15.152  70.432  1.00  0.00    -0.240 F  
HETATM   14  F   UNL     1     -10.640  16.664  68.940  1.00  0.00    -0.255 F  
HETATM   15  C   UNL     1     -10.412  12.690  66.072  1.00  0.00    -0.288 A  
HETATM   16  F   UNL     1     -12.252  15.524  69.851  1.00  0.00    -0.328 F  
ENDBRANCH   2   3
BRANCH   2  17
HETATM   17  O   UNL     1      -8.358  10.618  67.764  1.00  0.00    -0.114 OA 
BRANCH  17  18
HETATM   18  C   UNL     1      -9.130   9.686  66.969  1.00  0.00    -0.135 C  
HETATM   19  N   UNL     1      -8.126   7.581  67.936  1.00  0.00    -0.118 NA 
HETATM   20  C   UNL     1      -9.405   8.304  67.709  1.00  0.00    -0.138 C  
HETATM   21  O   UNL     1      -8.505   9.429  65.699  1.00  0.00    -0.125 OA 
HETATM   22  C   UNL     1      -7.254   8.758  65.890  1.00  0.00    -0.084 C  
HETATM   23  C   UNL     1      -7.428   7.430  66.637  1.00  0.00    -0.088 C  
BRANCH  19  24
HETATM   24  C   UNL     1      -8.168   6.315  68.689  1.00  0.00    -0.112 C  
BRANCH  24  25
HETATM   25  C   UNL     1      -7.541   6.377  70.070  1.00  0.00    -0.096 C  
HETATM   26  O   UNL     1      -8.513   8.730  73.283  1.00  0.00    -0.366 OA 
HETATM   27  O   UNL     1      -8.093   6.572  74.382  1.00  0.00    -0.114 OA 
HETATM   28  N   UNL     1      -6.933   5.355  70.618  1.00  0.00    -0.054 NA 
HETATM   29  O   UNL     1      -6.209   8.339  74.325  1.00  0.00    -0.106 OA 
HETATM   30  C   UNL     1      -6.633   5.760  71.899  1.00  0.00    -0.058 C  
HETATM   31  O   UNL     1      -6.278   5.030  72.815  1.00  0.00    -0.031 OA 
HETATM   32  P   UNL     1      -7.307   7.694  73.555  1.00  0.00    -0.127 P  
HETATM   33  N   UNL     1      -6.966   7.082  72.042  1.00  0.00    -0.064 N  
HETATM   34  N   UNL     1      -7.571   7.515  70.842  1.00  0.00    -0.080 NA 
ENDBRANCH  24  25
ENDBRANCH  19  24
BRANCH  20  35
HETATM   35  C   UNL     1     -10.278   8.549  68.938  1.00  0.00    -0.221 A  
HETATM   36  C   UNL     1     -11.036  10.056  70.703  1.00  0.00    -0.408 A  
HETATM   37  F   UNL     1     -12.223   9.170  72.540  1.00  0.00    -0.400 F  
HETATM   38  C   UNL     1     -10.364   9.842  69.496  1.00  0.00    -0.248 A  
HETATM   39  C   UNL     1     -11.561   7.698  70.823  1.00  0.00    -0.284 A  
HETATM   40  C   UNL     1     -10.903   7.486  69.608  1.00  0.00    -0.210 A  
HETATM   41  C   UNL     1     -11.615   8.975  71.363  1.00  0.00    -0.326 A  
ENDBRANCH  20  35
ENDBRANCH  17  18
ENDBRANCH   2  17
TORSDOF 6
ENDMDL
MODEL      147
REMARK 921   NORMALIZED FREE ENERGY PREDICTED BY IDOCK:   -6.57 KCAL/MOL
REMARK 922        TOTAL FREE ENERGY PREDICTED BY IDOCK:   -9.77 KCAL/MOL
REMARK 923 INTER-LIGAND FREE ENERGY PREDICTED BY IDOCK:   -7.65 KCAL/MOL
REMARK 924 INTRA-LIGAND FREE ENERGY PREDICTED BY IDOCK:   -2.12 KCAL/MOL
REMARK 927      BINDING AFFINITY PREDICTED BY RF-SCORE:    0.00 PKD
ROOT
HETATM    1  C   UNL     1     -12.569  11.371  70.345  1.00  0.00    -0.267 C  
HETATM    2  C   UNL     1     -11.196  10.861  69.926  1.00  0.00    -0.282 C  
ENDROOT
BRANCH   2   3
HETATM    3  C   UNL     1     -10.790  11.341  68.548  1.00  0.00    -0.245 A  
HETATM    4  F   UNL     1     -13.303  13.731  66.046  1.00  0.00    -0.306 F  
HETATM    5  F   UNL     1     -11.769  13.821  64.511  1.00  0.00    -0.349 F  
HETATM    6  C   UNL     1      -9.895  10.547  67.820  1.00  0.00    -0.188 A  
HETATM    7  C   UNL     1      -9.727  10.726  66.449  1.00  0.00    -0.241 A  
HETATM    8  F   UNL     1     -11.566  15.014  66.317  1.00  0.00    -0.344 F  
HETATM    9  C   UNL     1      -8.946   9.703  65.654  1.00  0.00    -0.169 C  
HETATM   10  C   UNL     1     -10.392  11.787  65.816  1.00  0.00    -0.293 A  
HETATM   11  C   UNL     1     -11.956  13.793  65.861  1.00  0.00    -0.406 C  
HETATM   12  C   UNL     1     -11.226  12.658  66.542  1.00  0.00    -0.342 A  
HETATM   13  F   UNL     1      -8.282   8.806  66.435  1.00  0.00    -0.104 F  
HETATM   14  F   UNL     1      -9.757   8.967  64.851  1.00  0.00    -0.145 F  
HETATM   15  C   UNL     1     -11.425  12.420  67.912  1.00  0.00    -0.385 A  
HETATM   16  F   UNL     1      -8.012  10.265  64.845  1.00  0.00    -0.140 F  
ENDBRANCH   2   3
BRANCH   2  17
HETATM   17  O   UNL     1     -11.146   9.425  69.995  1.00  0.00    -0.236 OA 
BRANCH  17  18
HETATM   18  C   UNL     1     -10.693   8.919  71.275  1.00  0.00    -0.287 C  
HETATM   19  N   UNL     1     -10.087   6.604  70.468  1.00  0.00    -0.187 NA 
HETATM   20  C   UNL     1      -9.554   7.815  71.147  1.00  0.00    -0.158 C  
HETATM   21  O   UNL     1     -11.783   8.389  72.049  1.00  0.00    -0.304 OA 
HETATM   22  C   UNL     1     -12.336   7.236  71.403  1.00  0.00    -0.368 C  
HETATM   23  C   UNL     1     -11.287   6.137  71.203  1.00  0.00    -0.275 C  
BRANCH  19  24
HETATM   24  C   UNL     1      -9.153   5.501  70.180  1.00  0.00    -0.137 C  
BRANCH  24  25
HETATM   25  C   UNL     1      -9.457   4.728  68.910  1.00  0.00    -0.146 C  
HETATM   26  O   UNL     1      -8.878   5.793  64.995  1.00  0.00    -0.094 OA 
HETATM   27  O   UNL     1      -8.164   3.442  64.959  1.00  0.00    -0.093 OA 
HETATM   28  N   UNL     1      -9.478   3.419  68.866  1.00  0.00    -0.163 NA 
HETATM   29  O   UNL     1     -10.567   4.035  64.218  1.00  0.00    -0.242 OA 
HETATM   30  C   UNL     1      -9.648   3.107  67.536  1.00  0.00    -0.041 C  
HETATM   31  O   UNL     1      -9.485   2.003  67.034  1.00  0.00    -0.016 OA 
HETATM   32  P   UNL     1      -9.484   4.314  65.200  1.00  0.00    -0.183 P  
HETATM   33  N   UNL     1      -9.851   4.262  66.826  1.00  0.00    -0.219 N  
HETATM   34  N   UNL     1      -9.729   5.352  67.715  1.00  0.00    -0.129 NA 
ENDBRANCH  24  25
ENDBRANCH  19  24
BRANCH  20  35
HETATM   35  C   UNL     1      -8.303   8.443  70.537  1.00  0.00    -0.126 A  
HETATM   36  C   UNL     1      -6.809  10.363  70.331  1.00  0.00    -0.073 A  
HETATM   37  F   UNL     1      -5.221  10.403  68.586  1.00  0.00    -0.039 F  
HETATM   38  C   UNL     1      -7.862   9.709  70.978  1.00  0.00     0.258 A  
HETATM   39  C   UNL     1      -6.603   8.506  68.795  1.00  0.00    -0.054 A  
HETATM   40  C   UNL     1      -7.645   7.844  69.451  1.00  0.00    -0.103 A  
HETATM   41  C   UNL     1      -6.200   9.759  69.233  1.00  0.00    -0.036 A  
ENDBRANCH  20  35
ENDBRANCH  17  18
ENDBRANCH   2  17
TORSDOF 6
ENDMDL
MODEL      148
REMARK 921   NORMALIZED FREE ENERGY PREDICTED BY IDOCK:   -6.55 KCAL/MOL
REMARK 922        TOTAL FREE ENERGY PREDICTED BY IDOCK:   -9.76 KCAL/MOL
REMARK 923 INTER-LIGAND FREE ENERGY PREDICTED BY IDOCK:   -8.17 KCAL/MOL
REMARK 924 INTRA-LIGAND FREE ENERGY PREDICTED BY IDOCK:   -1.58 KCAL/MOL
REMARK 927      BINDING AFFINITY PREDICTED BY RF-SCORE:    0.00 PKD
ROOT
HETATM    1  C   UNL     1      -7.853   9.744  64.607  1.00  0.00    -0.136 C  
HETATM    2  C   UNL     1      -8.825   9.148  65.617  1.00  0.00    -0.185 C  
ENDROOT
BRANCH   2   3
HETATM    3  C   UNL     1     -10.008  10.052  65.892  1.00  0.00    -0.339 A  
HETATM    4  F   UNL     1     -11.286  13.145  63.230  1.00  0.00    -0.417 F  
HETATM    5  F   UNL     1     -12.935  13.661  64.546  1.00  0.00    -0.232 F  
HETATM    6  C   UNL     1     -10.323  10.322  67.230  1.00  0.00    -0.284 A  
HETATM    7  C   UNL     1     -11.162  11.380  67.572  1.00  0.00    -0.356 A  
HETATM    8  F   UNL     1     -13.042  11.864  63.328  1.00  0.00    -0.661 F  
HETATM    9  C   UNL     1     -11.286  11.795  69.021  1.00  0.00    -0.278 C  
HETATM   10  C   UNL     1     -11.775  12.118  66.549  1.00  0.00    -0.392 A  
HETATM   11  C   UNL     1     -12.197  12.611  64.088  1.00  0.00    -0.450 C  
HETATM   12  C   UNL     1     -11.549  11.809  65.194  1.00  0.00    -0.211 A  
HETATM   13  F   UNL     1     -10.715  10.910  69.886  1.00  0.00    -0.277 F  
HETATM   14  F   UNL     1     -10.679  12.988  69.255  1.00  0.00    -0.211 F  
HETATM   15  C   UNL     1     -10.654  10.775  64.876  1.00  0.00    -0.258 A  
HETATM   16  F   UNL     1     -12.576  11.936  69.421  1.00  0.00    -0.150 F  
ENDBRANCH   2   3
BRANCH   2  17
HETATM   17  O   UNL     1      -8.146   8.819  66.841  1.00  0.00    -0.100 OA 
BRANCH  17  18
HETATM   18  C   UNL     1      -6.982   7.976  66.654  1.00  0.00    -0.072 C  
HETATM   19  N   UNL     1      -7.434   6.429  68.599  1.00  0.00    -0.086 NA 
HETATM   20  C   UNL     1      -7.211   6.474  67.129  1.00  0.00    -0.081 C  
HETATM   21  O   UNL     1      -5.827   8.513  67.320  1.00  0.00    -0.042 OA 
HETATM   22  C   UNL     1      -6.025   8.509  68.739  1.00  0.00    -0.044 C  
HETATM   23  C   UNL     1      -6.295   7.098  69.272  1.00  0.00    -0.035 C  
BRANCH  19  24
HETATM   24  C   UNL     1      -7.751   5.128  69.213  1.00  0.00    -0.076 C  
BRANCH  24  25
HETATM   25  C   UNL     1      -8.904   5.157  70.200  1.00  0.00    -0.115 C  
HETATM   26  O   UNL     1      -9.088   3.767  74.051  1.00  0.00    -0.090 OA 
HETATM   27  O   UNL     1     -10.287   5.903  74.258  1.00  0.00    -0.272 OA 
HETATM   28  N   UNL     1      -9.845   6.067  70.163  1.00  0.00    -0.169 NA 
HETATM   29  O   UNL     1     -11.645   3.725  73.963  1.00  0.00     0.109 OA 
HETATM   30  C   UNL     1     -10.611   5.838  71.284  1.00  0.00    -0.257 C  
HETATM   31  O   UNL     1     -11.444   6.604  71.749  1.00  0.00    -0.262 OA 
HETATM   32  P   UNL     1     -10.438   4.482  73.536  1.00  0.00    -0.267 P  
HETATM   33  N   UNL     1     -10.169   4.698  71.904  1.00  0.00    -0.196 N  
HETATM   34  N   UNL     1      -9.037   4.227  71.205  1.00  0.00    -0.120 NA 
ENDBRANCH  24  25
ENDBRANCH  19  24
BRANCH  20  35
HETATM   35  C   UNL     1      -8.282   5.822  66.257  1.00  0.00    -0.109 A  
HETATM   36  C   UNL     1     -10.601   5.117  65.961  1.00  0.00    -0.236 A  
HETATM   37  F   UNL     1     -11.141   3.653  64.191  1.00  0.00    -0.281 F  
HETATM   38  C   UNL     1      -9.632   5.835  66.668  1.00  0.00    -0.168 A  
HETATM   39  C   UNL     1      -8.905   4.363  64.410  1.00  0.00    -0.149 A  
HETATM   40  C   UNL     1      -7.938   5.093  65.108  1.00  0.00    -0.106 A  
HETATM   41  C   UNL     1     -10.222   4.374  64.845  1.00  0.00    -0.108 A  
ENDBRANCH  20  35
ENDBRANCH  17  18
ENDBRANCH   2  17
TORSDOF 6
ENDMDL
MODEL      149
REMARK 921   NORMALIZED FREE ENERGY PREDICTED BY IDOCK:   -6.55 KCAL/MOL
REMARK 922        TOTAL FREE ENERGY PREDICTED BY IDOCK:   -9.75 KCAL/MOL
REMARK 923 INTER-LIGAND FREE ENERGY PREDICTED BY IDOCK:   -8.81 KCAL/MOL
REMARK 924 INTRA-LIGAND FREE ENERGY PREDICTED BY IDOCK:   -0.94 KCAL/MOL
REMARK 927      BINDING AFFINITY PREDICTED BY RF-SCORE:    0.00 PKD
ROOT
HETATM    1  C   UNL     1      -7.558   8.619  71.954  1.00  0.00    -0.106 C  
HETATM    2  C   UNL     1      -8.901   8.242  71.343  1.00  0.00    -0.162 C  
ENDROOT
BRANCH   2   3
HETATM    3  C   UNL     1      -8.846   6.938  70.573  1.00  0.00    -0.155 A  
HETATM    4  F   UNL     1     -10.852   6.306  66.850  1.00  0.00    -0.312 F  
HETATM    5  F   UNL     1     -10.065   4.286  66.715  1.00  0.00    -0.231 F  
HETATM    6  C   UNL     1      -8.677   5.757  71.307  1.00  0.00    -0.132 A  
HETATM    7  C   UNL     1      -8.944   4.513  70.740  1.00  0.00    -0.161 A  
HETATM    8  F   UNL     1      -8.767   5.984  66.313  1.00  0.00    -0.120 F  
HETATM    9  C   UNL     1      -8.989   3.286  71.621  1.00  0.00    -0.099 C  
HETATM   10  C   UNL     1      -9.288   4.447  69.381  1.00  0.00    -0.225 A  
HETATM   11  C   UNL     1      -9.760   5.546  67.135  1.00  0.00    -0.142 C  
HETATM   12  C   UNL     1      -9.375   5.612  68.596  1.00  0.00    -0.142 A  
HETATM   13  F   UNL     1      -8.526   3.511  72.883  1.00  0.00    -0.078 F  
HETATM   14  F   UNL     1     -10.257   2.820  71.768  1.00  0.00    -0.236 F  
HETATM   15  C   UNL     1      -9.159   6.858  69.207  1.00  0.00    -0.140 A  
HETATM   16  F   UNL     1      -8.256   2.254  71.128  1.00  0.00    -0.048 F  
ENDBRANCH   2   3
BRANCH   2  17
HETATM   17  O   UNL     1      -9.393   9.302  70.505  1.00  0.00    -0.225 OA 
BRANCH  17  18
HETATM   18  C   UNL     1     -10.627   8.978  69.818  1.00  0.00    -0.228 C  
HETATM   19  N   UNL     1     -11.328  11.358  69.350  1.00  0.00    -0.274 NA 
HETATM   20  C   UNL     1     -11.031  10.049  68.712  1.00  0.00    -0.202 C  
HETATM   21  O   UNL     1     -11.718   8.813  70.739  1.00  0.00    -0.279 OA 
HETATM   22  C   UNL     1     -12.009  10.054  71.392  1.00  0.00    -0.383 C  
HETATM   23  C   UNL     1     -12.368  11.155  70.388  1.00  0.00    -0.344 C  
BRANCH  19  24
HETATM   24  C   UNL     1     -11.638  12.502  68.475  1.00  0.00    -0.321 C  
BRANCH  24  25
HETATM   25  C   UNL     1     -11.064  13.829  68.938  1.00  0.00    -0.266 C  
HETATM   26  O   UNL     1      -9.083  16.712  66.802  1.00  0.00    -0.214 OA 
HETATM   27  O   UNL     1     -10.540  18.090  68.223  1.00  0.00    -0.363 OA 
HETATM   28  N   UNL     1     -11.543  14.489  69.963  1.00  0.00    -0.275 NA 
HETATM   29  O   UNL     1      -8.094  17.689  68.950  1.00  0.00    -0.254 OA 
HETATM   30  C   UNL     1     -10.857  15.683  69.973  1.00  0.00    -0.330 C  
HETATM   31  O   UNL     1     -11.162  16.676  70.619  1.00  0.00    -0.245 OA 
HETATM   32  P   UNL     1      -9.311  17.073  68.357  1.00  0.00    -0.279 P  
HETATM   33  N   UNL     1      -9.883  15.649  69.011  1.00  0.00    -0.220 N  
HETATM   34  N   UNL     1      -9.999  14.430  68.310  1.00  0.00    -0.226 NA 
ENDBRANCH  24  25
ENDBRANCH  19  24
BRANCH  20  35
HETATM   35  C   UNL     1      -9.982  10.054  67.602  1.00  0.00    -0.214 A  
HETATM   36  C   UNL     1      -7.977  11.042  66.617  1.00  0.00    -0.156 A  
HETATM   37  F   UNL     1      -7.379  10.469  64.408  1.00  0.00    -0.129 F  
HETATM   38  C   UNL     1      -8.866  10.915  67.689  1.00  0.00    -0.133 A  
HETATM   39  C   UNL     1      -9.284   9.449  65.349  1.00  0.00    -0.305 A  
HETATM   40  C   UNL     1     -10.165   9.310  66.426  1.00  0.00    -0.298 A  
HETATM   41  C   UNL     1      -8.206  10.316  65.450  1.00  0.00    -0.156 A  
ENDBRANCH  20  35
ENDBRANCH  17  18
ENDBRANCH   2  17
TORSDOF 6
ENDMDL
MODEL      150
REMARK 921   NORMALIZED FREE ENERGY PREDICTED BY IDOCK:   -6.53 KCAL/MOL
REMARK 922        TOTAL FREE ENERGY PREDICTED BY IDOCK:   -9.72 KCAL/MOL
REMARK 923 INTER-LIGAND FREE ENERGY PREDICTED BY IDOCK:   -8.64 KCAL/MOL
REMARK 924 INTRA-LIGAND FREE ENERGY PREDICTED BY IDOCK:   -1.08 KCAL/MOL
REMARK 927      BINDING AFFINITY PREDICTED BY RF-SCORE:    0.00 PKD
ROOT
HETATM    1  C   UNL     1      -6.947  10.576  67.218  1.00  0.00    -0.087 C  
HETATM    2  C   UNL     1      -7.757  10.302  68.479  1.00  0.00    -0.091 C  
ENDROOT
BRANCH   2   3
HETATM    3  C   UNL     1      -8.513   8.991  68.414  1.00  0.00    -0.129 A  
HETATM    4  F   UNL     1     -10.379   7.170  71.803  1.00  0.00    -0.196 F  
HETATM    5  F   UNL     1     -11.112   5.533  70.579  1.00  0.00    -0.335 F  
HETATM    6  C   UNL     1      -8.116   8.060  67.446  1.00  0.00    -0.122 A  
HETATM    7  C   UNL     1      -8.516   6.728  67.523  1.00  0.00    -0.121 A  
HETATM    8  F   UNL     1     -12.063   7.485  70.462  1.00  0.00    -0.267 F  
HETATM    9  C   UNL     1      -7.879   5.704  66.611  1.00  0.00    -0.101 C  
HETATM   10  C   UNL     1      -9.412   6.345  68.533  1.00  0.00    -0.120 A  
HETATM   11  C   UNL     1     -10.853   6.871  70.563  1.00  0.00    -0.253 C  
HETATM   12  C   UNL     1      -9.899   7.282  69.464  1.00  0.00    -0.163 A  
HETATM   13  F   UNL     1      -7.119   6.258  65.626  1.00  0.00    -0.058 F  
HETATM   14  F   UNL     1      -7.052   4.870  67.293  1.00  0.00    -0.060 F  
HETATM   15  C   UNL     1      -9.435   8.605  69.400  1.00  0.00    -0.161 A  
HETATM   16  F   UNL     1      -8.790   4.914  65.986  1.00  0.00    -0.118 F  
ENDBRANCH   2   3
BRANCH   2  17
HETATM   17  O   UNL     1      -8.656  11.391  68.750  1.00  0.00    -0.153 OA 
BRANCH  17  18
HETATM   18  C   UNL     1      -9.160  12.041  67.558  1.00  0.00    -0.177 C  
HETATM   19  N   UNL     1     -10.676  13.677  68.742  1.00  0.00    -0.251 NA 
HETATM   20  C   UNL     1      -9.541  13.569  67.788  1.00  0.00    -0.219 C  
HETATM   21  O   UNL     1     -10.296  11.346  67.016  1.00  0.00    -0.209 OA 
HETATM   22  C   UNL     1     -11.398  11.408  67.929  1.00  0.00    -0.303 C  
HETATM   23  C   UNL     1     -11.801  12.854  68.238  1.00  0.00    -0.330 C  
BRANCH  19  24
HETATM   24  C   UNL     1     -11.116  15.023  69.149  1.00  0.00    -0.270 C  
BRANCH  24  25
HETATM   25  C   UNL     1     -10.932  16.097  68.092  1.00  0.00    -0.341 C  
HETATM   26  O   UNL     1      -8.357  19.284  68.017  1.00  0.00    -0.295 OA 
HETATM   27  O   UNL     1      -8.216  18.504  65.691  1.00  0.00    -0.422 OA 
HETATM   28  N   UNL     1     -11.201  15.897  66.826  1.00  0.00    -0.064 NA 
HETATM   29  O   UNL     1      -9.796  20.466  66.263  1.00  0.00    -0.382 OA 
HETATM   30  C   UNL     1     -10.779  17.040  66.184  1.00  0.00    -0.099 C  
HETATM   31  O   UNL     1     -10.630  17.168  64.976  1.00  0.00    -0.704 OA 
HETATM   32  P   UNL     1      -9.280  19.142  66.703  1.00  0.00    -0.356 P  
HETATM   33  N   UNL     1     -10.377  17.957  67.120  1.00  0.00    -0.358 N  
HETATM   34  N   UNL     1     -10.468  17.356  68.393  1.00  0.00    -0.377 NA 
ENDBRANCH  24  25
ENDBRANCH  19  24
BRANCH  20  35
HETATM   35  C   UNL     1      -8.282  14.361  68.134  1.00  0.00    -0.149 A  
HETATM   36  C   UNL     1      -6.721  15.184  69.822  1.00  0.00    -0.180 A  
HETATM   37  F   UNL     1      -5.176  16.868  69.236  1.00  0.00    -0.124 F  
HETATM   38  C   UNL     1      -7.781  14.350  69.453  1.00  0.00     0.061 A  
HETATM   39  C   UNL     1      -6.624  16.052  67.566  1.00  0.00    -0.207 A  
HETATM   40  C   UNL     1      -7.675  15.208  67.193  1.00  0.00    -0.223 A  
HETATM   41  C   UNL     1      -6.163  16.039  68.874  1.00  0.00    -0.126 A  
ENDBRANCH  20  35
ENDBRANCH  17  18
ENDBRANCH   2  17
TORSDOF 6
ENDMDL
MODEL      151
REMARK 921   NORMALIZED FREE ENERGY PREDICTED BY IDOCK:   -6.52 KCAL/MOL
REMARK 922        TOTAL FREE ENERGY PREDICTED BY IDOCK:   -9.71 KCAL/MOL
REMARK 923 INTER-LIGAND FREE ENERGY PREDICTED BY IDOCK:   -8.59 KCAL/MOL
REMARK 924 INTRA-LIGAND FREE ENERGY PREDICTED BY IDOCK:   -1.12 KCAL/MOL
REMARK 927      BINDING AFFINITY PREDICTED BY RF-SCORE:    0.00 PKD
ROOT
HETATM    1  C   UNL     1      -6.850  13.016  67.791  1.00  0.00    -0.144 C  
HETATM    2  C   UNL     1      -8.046  12.242  67.251  1.00  0.00    -0.182 C  
ENDROOT
BRANCH   2   3
HETATM    3  C   UNL     1      -9.338  13.027  67.342  1.00  0.00    -0.209 A  
HETATM    4  F   UNL     1     -11.891  12.990  70.773  1.00  0.00    -0.373 F  
HETATM    5  F   UNL     1     -13.257  14.391  69.830  1.00  0.00    -0.143 F  
HETATM    6  C   UNL     1     -10.032  13.277  66.151  1.00  0.00    -0.295 A  
HETATM    7  C   UNL     1     -11.363  13.687  66.166  1.00  0.00    -0.324 A  
HETATM    8  F   UNL     1     -11.356  15.093  70.617  1.00  0.00    -0.259 F  
HETATM    9  C   UNL     1     -12.151  13.711  64.876  1.00  0.00    -0.397 C  
HETATM   10  C   UNL     1     -11.978  13.951  67.400  1.00  0.00    -0.436 A  
HETATM   11  C   UNL     1     -11.938  14.066  69.941  1.00  0.00    -0.336 C  
HETATM   12  C   UNL     1     -11.274  13.797  68.609  1.00  0.00    -0.308 A  
HETATM   13  F   UNL     1     -11.378  13.535  63.769  1.00  0.00    -0.379 F  
HETATM   14  F   UNL     1     -13.083  12.723  64.839  1.00  0.00    -0.515 F  
HETATM   15  C   UNL     1      -9.952  13.326  68.569  1.00  0.00    -0.189 A  
HETATM   16  F   UNL     1     -12.821  14.877  64.688  1.00  0.00    -0.360 F  
ENDBRANCH   2   3
BRANCH   2  17
HETATM   17  O   UNL     1      -8.176  10.977  67.922  1.00  0.00    -0.114 OA 
BRANCH  17  18
HETATM   18  C   UNL     1      -8.883   9.977  67.149  1.00  0.00    -0.135 C  
HETATM   19  N   UNL     1      -7.333   8.055  67.682  1.00  0.00    -0.091 NA 
HETATM   20  C   UNL     1      -8.748   8.508  67.748  1.00  0.00    -0.137 C  
HETATM   21  O   UNL     1      -8.456   9.970  65.776  1.00  0.00    -0.130 OA 
HETATM   22  C   UNL     1      -7.085   9.565  65.684  1.00  0.00    -0.093 C  
HETATM   23  C   UNL     1      -6.862   8.171  66.281  1.00  0.00    -0.058 C  
BRANCH  19  24
HETATM   24  C   UNL     1      -6.994   6.748  68.271  1.00  0.00    -0.080 C  
BRANCH  24  25
HETATM   25  C   UNL     1      -7.822   5.585  67.755  1.00  0.00    -0.097 C  
HETATM   26  O   UNL     1      -7.184   3.152  64.519  1.00  0.00    -0.059 OA 
HETATM   27  O   UNL     1      -7.935   1.523  66.199  1.00  0.00    -0.069 OA 
HETATM   28  N   UNL     1      -8.584   4.858  68.533  1.00  0.00    -0.093 NA 
HETATM   29  O   UNL     1      -9.645   2.453  64.501  1.00  0.00    -0.142 OA 
HETATM   30  C   UNL     1      -9.048   3.840  67.730  1.00  0.00    -0.157 C  
HETATM   31  O   UNL     1      -9.596   2.817  68.120  1.00  0.00    -0.196 OA 
HETATM   32  P   UNL     1      -8.493   2.782  65.384  1.00  0.00    -0.109 P  
HETATM   33  N   UNL     1      -8.641   4.063  66.442  1.00  0.00    -0.109 N  
HETATM   34  N   UNL     1      -7.825   5.214  66.431  1.00  0.00    -0.102 NA 
ENDBRANCH  24  25
ENDBRANCH  19  24
BRANCH  20  35
HETATM   35  C   UNL     1      -9.418   8.454  69.119  1.00  0.00    -0.155 A  
HETATM   36  C   UNL     1     -11.351   7.855  70.485  1.00  0.00    -0.242 A  
HETATM   37  F   UNL     1     -11.511   8.695  72.684  1.00  0.00    -0.424 F  
HETATM   38  C   UNL     1     -10.653   7.789  69.276  1.00  0.00    -0.199 A  
HETATM   39  C   UNL     1      -9.600   9.240  71.416  1.00  0.00    -0.229 A  
HETATM   40  C   UNL     1      -8.894   9.162  70.212  1.00  0.00    -0.238 A  
HETATM   41  C   UNL     1     -10.823   8.595  71.540  1.00  0.00    -0.282 A  
ENDBRANCH  20  35
ENDBRANCH  17  18
ENDBRANCH   2  17
TORSDOF 6
ENDMDL
MODEL      152
REMARK 921   NORMALIZED FREE ENERGY PREDICTED BY IDOCK:   -6.50 KCAL/MOL
REMARK 922        TOTAL FREE ENERGY PREDICTED BY IDOCK:   -9.69 KCAL/MOL
REMARK 923 INTER-LIGAND FREE ENERGY PREDICTED BY IDOCK:   -8.28 KCAL/MOL
REMARK 924 INTRA-LIGAND FREE ENERGY PREDICTED BY IDOCK:   -1.40 KCAL/MOL
REMARK 927      BINDING AFFINITY PREDICTED BY RF-SCORE:    0.00 PKD
ROOT
HETATM    1  C   UNL     1      -8.080  10.862  68.559  1.00  0.00    -0.137 C  
HETATM    2  C   UNL     1      -9.462  10.759  67.925  1.00  0.00    -0.157 C  
ENDROOT
BRANCH   2   3
HETATM    3  C   UNL     1     -10.119  12.111  67.737  1.00  0.00    -0.203 A  
HETATM    4  F   UNL     1     -12.267  14.144  70.827  1.00  0.00    -0.345 F  
HETATM    5  F   UNL     1     -12.657  15.828  69.512  1.00  0.00    -0.304 F  
HETATM    6  C   UNL     1     -10.572  12.441  66.453  1.00  0.00    -0.271 A  
HETATM    7  C   UNL     1     -11.466  13.490  66.253  1.00  0.00    -0.350 A  
HETATM    8  F   UNL     1     -10.675  15.554  70.365  1.00  0.00    -0.284 F  
HETATM    9  C   UNL     1     -12.121  13.664  64.902  1.00  0.00    -0.397 C  
HETATM   10  C   UNL     1     -11.833  14.287  67.348  1.00  0.00    -0.441 A  
HETATM   11  C   UNL     1     -11.726  14.882  69.820  1.00  0.00    -0.305 C  
HETATM   12  C   UNL     1     -11.320  14.034  68.635  1.00  0.00    -0.307 A  
HETATM   13  F   UNL     1     -11.572  12.880  63.932  1.00  0.00    -0.381 F  
HETATM   14  F   UNL     1     -13.440  13.342  64.938  1.00  0.00    -0.160 F  
HETATM   15  C   UNL     1     -10.467  12.935  68.820  1.00  0.00    -0.183 A  
HETATM   16  F   UNL     1     -12.050  14.940  64.442  1.00  0.00    -0.433 F  
ENDBRANCH   2   3
BRANCH   2  17
HETATM   17  O   UNL     1     -10.309   9.888  68.694  1.00  0.00    -0.180 OA 
BRANCH  17  18
HETATM   18  C   UNL     1      -9.734   9.487  69.962  1.00  0.00    -0.236 C  
HETATM   19  N   UNL     1     -11.063   7.354  70.216  1.00  0.00    -0.262 NA 
HETATM   20  C   UNL     1      -9.684   7.908  70.158  1.00  0.00    -0.179 C  
HETATM   21  O   UNL     1     -10.432  10.080  71.071  1.00  0.00    -0.166 OA 
HETATM   22  C   UNL     1     -11.775   9.586  71.134  1.00  0.00    -0.363 C  
HETATM   23  C   UNL     1     -11.814   8.061  71.280  1.00  0.00    -0.294 C  
BRANCH  19  24
HETATM   24  C   UNL     1     -11.221   5.892  70.307  1.00  0.00    -0.247 C  
BRANCH  24  25
HETATM   25  C   UNL     1     -10.401   5.233  71.401  1.00  0.00    -0.221 C  
HETATM   26  O   UNL     1      -6.683   3.518  71.216  1.00  0.00    -0.029 OA 
HETATM   27  O   UNL     1      -6.541   4.734  73.347  1.00  0.00    -0.060 OA 
HETATM   28  N   UNL     1     -10.524   5.550  72.666  1.00  0.00    -0.204 NA 
HETATM   29  O   UNL     1      -7.124   2.217  73.375  1.00  0.00    -0.030 OA 
HETATM   30  C   UNL     1      -9.531   4.847  73.311  1.00  0.00    -0.123 C  
HETATM   31  O   UNL     1      -9.148   5.039  74.457  1.00  0.00    -0.113 OA 
HETATM   32  P   UNL     1      -7.345   3.518  72.686  1.00  0.00    -0.052 P  
HETATM   33  N   UNL     1      -8.912   4.019  72.412  1.00  0.00    -0.109 N  
HETATM   34  N   UNL     1      -9.470   4.256  71.138  1.00  0.00    -0.151 NA 
ENDBRANCH  24  25
ENDBRANCH  19  24
BRANCH  20  35
HETATM   35  C   UNL     1      -8.747   7.296  69.119  1.00  0.00    -0.136 A  
HETATM   36  C   UNL     1      -6.553   6.382  68.555  1.00  0.00    -0.055 A  
HETATM   37  F   UNL     1      -5.981   6.083  66.286  1.00  0.00    -0.024 F  
HETATM   38  C   UNL     1      -7.481   6.809  69.511  1.00  0.00    -0.093 A  
HETATM   39  C   UNL     1      -8.129   6.907  66.797  1.00  0.00    -0.109 A  
HETATM   40  C   UNL     1      -9.063   7.319  67.752  1.00  0.00    -0.124 A  
HETATM   41  C   UNL     1      -6.884   6.451  67.204  1.00  0.00    -0.066 A  
ENDBRANCH  20  35
ENDBRANCH  17  18
ENDBRANCH   2  17
TORSDOF 6
ENDMDL
MODEL      153
REMARK 921   NORMALIZED FREE ENERGY PREDICTED BY IDOCK:   -6.50 KCAL/MOL
REMARK 922        TOTAL FREE ENERGY PREDICTED BY IDOCK:   -9.68 KCAL/MOL
REMARK 923 INTER-LIGAND FREE ENERGY PREDICTED BY IDOCK:   -6.94 KCAL/MOL
REMARK 924 INTRA-LIGAND FREE ENERGY PREDICTED BY IDOCK:   -2.75 KCAL/MOL
REMARK 927      BINDING AFFINITY PREDICTED BY RF-SCORE:    0.00 PKD
ROOT
HETATM    1  C   UNL     1     -11.499  10.516  68.826  1.00  0.00    -0.291 C  
HETATM    2  C   UNL     1     -10.109  11.137  68.803  1.00  0.00    -0.201 C  
ENDROOT
BRANCH   2   3
HETATM    3  C   UNL     1      -9.898  12.053  67.616  1.00  0.00    -0.191 A  
HETATM    4  F   UNL     1     -10.241  16.311  67.828  1.00  0.00    -0.246 F  
HETATM    5  F   UNL     1      -9.720  16.504  65.728  1.00  0.00    -0.319 F  
HETATM    6  C   UNL     1     -10.194  11.547  66.344  1.00  0.00    -0.261 A  
HETATM    7  C   UNL     1     -10.350  12.396  65.250  1.00  0.00    -0.308 A  
HETATM    8  F   UNL     1      -8.177  16.044  67.189  1.00  0.00    -0.163 F  
HETATM    9  C   UNL     1     -10.904  11.848  63.955  1.00  0.00    -0.395 C  
HETATM   10  C   UNL     1     -10.105  13.767  65.415  1.00  0.00    -0.307 A  
HETATM   11  C   UNL     1      -9.466  15.770  66.848  1.00  0.00    -0.228 C  
HETATM   12  C   UNL     1      -9.716  14.290  66.663  1.00  0.00    -0.297 A  
HETATM   13  F   UNL     1     -10.983  10.488  63.934  1.00  0.00    -0.147 F  
HETATM   14  F   UNL     1     -12.165  12.296  63.720  1.00  0.00    -0.470 F  
HETATM   15  C   UNL     1      -9.623  13.422  67.763  1.00  0.00    -0.213 A  
HETATM   16  F   UNL     1     -10.164  12.201  62.872  1.00  0.00    -0.386 F  
ENDBRANCH   2   3
BRANCH   2  17
HETATM   17  O   UNL     1      -9.097  10.116  68.839  1.00  0.00    -0.146 OA 
BRANCH  17  18
HETATM   18  C   UNL     1      -7.745  10.632  68.771  1.00  0.00    -0.117 C  
HETATM   19  N   UNL     1      -6.589   8.391  68.628  1.00  0.00    -0.054 NA 
HETATM   20  C   UNL     1      -6.757   9.700  67.941  1.00  0.00    -0.066 C  
HETATM   21  O   UNL     1      -7.197  10.857  70.081  1.00  0.00    -0.121 OA 
HETATM   22  C   UNL     1      -7.052   9.614  70.778  1.00  0.00    -0.068 C  
HETATM   23  C   UNL     1      -6.144   8.639  70.020  1.00  0.00    -0.030 C  
BRANCH  19  24
HETATM   24  C   UNL     1      -5.775   7.358  67.964  1.00  0.00    -0.027 C  
BRANCH  24  25
HETATM   25  C   UNL     1      -6.547   6.127  67.526  1.00  0.00    -0.056 C  
HETATM   26  O   UNL     1      -9.953   4.475  69.098  1.00  0.00    -0.178 OA 
HETATM   27  O   UNL     1     -10.392   4.270  66.688  1.00  0.00    -0.120 OA 
HETATM   28  N   UNL     1      -6.543   5.691  66.291  1.00  0.00    -0.053 NA 
HETATM   29  O   UNL     1      -9.444   2.236  67.969  1.00  0.00    -0.207 OA 
HETATM   30  C   UNL     1      -7.455   4.659  66.272  1.00  0.00    -0.082 C  
HETATM   31  O   UNL     1      -7.924   4.140  65.268  1.00  0.00    -0.095 OA 
HETATM   32  P   UNL     1      -9.381   3.713  67.797  1.00  0.00    -0.150 P  
HETATM   33  N   UNL     1      -7.893   4.424  67.548  1.00  0.00    -0.085 N  
HETATM   34  N   UNL     1      -7.306   5.384  68.399  1.00  0.00    -0.071 NA 
ENDBRANCH  24  25
ENDBRANCH  19  24
BRANCH  20  35
HETATM   35  C   UNL     1      -7.206   9.651  66.483  1.00  0.00    -0.090 A  
HETATM   36  C   UNL     1      -8.508   8.566  64.725  1.00  0.00    -0.146 A  
HETATM   37  F   UNL     1      -8.103   9.139  62.473  1.00  0.00    -0.122 F  
HETATM   38  C   UNL     1      -8.192   8.726  66.078  1.00  0.00    -0.118 A  
HETATM   39  C   UNL     1      -6.874  10.253  64.147  1.00  0.00    -0.055 A  
HETATM   40  C   UNL     1      -6.568  10.425  65.500  1.00  0.00    -0.125 A  
HETATM   41  C   UNL     1      -7.832   9.322  63.771  1.00  0.00    -0.133 A  
ENDBRANCH  20  35
ENDBRANCH  17  18
ENDBRANCH   2  17
TORSDOF 6
ENDMDL
MODEL      154
REMARK 921   NORMALIZED FREE ENERGY PREDICTED BY IDOCK:   -6.50 KCAL/MOL
REMARK 922        TOTAL FREE ENERGY PREDICTED BY IDOCK:   -9.68 KCAL/MOL
REMARK 923 INTER-LIGAND FREE ENERGY PREDICTED BY IDOCK:   -6.39 KCAL/MOL
REMARK 924 INTRA-LIGAND FREE ENERGY PREDICTED BY IDOCK:   -3.28 KCAL/MOL
REMARK 927      BINDING AFFINITY PREDICTED BY RF-SCORE:    0.00 PKD
ROOT
HETATM    1  C   UNL     1     -11.071   3.623  73.236  1.00  0.00    -0.252 C  
HETATM    2  C   UNL     1     -10.163   4.743  72.744  1.00  0.00    -0.182 C  
ENDROOT
BRANCH   2   3
HETATM    3  C   UNL     1     -10.831   5.621  71.705  1.00  0.00    -0.301 A  
HETATM    4  F   UNL     1      -9.201   6.338  67.818  1.00  0.00    -0.120 F  
HETATM    5  F   UNL     1     -10.904   7.575  67.280  1.00  0.00    -0.345 F  
HETATM    6  C   UNL     1     -11.630   6.676  72.163  1.00  0.00    -0.335 A  
HETATM    7  C   UNL     1     -12.005   7.716  71.314  1.00  0.00    -0.330 A  
HETATM    8  F   UNL     1     -11.114   5.412  67.353  1.00  0.00    -0.228 F  
HETATM    9  C   UNL     1     -12.654   8.953  71.892  1.00  0.00    -0.377 C  
HETATM   10  C   UNL     1     -11.657   7.642  69.957  1.00  0.00     0.075 A  
HETATM   11  C   UNL     1     -10.544   6.470  67.992  1.00  0.00    -0.251 C  
HETATM   12  C   UNL     1     -10.933   6.545  69.451  1.00  0.00    -0.395 A  
HETATM   13  F   UNL     1     -13.015   8.812  73.198  1.00  0.00    -0.340 F  
HETATM   14  F   UNL     1     -11.818  10.023  71.851  1.00  0.00    -0.437 F  
HETATM   15  C   UNL     1     -10.517   5.541  70.339  1.00  0.00    -0.356 A  
HETATM   16  F   UNL     1     -13.779   9.318  71.225  1.00  0.00    -0.401 F  
ENDBRANCH   2   3
BRANCH   2  17
HETATM   17  O   UNL     1      -8.929   4.210  72.236  1.00  0.00    -0.112 OA 
BRANCH  17  18
HETATM   18  C   UNL     1      -7.765   4.597  73.007  1.00  0.00    -0.088 C  
HETATM   19  N   UNL     1      -6.116   4.521  71.096  1.00  0.00    -0.017 NA 
HETATM   20  C   UNL     1      -6.684   5.396  72.156  1.00  0.00    -0.061 C  
HETATM   21  O   UNL     1      -7.137   3.460  73.625  1.00  0.00    -0.046 OA 
HETATM   22  C   UNL     1      -6.606   2.582  72.625  1.00  0.00    -0.018 C  
HETATM   23  C   UNL     1      -5.583   3.292  71.730  1.00  0.00    -0.008 C  
BRANCH  19  24
HETATM   24  C   UNL     1      -5.157   5.112  70.147  1.00  0.00    -0.004 C  
BRANCH  24  25
HETATM   25  C   UNL     1      -5.446   4.816  68.686  1.00  0.00    -0.012 C  
HETATM   26  O   UNL     1      -8.135   2.207  67.026  1.00  0.00    -0.072 OA 
HETATM   27  O   UNL     1      -8.393   4.158  65.553  1.00  0.00    -0.108 OA 
HETATM   28  N   UNL     1      -5.250   5.694  67.734  1.00  0.00    -0.004 NA 
HETATM   29  O   UNL     1      -6.852   2.221  64.812  1.00  0.00    -0.043 OA 
HETATM   30  C   UNL     1      -5.753   5.106  66.595  1.00  0.00    -0.018 C  
HETATM   31  O   UNL     1      -5.981   5.677  65.537  1.00  0.00    -0.024 OA 
HETATM   32  P   UNL     1      -7.292   3.067  65.954  1.00  0.00    -0.073 P  
HETATM   33  N   UNL     1      -6.129   3.820  66.882  1.00  0.00    -0.024 N  
HETATM   34  N   UNL     1      -5.935   3.603  68.263  1.00  0.00    -0.026 NA 
ENDBRANCH  24  25
ENDBRANCH  19  24
BRANCH  20  35
HETATM   35  C   UNL     1      -7.279   6.725  71.696  1.00  0.00    -0.080 A  
HETATM   36  C   UNL     1      -8.617   8.706  72.192  1.00  0.00    -0.190 A  
HETATM   37  F   UNL     1      -9.330  10.088  70.417  1.00  0.00    -0.264 F  
HETATM   38  C   UNL     1      -7.939   7.561  72.621  1.00  0.00    -0.120 A  
HETATM   39  C   UNL     1      -7.986   8.219  69.908  1.00  0.00    -0.108 A  
HETATM   40  C   UNL     1      -7.295   7.082  70.338  1.00  0.00    -0.083 A  
HETATM   41  C   UNL     1      -8.646   9.015  70.834  1.00  0.00    -0.215 A  
ENDBRANCH  20  35
ENDBRANCH  17  18
ENDBRANCH   2  17
TORSDOF 6
ENDMDL
MODEL      155
REMARK 921   NORMALIZED FREE ENERGY PREDICTED BY IDOCK:   -6.45 KCAL/MOL
REMARK 922        TOTAL FREE ENERGY PREDICTED BY IDOCK:   -9.61 KCAL/MOL
REMARK 923 INTER-LIGAND FREE ENERGY PREDICTED BY IDOCK:   -8.54 KCAL/MOL
REMARK 924 INTRA-LIGAND FREE ENERGY PREDICTED BY IDOCK:   -1.07 KCAL/MOL
REMARK 927      BINDING AFFINITY PREDICTED BY RF-SCORE:    0.00 PKD
ROOT
HETATM    1  C   UNL     1      -8.182  11.715  68.673  1.00  0.00    -0.110 C  
HETATM    2  C   UNL     1      -9.213  11.206  67.673  1.00  0.00    -0.151 C  
ENDROOT
BRANCH   2   3
HETATM    3  C   UNL     1     -10.111  12.308  67.149  1.00  0.00    -0.218 A  
HETATM    4  F   UNL     1     -11.326  12.620  63.061  1.00  0.00    -0.504 F  
HETATM    5  F   UNL     1     -12.513  14.385  63.499  1.00  0.00    -0.413 F  
HETATM    6  C   UNL     1     -10.066  13.548  67.799  1.00  0.00    -0.236 A  
HETATM    7  C   UNL     1     -10.589  14.692  67.202  1.00  0.00    -0.282 A  
HETATM    8  F   UNL     1     -13.230  12.420  64.095  1.00  0.00    -0.409 F  
HETATM    9  C   UNL     1     -10.309  16.047  67.813  1.00  0.00    -0.279 C  
HETATM   10  C   UNL     1     -11.260  14.572  65.975  1.00  0.00    -0.337 A  
HETATM   11  C   UNL     1     -12.110  13.190  64.015  1.00  0.00    -0.446 C  
HETATM   12  C   UNL     1     -11.400  13.321  65.345  1.00  0.00    -0.317 A  
HETATM   13  F   UNL     1      -9.743  15.973  69.050  1.00  0.00    -0.196 F  
HETATM   14  F   UNL     1      -9.448  16.772  67.053  1.00  0.00    -0.218 F  
HETATM   15  C   UNL     1     -10.813  12.193  65.938  1.00  0.00    -0.316 A  
HETATM   16  F   UNL     1     -11.427  16.804  67.954  1.00  0.00    -0.242 F  
ENDBRANCH   2   3
BRANCH   2  17
HETATM   17  O   UNL     1      -9.997  10.147  68.248  1.00  0.00    -0.143 OA 
BRANCH  17  18
HETATM   18  C   UNL     1      -9.328   9.445  69.325  1.00  0.00    -0.167 C  
HETATM   19  N   UNL     1     -10.820   7.408  69.310  1.00  0.00    -0.183 NA 
HETATM   20  C   UNL     1      -9.409   7.861  69.189  1.00  0.00    -0.154 C  
HETATM   21  O   UNL     1      -9.838   9.838  70.610  1.00  0.00    -0.244 OA 
HETATM   22  C   UNL     1     -11.208   9.440  70.744  1.00  0.00    -0.302 C  
HETATM   23  C   UNL     1     -11.378   7.924  70.583  1.00  0.00    -0.259 C  
BRANCH  19  24
HETATM   24  C   UNL     1     -11.108   5.975  69.123  1.00  0.00    -0.335 C  
BRANCH  24  25
HETATM   25  C   UNL     1     -10.308   5.046  70.018  1.00  0.00    -0.233 C  
HETATM   26  O   UNL     1     -11.293   3.415  73.646  1.00  0.00    -0.220 OA 
HETATM   27  O   UNL     1     -10.220   1.500  72.540  1.00  0.00    -0.116 OA 
HETATM   28  N   UNL     1      -9.402   4.222  69.553  1.00  0.00    -0.145 NA 
HETATM   29  O   UNL     1      -8.829   2.954  74.161  1.00  0.00    -0.075 OA 
HETATM   30  C   UNL     1      -9.011   3.469  70.637  1.00  0.00    -0.095 C  
HETATM   31  O   UNL     1      -8.360   2.434  70.591  1.00  0.00    -0.048 OA 
HETATM   32  P   UNL     1      -9.853   2.962  73.081  1.00  0.00    -0.120 P  
HETATM   33  N   UNL     1      -9.616   3.959  71.765  1.00  0.00    -0.148 N  
HETATM   34  N   UNL     1     -10.482   5.005  71.381  1.00  0.00    -0.181 NA 
ENDBRANCH  24  25
ENDBRANCH  19  24
BRANCH  20  35
HETATM   35  C   UNL     1      -8.656   7.418  67.937  1.00  0.00    -0.125 A  
HETATM   36  C   UNL     1      -8.655   6.989  65.533  1.00  0.00    -0.091 A  
HETATM   37  F   UNL     1      -6.863   5.784  64.581  1.00  0.00    -0.045 F  
HETATM   38  C   UNL     1      -9.268   7.525  66.670  1.00  0.00    -0.201 A  
HETATM   39  C   UNL     1      -6.801   6.236  66.893  1.00  0.00    -0.062 A  
HETATM   40  C   UNL     1      -7.406   6.785  68.027  1.00  0.00    -0.097 A  
HETATM   41  C   UNL     1      -7.431   6.335  65.661  1.00  0.00    -0.082 A  
ENDBRANCH  20  35
ENDBRANCH  17  18
ENDBRANCH   2  17
TORSDOF 6
ENDMDL
MODEL      156
REMARK 921   NORMALIZED FREE ENERGY PREDICTED BY IDOCK:   -6.43 KCAL/MOL
REMARK 922        TOTAL FREE ENERGY PREDICTED BY IDOCK:   -9.59 KCAL/MOL
REMARK 923 INTER-LIGAND FREE ENERGY PREDICTED BY IDOCK:   -9.95 KCAL/MOL
REMARK 924 INTRA-LIGAND FREE ENERGY PREDICTED BY IDOCK:    0.36 KCAL/MOL
REMARK 927      BINDING AFFINITY PREDICTED BY RF-SCORE:    0.00 PKD
ROOT
HETATM    1  C   UNL     1      -7.323  14.447  67.537  1.00  0.00    -0.208 C  
HETATM    2  C   UNL     1      -8.679  15.096  67.286  1.00  0.00    -0.202 C  
ENDROOT
BRANCH   2   3
HETATM    3  C   UNL     1      -8.726  16.541  67.737  1.00  0.00    -0.197 A  
HETATM    4  F   UNL     1     -10.583  19.661  65.477  1.00  0.00    -0.541 F  
HETATM    5  F   UNL     1     -10.103  21.122  67.011  1.00  0.00    -0.473 F  
HETATM    6  C   UNL     1      -7.680  17.004  68.546  1.00  0.00    -0.238 A  
HETATM    7  C   UNL     1      -7.463  18.368  68.730  1.00  0.00    -0.298 A  
HETATM    8  F   UNL     1     -11.715  19.700  67.336  1.00  0.00    -0.175 F  
HETATM    9  C   UNL     1      -6.192  18.837  69.401  1.00  0.00    -0.270 C  
HETATM   10  C   UNL     1      -8.373  19.281  68.175  1.00  0.00    -0.358 A  
HETATM   11  C   UNL     1     -10.460  19.820  66.823  1.00  0.00    -0.489 C  
HETATM   12  C   UNL     1      -9.486  18.839  67.435  1.00  0.00    -0.324 A  
HETATM   13  F   UNL     1      -5.480  17.826  69.972  1.00  0.00    -0.184 F  
HETATM   14  F   UNL     1      -5.349  19.433  68.519  1.00  0.00    -0.184 F  
HETATM   15  C   UNL     1      -9.649  17.462  67.214  1.00  0.00    -0.258 A  
HETATM   16  F   UNL     1      -6.419  19.743  70.387  1.00  0.00    -0.337 F  
ENDBRANCH   2   3
BRANCH   2  17
HETATM   17  O   UNL     1      -9.727  14.337  67.912  1.00  0.00    -0.213 OA 
BRANCH  17  18
HETATM   18  C   UNL     1     -10.900  14.165  67.079  1.00  0.00    -0.295 C  
HETATM   19  N   UNL     1     -10.543  11.715  66.584  1.00  0.00    -0.233 NA 
HETATM   20  C   UNL     1     -11.509  12.696  67.146  1.00  0.00    -0.346 C  
HETATM   21  O   UNL     1     -10.629  14.505  65.708  1.00  0.00    -0.291 OA 
HETATM   22  C   UNL     1      -9.678  13.592  65.149  1.00  0.00     0.057 C  
HETATM   23  C   UNL     1     -10.173  12.142  65.214  1.00  0.00    -0.274 C  
BRANCH  19  24
HETATM   24  C   UNL     1     -10.895  10.285  66.640  1.00  0.00    -0.045 C  
BRANCH  24  25
HETATM   25  C   UNL     1      -9.810   9.386  67.204  1.00  0.00    -0.187 C  
HETATM   26  O   UNL     1      -8.990   8.399  71.097  1.00  0.00    -0.142 OA 
HETATM   27  O   UNL     1      -8.690   6.229  69.982  1.00  0.00    -0.138 OA 
HETATM   28  N   UNL     1      -9.289   8.394  66.525  1.00  0.00    -0.186 NA 
HETATM   29  O   UNL     1      -6.614   7.689  70.465  1.00  0.00    -0.038 OA 
HETATM   30  C   UNL     1      -8.459   7.748  67.415  1.00  0.00    -0.119 C  
HETATM   31  O   UNL     1      -7.967   6.639  67.256  1.00  0.00    -0.113 OA 
HETATM   32  P   UNL     1      -8.032   7.688  70.012  1.00  0.00    -0.117 P  
HETATM   33  N   UNL     1      -8.413   8.460  68.584  1.00  0.00    -0.127 N  
HETATM   34  N   UNL     1      -9.301   9.551  68.471  1.00  0.00    -0.137 NA 
ENDBRANCH  24  25
ENDBRANCH  19  24
BRANCH  20  35
HETATM   35  C   UNL     1     -12.018  12.420  68.558  1.00  0.00    -0.273 A  
HETATM   36  C   UNL     1     -12.429  13.213  70.831  1.00  0.00    -0.407 A  
HETATM   37  F   UNL     1     -12.918  11.646  72.526  1.00  0.00    -0.389 F  
HETATM   38  C   UNL     1     -12.108  13.472  69.495  1.00  0.00    -0.352 A  
HETATM   39  C   UNL     1     -12.590  10.852  70.331  1.00  0.00    -0.376 A  
HETATM   40  C   UNL     1     -12.284  11.111  68.992  1.00  0.00    -0.194 A  
HETATM   41  C   UNL     1     -12.652  11.900  71.238  1.00  0.00    -0.277 A  
ENDBRANCH  20  35
ENDBRANCH  17  18
ENDBRANCH   2  17
TORSDOF 6
ENDMDL
MODEL      157
REMARK 921   NORMALIZED FREE ENERGY PREDICTED BY IDOCK:   -6.42 KCAL/MOL
REMARK 922        TOTAL FREE ENERGY PREDICTED BY IDOCK:   -9.57 KCAL/MOL
REMARK 923 INTER-LIGAND FREE ENERGY PREDICTED BY IDOCK:   -7.69 KCAL/MOL
REMARK 924 INTRA-LIGAND FREE ENERGY PREDICTED BY IDOCK:   -1.88 KCAL/MOL
REMARK 927      BINDING AFFINITY PREDICTED BY RF-SCORE:    0.00 PKD
ROOT
HETATM    1  C   UNL     1      -5.463   7.521  67.823  1.00  0.00    -0.030 C  
HETATM    2  C   UNL     1      -6.850   7.376  68.436  1.00  0.00    -0.063 C  
ENDROOT
BRANCH   2   3
HETATM    3  C   UNL     1      -7.394   5.967  68.324  1.00  0.00    -0.081 A  
HETATM    4  F   UNL     1      -9.804   4.616  65.061  1.00  0.00    -0.173 F  
HETATM    5  F   UNL     1      -9.913   2.619  65.907  1.00  0.00     0.161 F  
HETATM    6  C   UNL     1      -7.651   5.273  69.514  1.00  0.00    -0.069 A  
HETATM    7  C   UNL     1      -8.445   4.129  69.522  1.00  0.00    -0.093 A  
HETATM    8  F   UNL     1      -8.083   3.290  64.944  1.00  0.00    -0.086 F  
HETATM    9  C   UNL     1      -8.903   3.548  70.841  1.00  0.00    -0.083 C  
HETATM   10  C   UNL     1      -8.906   3.614  68.300  1.00  0.00    -0.151 A  
HETATM   11  C   UNL     1      -9.090   3.696  65.764  1.00  0.00    -0.152 C  
HETATM   12  C   UNL     1      -8.584   4.240  67.081  1.00  0.00    -0.104 A  
HETATM   13  F   UNL     1      -8.280   4.101  71.918  1.00  0.00    -0.083 F  
HETATM   14  F   UNL     1     -10.233   3.744  71.040  1.00  0.00    -0.225 F  
HETATM   15  C   UNL     1      -7.831   5.424  67.105  1.00  0.00    -0.101 A  
HETATM   16  F   UNL     1      -8.695   2.209  70.928  1.00  0.00    -0.073 F  
ENDBRANCH   2   3
BRANCH   2  17
HETATM   17  O   UNL     1      -7.764   8.318  67.850  1.00  0.00    -0.100 OA 
BRANCH  17  18
HETATM   18  C   UNL     1      -7.878   9.559  68.589  1.00  0.00    -0.084 C  
HETATM   19  N   UNL     1      -9.923  10.424  67.386  1.00  0.00    -0.181 NA 
HETATM   20  C   UNL     1      -9.377  10.075  68.725  1.00  0.00    -0.162 C  
HETATM   21  O   UNL     1      -7.069  10.597  68.009  1.00  0.00    -0.082 OA 
HETATM   22  C   UNL     1      -7.555  10.933  66.703  1.00  0.00    -0.139 C  
HETATM   23  C   UNL     1      -9.014  11.402  66.742  1.00  0.00    -0.176 C  
BRANCH  19  24
HETATM   24  C   UNL     1     -11.333  10.841  67.298  1.00  0.00    -0.093 C  
BRANCH  24  25
HETATM   25  C   UNL     1     -11.542  12.328  67.076  1.00  0.00    -0.349 C  
HETATM   26  O   UNL     1      -9.068  15.478  67.943  1.00  0.00    -0.174 OA 
HETATM   27  O   UNL     1      -9.919  16.136  65.733  1.00  0.00    -0.326 OA 
HETATM   28  N   UNL     1     -12.310  12.800  66.126  1.00  0.00    -0.531 NA 
HETATM   29  O   UNL     1     -11.036  17.110  67.849  1.00  0.00    -0.288 OA 
HETATM   30  C   UNL     1     -12.129  14.165  66.164  1.00  0.00    -0.435 C  
HETATM   31  O   UNL     1     -12.477  14.956  65.297  1.00  0.00    -0.131 OA 
HETATM   32  P   UNL     1     -10.450  15.894  67.224  1.00  0.00    -0.306 P  
HETATM   33  N   UNL     1     -11.339  14.483  67.237  1.00  0.00    -0.336 N  
HETATM   34  N   UNL     1     -10.936  13.282  67.858  1.00  0.00    -0.242 NA 
ENDBRANCH  24  25
ENDBRANCH  19  24
BRANCH  20  35
HETATM   35  C   UNL     1     -10.186   9.079  69.552  1.00  0.00    -0.205 A  
HETATM   36  C   UNL     1     -11.156   8.438  71.700  1.00  0.00    -0.344 A  
HETATM   37  F   UNL     1     -11.942   6.232  71.994  1.00  0.00    -0.342 F  
HETATM   38  C   UNL     1     -10.547   9.393  70.880  1.00  0.00    -0.390 A  
HETATM   39  C   UNL     1     -11.071   6.836  69.889  1.00  0.00    -0.374 A  
HETATM   40  C   UNL     1     -10.475   7.795  69.064  1.00  0.00    -0.215 A  
HETATM   41  C   UNL     1     -11.398   7.161  71.198  1.00  0.00    -0.275 A  
ENDBRANCH  20  35
ENDBRANCH  17  18
ENDBRANCH   2  17
TORSDOF 6
ENDMDL
MODEL      158
REMARK 921   NORMALIZED FREE ENERGY PREDICTED BY IDOCK:   -6.41 KCAL/MOL
REMARK 922        TOTAL FREE ENERGY PREDICTED BY IDOCK:   -9.57 KCAL/MOL
REMARK 923 INTER-LIGAND FREE ENERGY PREDICTED BY IDOCK:   -7.50 KCAL/MOL
REMARK 924 INTRA-LIGAND FREE ENERGY PREDICTED BY IDOCK:   -2.07 KCAL/MOL
REMARK 927      BINDING AFFINITY PREDICTED BY RF-SCORE:    0.00 PKD
ROOT
HETATM    1  C   UNL     1     -10.620  13.206  68.739  1.00  0.00    -0.225 C  
HETATM    2  C   UNL     1     -10.219  11.802  68.304  1.00  0.00    -0.205 C  
ENDROOT
BRANCH   2   3
HETATM    3  C   UNL     1     -10.127  11.661  66.799  1.00  0.00    -0.242 A  
HETATM    4  F   UNL     1     -13.528  11.738  64.207  1.00  0.00    -0.317 F  
HETATM    5  F   UNL     1     -12.258  11.520  62.458  1.00  0.00     0.065 F  
HETATM    6  C   UNL     1      -9.065  10.910  66.280  1.00  0.00    -0.192 A  
HETATM    7  C   UNL     1      -9.082  10.454  64.964  1.00  0.00    -0.237 A  
HETATM    8  F   UNL     1     -12.362  13.430  63.491  1.00  0.00    -0.519 F  
HETATM    9  C   UNL     1      -8.048   9.448  64.510  1.00  0.00    -0.136 C  
HETATM   10  C   UNL     1     -10.136  10.844  64.124  1.00  0.00    -0.416 A  
HETATM   11  C   UNL     1     -12.315  12.086  63.697  1.00  0.00    -0.539 C  
HETATM   12  C   UNL     1     -11.170  11.675  64.595  1.00  0.00    -0.320 A  
HETATM   13  F   UNL     1      -7.043   9.265  65.411  1.00  0.00    -0.081 F  
HETATM   14  F   UNL     1      -8.596   8.221  64.309  1.00  0.00    -0.141 F  
HETATM   15  C   UNL     1     -11.160  12.073  65.941  1.00  0.00    -0.369 A  
HETATM   16  F   UNL     1      -7.450   9.797  63.342  1.00  0.00    -0.109 F  
ENDBRANCH   2   3
BRANCH   2  17
HETATM   17  O   UNL     1     -11.122  10.825  68.849  1.00  0.00    -0.216 OA 
BRANCH  17  18
HETATM   18  C   UNL     1     -10.917  10.563  70.259  1.00  0.00    -0.235 C  
HETATM   19  N   UNL     1     -11.980   8.272  70.282  1.00  0.00     0.183 NA 
HETATM   20  C   UNL     1     -10.730   9.017  70.590  1.00  0.00    -0.239 C  
HETATM   21  O   UNL     1     -11.988  11.093  71.058  1.00  0.00    -0.293 OA 
HETATM   22  C   UNL     1     -13.213  10.413  70.760  1.00  0.00    -0.196 C  
HETATM   23  C   UNL     1     -13.103   8.905  71.013  1.00  0.00     0.022 C  
BRANCH  19  24
HETATM   24  C   UNL     1     -11.973   6.808  70.443  1.00  0.00    -0.285 C  
BRANCH  24  25
HETATM   25  C   UNL     1     -11.016   6.291  71.502  1.00  0.00    -0.271 C  
HETATM   26  O   UNL     1      -7.117   5.081  71.142  1.00  0.00    -0.049 OA 
HETATM   27  O   UNL     1      -7.027   6.358  73.240  1.00  0.00    -0.077 OA 
HETATM   28  N   UNL     1     -11.114   6.620  72.766  1.00  0.00    -0.257 NA 
HETATM   29  O   UNL     1      -7.266   3.787  73.344  1.00  0.00    -0.059 OA 
HETATM   30  C   UNL     1     -10.003   6.071  73.367  1.00  0.00    -0.182 C  
HETATM   31  O   UNL     1      -9.591   6.341  74.487  1.00  0.00    -0.206 OA 
HETATM   32  P   UNL     1      -7.694   5.030  72.646  1.00  0.00    -0.099 P  
HETATM   33  N   UNL     1      -9.327   5.311  72.450  1.00  0.00    -0.140 N  
HETATM   34  N   UNL     1      -9.978   5.440  71.204  1.00  0.00    -0.187 NA 
ENDBRANCH  24  25
ENDBRANCH  19  24
BRANCH  20  35
HETATM   35  C   UNL     1      -9.452   8.506  69.931  1.00  0.00    -0.163 A  
HETATM   36  C   UNL     1      -7.017   8.320  69.943  1.00  0.00    -0.044 A  
HETATM   37  F   UNL     1      -5.909   7.590  67.992  1.00  0.00    -0.026 F  
HETATM   38  C   UNL     1      -8.212   8.646  70.591  1.00  0.00    -0.147 A  
HETATM   39  C   UNL     1      -8.263   7.697  67.966  1.00  0.00    -0.124 A  
HETATM   40  C   UNL     1      -9.460   8.008  68.618  1.00  0.00    -0.147 A  
HETATM   41  C   UNL     1      -7.055   7.863  68.628  1.00  0.00    -0.076 A  
ENDBRANCH  20  35
ENDBRANCH  17  18
ENDBRANCH   2  17
TORSDOF 6
ENDMDL
MODEL      159
REMARK 921   NORMALIZED FREE ENERGY PREDICTED BY IDOCK:   -6.41 KCAL/MOL
REMARK 922        TOTAL FREE ENERGY PREDICTED BY IDOCK:   -9.55 KCAL/MOL
REMARK 923 INTER-LIGAND FREE ENERGY PREDICTED BY IDOCK:   -8.41 KCAL/MOL
REMARK 924 INTRA-LIGAND FREE ENERGY PREDICTED BY IDOCK:   -1.14 KCAL/MOL
REMARK 927      BINDING AFFINITY PREDICTED BY RF-SCORE:    0.00 PKD
ROOT
HETATM    1  C   UNL     1      -8.619  14.685  69.273  1.00  0.00     0.035 C  
HETATM    2  C   UNL     1      -8.308  14.989  67.813  1.00  0.00    -0.150 C  
ENDROOT
BRANCH   2   3
HETATM    3  C   UNL     1      -8.187  16.474  67.539  1.00  0.00    -0.170 A  
HETATM    4  F   UNL     1      -6.478  19.254  70.303  1.00  0.00    -0.246 F  
HETATM    5  F   UNL     1      -6.781  20.895  68.913  1.00  0.00    -0.216 F  
HETATM    6  C   UNL     1      -9.142  17.060  66.699  1.00  0.00    -0.278 A  
HETATM    7  C   UNL     1      -9.310  18.442  66.655  1.00  0.00    -0.305 A  
HETATM    8  F   UNL     1      -5.178  19.466  68.571  1.00  0.00    -0.181 F  
HETATM    9  C   UNL     1     -10.502  19.026  65.931  1.00  0.00    -0.399 C  
HETATM   10  C   UNL     1      -8.436  19.256  67.392  1.00  0.00    -0.318 A  
HETATM   11  C   UNL     1      -6.472  19.569  68.979  1.00  0.00    -0.307 C  
HETATM   12  C   UNL     1      -7.407  18.696  68.173  1.00  0.00    -0.274 A  
HETATM   13  F   UNL     1     -11.181  18.110  65.185  1.00  0.00    -0.235 F  
HETATM   14  F   UNL     1     -11.410  19.545  66.798  1.00  0.00    -0.439 F  
HETATM   15  C   UNL     1      -7.296  17.298  68.246  1.00  0.00    -0.214 A  
HETATM   16  F   UNL     1     -10.164  20.029  65.081  1.00  0.00    -0.286 F  
ENDBRANCH   2   3
BRANCH   2  17
HETATM   17  O   UNL     1      -9.293  14.395  66.951  1.00  0.00    -0.234 OA 
BRANCH  17  18
HETATM   18  C   UNL     1     -10.447  13.874  67.656  1.00  0.00    -0.245 C  
HETATM   19  N   UNL     1     -10.969  12.021  66.021  1.00  0.00    -0.293 NA 
HETATM   20  C   UNL     1     -10.658  12.311  67.446  1.00  0.00    -0.222 C  
HETATM   21  O   UNL     1     -11.651  14.569  67.287  1.00  0.00    -0.355 OA 
HETATM   22  C   UNL     1     -11.959  14.332  65.908  1.00  0.00    -0.391 C  
HETATM   23  C   UNL     1     -12.137  12.838  65.614  1.00  0.00    -0.459 C  
BRANCH  19  24
HETATM   24  C   UNL     1     -11.112  10.613  65.614  1.00  0.00     0.320 C  
BRANCH  24  25
HETATM   25  C   UNL     1      -9.842   9.972  65.085  1.00  0.00    -0.318 C  
HETATM   26  O   UNL     1      -8.578   6.081  65.318  1.00  0.00    -0.151 OA 
HETATM   27  O   UNL     1      -7.960   6.644  63.007  1.00  0.00    -0.111 OA 
HETATM   28  N   UNL     1      -9.194  10.438  64.046  1.00  0.00    -0.239 NA 
HETATM   29  O   UNL     1      -6.163   6.788  64.857  1.00  0.00    -0.034 OA 
HETATM   30  C   UNL     1      -8.198   9.519  63.803  1.00  0.00    -0.161 C  
HETATM   31  O   UNL     1      -7.521   9.452  62.785  1.00  0.00    -0.106 OA 
HETATM   32  P   UNL     1      -7.584   7.057  64.507  1.00  0.00    -0.116 P  
HETATM   33  N   UNL     1      -8.202   8.578  64.798  1.00  0.00    -0.158 N  
HETATM   34  N   UNL     1      -9.284   8.856  65.662  1.00  0.00    -0.221 NA 
ENDBRANCH  24  25
ENDBRANCH  19  24
BRANCH  20  35
HETATM   35  C   UNL     1      -9.482  11.552  68.056  1.00  0.00    -0.181 A  
HETATM   36  C   UNL     1      -7.120  10.937  67.981  1.00  0.00    -0.077 A  
HETATM   37  F   UNL     1      -6.349   9.164  69.334  1.00  0.00    -0.042 F  
HETATM   38  C   UNL     1      -8.181  11.731  67.537  1.00  0.00    -0.152 A  
HETATM   39  C   UNL     1      -8.622   9.773  69.478  1.00  0.00    -0.186 A  
HETATM   40  C   UNL     1      -9.681  10.577  69.046  1.00  0.00    -0.221 A  
HETATM   41  C   UNL     1      -7.356   9.953  68.939  1.00  0.00    -0.078 A  
ENDBRANCH  20  35
ENDBRANCH  17  18
ENDBRANCH   2  17
TORSDOF 6
ENDMDL
MODEL      160
REMARK 921   NORMALIZED FREE ENERGY PREDICTED BY IDOCK:   -6.40 KCAL/MOL
REMARK 922        TOTAL FREE ENERGY PREDICTED BY IDOCK:   -9.55 KCAL/MOL
REMARK 923 INTER-LIGAND FREE ENERGY PREDICTED BY IDOCK:   -8.75 KCAL/MOL
REMARK 924 INTRA-LIGAND FREE ENERGY PREDICTED BY IDOCK:   -0.80 KCAL/MOL
REMARK 927      BINDING AFFINITY PREDICTED BY RF-SCORE:    0.00 PKD
ROOT
HETATM    1  C   UNL     1      -8.304   6.326  69.894  1.00  0.00    -0.129 C  
HETATM    2  C   UNL     1      -9.305   6.589  68.776  1.00  0.00    -0.130 C  
ENDROOT
BRANCH   2   3
HETATM    3  C   UNL     1      -8.980   5.824  67.510  1.00  0.00    -0.107 A  
HETATM    4  F   UNL     1      -6.811   2.139  67.468  1.00  0.00    -0.037 F  
HETATM    5  F   UNL     1      -7.001   1.998  65.308  1.00  0.00    -0.039 F  
HETATM    6  C   UNL     1      -8.826   6.559  66.328  1.00  0.00    -0.154 A  
HETATM    7  C   UNL     1      -8.213   6.001  65.208  1.00  0.00    -0.138 A  
HETATM    8  F   UNL     1      -8.712   1.566  66.578  1.00  0.00    -0.093 F  
HETATM    9  C   UNL     1      -7.843   6.888  64.041  1.00  0.00    -0.100 C  
HETATM   10  C   UNL     1      -7.839   4.649  65.243  1.00  0.00    -0.090 A  
HETATM   11  C   UNL     1      -7.653   2.408  66.433  1.00  0.00    -0.071 C  
HETATM   12  C   UNL     1      -8.067   3.861  66.387  1.00  0.00    -0.097 A  
HETATM   13  F   UNL     1      -8.373   8.140  64.126  1.00  0.00    -0.163 F  
HETATM   14  F   UNL     1      -6.498   7.059  63.947  1.00  0.00    -0.040 F  
HETATM   15  C   UNL     1      -8.633   4.463  67.522  1.00  0.00    -0.106 A  
HETATM   16  F   UNL     1      -8.250   6.385  62.847  1.00  0.00    -0.117 F  
ENDBRANCH   2   3
BRANCH   2  17
HETATM   17  O   UNL     1      -9.402   7.997  68.504  1.00  0.00    -0.142 OA 
BRANCH  17  18
HETATM   18  C   UNL     1      -8.554   8.814  69.348  1.00  0.00    -0.133 C  
HETATM   19  N   UNL     1      -9.412  11.048  68.540  1.00  0.00    -0.182 NA 
HETATM   20  C   UNL     1      -9.218  10.204  69.749  1.00  0.00    -0.144 C  
HETATM   21  O   UNL     1      -7.276   9.058  68.736  1.00  0.00    -0.072 OA 
HETATM   22  C   UNL     1      -7.436   9.846  67.550  1.00  0.00    -0.091 C  
HETATM   23  C   UNL     1      -8.110  11.190  67.846  1.00  0.00    -0.119 C  
BRANCH  19  24
HETATM   24  C   UNL     1     -10.096  12.343  68.700  1.00  0.00    -0.134 C  
BRANCH  24  25
HETATM   25  C   UNL     1     -10.850  12.818  67.471  1.00  0.00    -0.239 C  
HETATM   26  O   UNL     1     -11.136  11.115  63.754  1.00  0.00    -0.329 OA 
HETATM   27  O   UNL     1     -13.452  11.854  64.119  1.00  0.00    -0.591 OA 
HETATM   28  N   UNL     1     -11.923  13.565  67.544  1.00  0.00    -0.362 NA 
HETATM   29  O   UNL     1     -11.861  13.347  62.736  1.00  0.00     0.171 OA 
HETATM   30  C   UNL     1     -12.381  13.662  66.249  1.00  0.00    -0.412 C  
HETATM   31  O   UNL     1     -13.484  14.071  65.910  1.00  0.00    -0.296 OA 
HETATM   32  P   UNL     1     -11.987  12.472  63.933  1.00  0.00    -0.570 P  
HETATM   33  N   UNL     1     -11.481  13.063  65.408  1.00  0.00    -0.304 N  
HETATM   34  N   UNL     1     -10.456  12.494  66.194  1.00  0.00    -0.245 NA 
ENDBRANCH  24  25
ENDBRANCH  19  24
BRANCH  20  35
HETATM   35  C   UNL     1     -10.455   9.949  70.608  1.00  0.00    -0.301 A  
HETATM   36  C   UNL     1     -11.639   8.537  72.210  1.00  0.00    -0.444 A  
HETATM   37  F   UNL     1     -13.936   8.912  72.596  1.00  0.00    -0.444 F  
HETATM   38  C   UNL     1     -10.468   8.876  71.525  1.00  0.00    -0.393 A  
HETATM   39  C   UNL     1     -12.809  10.334  71.092  1.00  0.00    -0.504 A  
HETATM   40  C   UNL     1     -11.635  10.684  70.418  1.00  0.00    -0.441 A  
HETATM   41  C   UNL     1     -12.804   9.262  71.973  1.00  0.00    -0.415 A  
ENDBRANCH  20  35
ENDBRANCH  17  18
ENDBRANCH   2  17
TORSDOF 6
ENDMDL
MODEL      161
REMARK 921   NORMALIZED FREE ENERGY PREDICTED BY IDOCK:   -6.38 KCAL/MOL
REMARK 922        TOTAL FREE ENERGY PREDICTED BY IDOCK:   -9.52 KCAL/MOL
REMARK 923 INTER-LIGAND FREE ENERGY PREDICTED BY IDOCK:   -8.54 KCAL/MOL
REMARK 924 INTRA-LIGAND FREE ENERGY PREDICTED BY IDOCK:   -0.98 KCAL/MOL
REMARK 927      BINDING AFFINITY PREDICTED BY RF-SCORE:    0.00 PKD
ROOT
HETATM    1  C   UNL     1      -9.156  10.285  64.339  1.00  0.00    -0.275 C  
HETATM    2  C   UNL     1     -10.135   9.842  65.418  1.00  0.00    -0.200 C  
ENDROOT
BRANCH   2   3
HETATM    3  C   UNL     1     -10.523  10.970  66.353  1.00  0.00    -0.312 A  
HETATM    4  F   UNL     1     -12.973  10.432  69.816  1.00  0.00    -0.245 F  
HETATM    5  F   UNL     1     -12.801  12.537  70.323  1.00  0.00    -0.118 F  
HETATM    6  C   UNL     1     -10.622  12.258  65.811  1.00  0.00    -0.289 A  
HETATM    7  C   UNL     1     -11.280  13.277  66.496  1.00  0.00    -0.329 A  
HETATM    8  F   UNL     1     -11.124  11.198  70.672  1.00  0.00    -0.227 F  
HETATM    9  C   UNL     1     -11.583  14.577  65.786  1.00  0.00    -0.347 C  
HETATM   10  C   UNL     1     -11.758  13.026  67.791  1.00  0.00    -0.405 A  
HETATM   11  C   UNL     1     -12.115  11.488  69.786  1.00  0.00    -0.306 C  
HETATM   12  C   UNL     1     -11.589  11.767  68.396  1.00  0.00    -0.380 A  
HETATM   13  F   UNL     1     -10.957  14.692  64.581  1.00  0.00    -0.366 F  
HETATM   14  F   UNL     1     -12.910  14.711  65.528  1.00  0.00    -0.327 F  
HETATM   15  C   UNL     1     -10.974  10.739  67.662  1.00  0.00    -0.365 A  
HETATM   16  F   UNL     1     -11.220  15.669  66.507  1.00  0.00    -0.301 F  
ENDBRANCH   2   3
BRANCH   2  17
HETATM   17  O   UNL     1      -9.604   8.732  66.160  1.00  0.00    -0.237 OA 
BRANCH  17  18
HETATM   18  C   UNL     1      -8.234   8.405  65.821  1.00  0.00    -0.131 C  
HETATM   19  N   UNL     1      -7.807   6.878  67.786  1.00  0.00    -0.111 NA 
HETATM   20  C   UNL     1      -7.796   6.952  66.301  1.00  0.00    -0.101 C  
HETATM   21  O   UNL     1      -7.312   9.376  66.345  1.00  0.00    -0.091 OA 
HETATM   22  C   UNL     1      -7.324   9.348  67.777  1.00  0.00    -0.083 C  
HETATM   23  C   UNL     1      -6.952   7.965  68.323  1.00  0.00    -0.073 C  
BRANCH  19  24
HETATM   24  C   UNL     1      -7.512   5.581  68.419  1.00  0.00    -0.077 C  
BRANCH  24  25
HETATM   25  C   UNL     1      -8.186   5.362  69.761  1.00  0.00    -0.100 C  
HETATM   26  O   UNL     1     -10.159   8.031  72.167  1.00  0.00    -0.198 OA 
HETATM   27  O   UNL     1     -11.623   6.063  72.338  1.00  0.00    -0.301 OA 
HETATM   28  N   UNL     1      -8.683   4.206  70.123  1.00  0.00    -0.072 NA 
HETATM   29  O   UNL     1      -9.873   6.490  74.190  1.00  0.00    -0.232 OA 
HETATM   30  C   UNL     1      -9.319   4.447  71.321  1.00  0.00    -0.146 C  
HETATM   31  O   UNL     1     -10.108   3.694  71.875  1.00  0.00    -0.174 OA 
HETATM   32  P   UNL     1     -10.138   6.518  72.726  1.00  0.00    -0.192 P  
HETATM   33  N   UNL     1      -9.072   5.738  71.708  1.00  0.00    -0.142 N  
HETATM   34  N   UNL     1      -8.324   6.367  70.690  1.00  0.00    -0.131 NA 
ENDBRANCH  24  25
ENDBRANCH  19  24
BRANCH  20  35
HETATM   35  C   UNL     1      -8.619   5.901  65.561  1.00  0.00    -0.150 A  
HETATM   36  C   UNL     1     -10.503   4.347  65.538  1.00  0.00    -0.228 A  
HETATM   37  F   UNL     1     -10.624   2.710  63.843  1.00  0.00    -0.169 F  
HETATM   38  C   UNL     1      -9.816   5.413  66.128  1.00  0.00    -0.161 A  
HETATM   39  C   UNL     1      -8.827   4.235  63.797  1.00  0.00    -0.132 A  
HETATM   40  C   UNL     1      -8.147   5.310  64.378  1.00  0.00    -0.121 A  
HETATM   41  C   UNL     1      -9.990   3.758  64.385  1.00  0.00    -0.197 A  
ENDBRANCH  20  35
ENDBRANCH  17  18
ENDBRANCH   2  17
TORSDOF 6
ENDMDL
MODEL      162
REMARK 921   NORMALIZED FREE ENERGY PREDICTED BY IDOCK:   -6.36 KCAL/MOL
REMARK 922        TOTAL FREE ENERGY PREDICTED BY IDOCK:   -9.50 KCAL/MOL
REMARK 923 INTER-LIGAND FREE ENERGY PREDICTED BY IDOCK:   -6.56 KCAL/MOL
REMARK 924 INTRA-LIGAND FREE ENERGY PREDICTED BY IDOCK:   -2.94 KCAL/MOL
REMARK 927      BINDING AFFINITY PREDICTED BY RF-SCORE:    0.00 PKD
ROOT
HETATM    1  C   UNL     1     -10.655   5.203  66.422  1.00  0.00    -0.336 C  
HETATM    2  C   UNL     1     -10.336   5.268  67.910  1.00  0.00    -0.125 C  
ENDROOT
BRANCH   2   3
HETATM    3  C   UNL     1     -10.683   6.609  68.523  1.00  0.00    -0.308 A  
HETATM    4  F   UNL     1      -8.101  10.014  68.373  1.00  0.00    -0.096 F  
HETATM    5  F   UNL     1      -9.559  11.226  69.433  1.00  0.00    -0.102 F  
HETATM    6  C   UNL     1     -11.525   6.613  69.643  1.00  0.00    -0.358 A  
HETATM    7  C   UNL     1     -11.629   7.737  70.459  1.00  0.00    -0.173 A  
HETATM    8  F   UNL     1      -9.876  10.734  67.339  1.00  0.00    -0.181 F  
HETATM    9  C   UNL     1     -12.348   7.631  71.785  1.00  0.00    -0.319 C  
HETATM   10  C   UNL     1     -10.956   8.911  70.088  1.00  0.00    -0.245 A  
HETATM   11  C   UNL     1      -9.438  10.220  68.521  1.00  0.00    -0.158 C  
HETATM   12  C   UNL     1     -10.177   8.961  68.917  1.00  0.00    -0.220 A  
HETATM   13  F   UNL     1     -13.031   6.462  71.936  1.00  0.00    -0.372 F  
HETATM   14  F   UNL     1     -11.483   7.693  72.831  1.00  0.00    -0.361 F  
HETATM   15  C   UNL     1     -10.041   7.798  68.143  1.00  0.00    -0.220 A  
HETATM   16  F   UNL     1     -13.253   8.625  71.976  1.00  0.00    -0.316 F  
ENDBRANCH   2   3
BRANCH   2  17
HETATM   17  O   UNL     1      -8.955   4.946  68.147  1.00  0.00    -0.106 OA 
BRANCH  17  18
HETATM   18  C   UNL     1      -8.714   3.534  68.362  1.00  0.00    -0.105 C  
HETATM   19  N   UNL     1      -6.642   3.810  69.779  1.00  0.00    -0.033 NA 
HETATM   20  C   UNL     1      -8.007   3.222  69.754  1.00  0.00    -0.048 C  
HETATM   21  O   UNL     1      -7.937   2.961  67.297  1.00  0.00    -0.076 OA 
HETATM   22  C   UNL     1      -6.623   3.532  67.278  1.00  0.00    -0.038 C  
HETATM   23  C   UNL     1      -5.887   3.311  68.605  1.00  0.00    -0.023 C  
BRANCH  19  24
HETATM   24  C   UNL     1      -5.861   3.699  71.024  1.00  0.00    -0.014 C  
BRANCH  24  25
HETATM   25  C   UNL     1      -5.690   5.002  71.784  1.00  0.00    -0.012 C  
HETATM   26  O   UNL     1      -7.061   8.758  70.882  1.00  0.00    -0.058 OA 
HETATM   27  O   UNL     1      -7.481   8.667  73.302  1.00  0.00    -0.350 OA 
HETATM   28  N   UNL     1      -5.519   5.048  73.081  1.00  0.00    -0.013 NA 
HETATM   29  O   UNL     1      -5.331   9.815  72.444  1.00  0.00    -0.179 OA 
HETATM   30  C   UNL     1      -5.545   6.387  73.400  1.00  0.00    -0.042 C  
HETATM   31  O   UNL     1      -5.657   6.851  74.527  1.00  0.00    -0.061 OA 
HETATM   32  P   UNL     1      -6.254   8.660  72.274  1.00  0.00    -0.031 P  
HETATM   33  N   UNL     1      -5.608   7.122  72.246  1.00  0.00    -0.037 N  
HETATM   34  N   UNL     1      -5.706   6.227  71.159  1.00  0.00    -0.026 NA 
ENDBRANCH  24  25
ENDBRANCH  19  24
BRANCH  20  35
HETATM   35  C   UNL     1      -8.940   3.614  70.898  1.00  0.00    -0.158 A  
HETATM   36  C   UNL     1      -9.668   5.275  72.533  1.00  0.00    -0.176 A  
HETATM   37  F   UNL     1     -11.076   4.606  74.304  1.00  0.00    -0.316 F  
HETATM   38  C   UNL     1      -8.933   4.936  71.393  1.00  0.00    -0.162 A  
HETATM   39  C   UNL     1     -10.444   2.991  72.708  1.00  0.00    -0.212 A  
HETATM   40  C   UNL     1      -9.721   2.654  71.560  1.00  0.00    -0.222 A  
HETATM   41  C   UNL     1     -10.405   4.292  73.189  1.00  0.00    -0.171 A  
ENDBRANCH  20  35
ENDBRANCH  17  18
ENDBRANCH   2  17
TORSDOF 6
ENDMDL
MODEL      163
REMARK 921   NORMALIZED FREE ENERGY PREDICTED BY IDOCK:   -6.35 KCAL/MOL
REMARK 922        TOTAL FREE ENERGY PREDICTED BY IDOCK:   -9.47 KCAL/MOL
REMARK 923 INTER-LIGAND FREE ENERGY PREDICTED BY IDOCK:   -8.51 KCAL/MOL
REMARK 924 INTRA-LIGAND FREE ENERGY PREDICTED BY IDOCK:   -0.96 KCAL/MOL
REMARK 927      BINDING AFFINITY PREDICTED BY RF-SCORE:    0.00 PKD
ROOT
HETATM    1  C   UNL     1     -11.857   8.066  72.771  1.00  0.00    -0.303 C  
HETATM    2  C   UNL     1     -11.588   8.148  71.274  1.00  0.00    -0.273 C  
ENDROOT
BRANCH   2   3
HETATM    3  C   UNL     1     -10.523   7.173  70.818  1.00  0.00    -0.227 A  
HETATM    4  F   UNL     1      -9.369   6.674  66.731  1.00  0.00    -0.139 F  
HETATM    5  F   UNL     1      -7.878   5.194  67.283  1.00  0.00    -0.092 F  
HETATM    6  C   UNL     1     -10.333   6.014  71.582  1.00  0.00    -0.260 A  
HETATM    7  C   UNL     1      -9.630   4.924  71.073  1.00  0.00    -0.238 A  
HETATM    8  F   UNL     1      -7.507   7.303  67.663  1.00  0.00    -0.090 F  
HETATM    9  C   UNL     1      -9.651   3.609  71.819  1.00  0.00    -0.151 C  
HETATM   10  C   UNL     1      -9.020   5.038  69.814  1.00  0.00    -0.141 A  
HETATM   11  C   UNL     1      -8.474   6.346  67.701  1.00  0.00    -0.117 C  
HETATM   12  C   UNL     1      -9.118   6.226  69.065  1.00  0.00    -0.129 A  
HETATM   13  F   UNL     1     -10.192   3.705  73.065  1.00  0.00    -0.175 F  
HETATM   14  F   UNL     1     -10.388   2.674  71.165  1.00  0.00    -0.044 F  
HETATM   15  C   UNL     1      -9.881   7.288  69.575  1.00  0.00    -0.163 A  
HETATM   16  F   UNL     1      -8.413   3.076  71.983  1.00  0.00    -0.065 F  
ENDBRANCH   2   3
BRANCH   2  17
HETATM   17  O   UNL     1     -11.241   9.490  70.894  1.00  0.00    -0.283 OA 
BRANCH  17  18
HETATM   18  C   UNL     1     -12.240  10.140  70.070  1.00  0.00    -0.051 C  
HETATM   19  N   UNL     1     -11.335  12.485  70.320  1.00  0.00     0.214 NA 
HETATM   20  C   UNL     1     -11.695  11.438  69.327  1.00  0.00    -0.337 C  
HETATM   21  O   UNL     1     -13.410  10.486  70.832  1.00  0.00    -0.296 OA 
HETATM   22  C   UNL     1     -13.086  11.473  71.818  1.00  0.00    -0.398 C  
HETATM   23  C   UNL     1     -12.512  12.745  71.183  1.00  0.00    -0.239 C  
BRANCH  19  24
HETATM   24  C   UNL     1     -10.728  13.733  69.825  1.00  0.00     0.329 C  
BRANCH  24  25
HETATM   25  C   UNL     1     -11.205  14.169  68.451  1.00  0.00    -0.265 C  
HETATM   26  O   UNL     1      -9.077  15.724  65.312  1.00  0.00    -0.019 OA 
HETATM   27  O   UNL     1     -10.584  14.173  64.144  1.00  0.00    -0.082 OA 
HETATM   28  N   UNL     1     -12.263  13.656  67.874  1.00  0.00    -0.259 NA 
HETATM   29  O   UNL     1     -11.213  16.675  64.275  1.00  0.00    -1.098 OA 
HETATM   30  C   UNL     1     -12.280  14.200  66.609  1.00  0.00    -0.418 C  
HETATM   31  O   UNL     1     -12.963  13.808  65.672  1.00  0.00    -0.574 OA 
HETATM   32  P   UNL     1     -10.648  15.515  65.014  1.00  0.00    -0.218 P  
HETATM   33  N   UNL     1     -11.284  15.135  66.509  1.00  0.00    -0.322 N  
HETATM   34  N   UNL     1     -10.556  15.133  67.717  1.00  0.00    -0.259 NA 
ENDBRANCH  24  25
ENDBRANCH  19  24
BRANCH  20  35
HETATM   35  C   UNL     1     -10.606  11.037  68.335  1.00  0.00    -0.224 A  
HETATM   36  C   UNL     1      -9.988  10.169  66.138  1.00  0.00    -0.310 A  
HETATM   37  F   UNL     1      -7.765   9.474  65.758  1.00  0.00    -0.096 F  
HETATM   38  C   UNL     1     -10.951  10.679  67.014  1.00  0.00    -0.274 A  
HETATM   39  C   UNL     1      -8.311  10.367  67.870  1.00  0.00    -0.114 A  
HETATM   40  C   UNL     1      -9.270  10.892  68.742  1.00  0.00    -0.187 A  
HETATM   41  C   UNL     1      -8.678  10.003  66.582  1.00  0.00    -0.129 A  
ENDBRANCH  20  35
ENDBRANCH  17  18
ENDBRANCH   2  17
TORSDOF 6
ENDMDL
MODEL      164
REMARK 921   NORMALIZED FREE ENERGY PREDICTED BY IDOCK:   -6.31 KCAL/MOL
REMARK 922        TOTAL FREE ENERGY PREDICTED BY IDOCK:   -9.42 KCAL/MOL
REMARK 923 INTER-LIGAND FREE ENERGY PREDICTED BY IDOCK:   -9.01 KCAL/MOL
REMARK 924 INTRA-LIGAND FREE ENERGY PREDICTED BY IDOCK:   -0.41 KCAL/MOL
REMARK 927      BINDING AFFINITY PREDICTED BY RF-SCORE:    0.00 PKD
ROOT
HETATM    1  C   UNL     1      -8.167   9.555  67.574  1.00  0.00    -0.121 C  
HETATM    2  C   UNL     1      -8.051  10.069  69.003  1.00  0.00    -0.118 C  
ENDROOT
BRANCH   2   3
HETATM    3  C   UNL     1      -8.500   9.049  70.028  1.00  0.00    -0.149 A  
HETATM    4  F   UNL     1     -12.602   8.282  70.960  1.00  0.00    -0.291 F  
HETATM    5  F   UNL     1     -12.040   6.742  72.385  1.00  0.00    -0.296 F  
HETATM    6  C   UNL     1      -7.640   8.785  71.102  1.00  0.00    -0.134 A  
HETATM    7  C   UNL     1      -8.096   8.130  72.244  1.00  0.00    -0.186 A  
HETATM    8  F   UNL     1     -11.919   6.342  70.252  1.00  0.00    -0.445 F  
HETATM    9  C   UNL     1      -7.217   8.079  73.474  1.00  0.00    -0.131 C  
HETATM   10  C   UNL     1      -9.411   7.642  72.267  1.00  0.00    -0.199 A  
HETATM   11  C   UNL     1     -11.691   7.299  71.191  1.00  0.00    -0.303 C  
HETATM   12  C   UNL     1     -10.268   7.812  71.164  1.00  0.00    -0.214 A  
HETATM   13  F   UNL     1      -5.943   8.501  73.244  1.00  0.00    -0.074 F  
HETATM   14  F   UNL     1      -7.698   8.872  74.467  1.00  0.00    -0.245 F  
HETATM   15  C   UNL     1      -9.803   8.526  70.049  1.00  0.00    -0.181 A  
HETATM   16  F   UNL     1      -7.114   6.830  73.997  1.00  0.00    -0.087 F  
ENDBRANCH   2   3
BRANCH   2  17
HETATM   17  O   UNL     1      -8.781  11.298  69.160  1.00  0.00    -0.030 OA 
BRANCH  17  18
HETATM   18  C   UNL     1      -9.235  11.871  67.909  1.00  0.00    -0.187 C  
HETATM   19  N   UNL     1     -10.753  13.614  68.926  1.00  0.00    -0.238 NA 
HETATM   20  C   UNL     1      -9.591  13.418  68.019  1.00  0.00    -0.219 C  
HETATM   21  O   UNL     1     -10.367  11.160  67.380  1.00  0.00    -0.184 OA 
HETATM   22  C   UNL     1     -11.495  11.306  68.251  1.00  0.00    -0.308 C  
HETATM   23  C   UNL     1     -11.878  12.778  68.444  1.00  0.00    -0.310 C  
BRANCH  19  24
HETATM   24  C   UNL     1     -11.178  14.993  69.223  1.00  0.00    -0.286 C  
BRANCH  24  25
HETATM   25  C   UNL     1     -10.940  15.986  68.099  1.00  0.00    -0.339 C  
HETATM   26  O   UNL     1      -8.324  19.134  67.898  1.00  0.00    -0.283 OA 
HETATM   27  O   UNL     1      -8.103  18.187  65.641  1.00  0.00    -0.488 OA 
HETATM   28  N   UNL     1     -11.162  15.697  66.841  1.00  0.00    -0.183 NA 
HETATM   29  O   UNL     1      -9.680  20.200  66.008  1.00  0.00    -0.416 OA 
HETATM   30  C   UNL     1     -10.701  16.787  66.137  1.00  0.00    -0.116 C  
HETATM   31  O   UNL     1     -10.505  16.826  64.929  1.00  0.00    -0.652 OA 
HETATM   32  P   UNL     1      -9.197  18.906  66.562  1.00  0.00    -0.301 P  
HETATM   33  N   UNL     1     -10.324  17.765  67.018  1.00  0.00    -0.343 N  
HETATM   34  N   UNL     1     -10.472  17.258  68.327  1.00  0.00    -0.367 NA 
ENDBRANCH  24  25
ENDBRANCH  19  24
BRANCH  20  35
HETATM   35  C   UNL     1      -8.328  14.210  68.350  1.00  0.00    -0.161 A  
HETATM   36  C   UNL     1      -6.879  15.243  70.022  1.00  0.00    -0.080 A  
HETATM   37  F   UNL     1      -5.204  16.749  69.320  1.00  0.00    -0.123 F  
HETATM   38  C   UNL     1      -7.945  14.400  69.695  1.00  0.00     0.328 A  
HETATM   39  C   UNL     1      -6.542  15.721  67.675  1.00  0.00    -0.196 A  
HETATM   40  C   UNL     1      -7.598  14.866  67.346  1.00  0.00    -0.232 A  
HETATM   41  C   UNL     1      -6.197  15.908  69.006  1.00  0.00    -0.125 A  
ENDBRANCH  20  35
ENDBRANCH  17  18
ENDBRANCH   2  17
TORSDOF 6
ENDMDL
MODEL      165
REMARK 921   NORMALIZED FREE ENERGY PREDICTED BY IDOCK:   -6.30 KCAL/MOL
REMARK 922        TOTAL FREE ENERGY PREDICTED BY IDOCK:   -9.42 KCAL/MOL
REMARK 923 INTER-LIGAND FREE ENERGY PREDICTED BY IDOCK:   -9.09 KCAL/MOL
REMARK 924 INTRA-LIGAND FREE ENERGY PREDICTED BY IDOCK:   -0.33 KCAL/MOL
REMARK 927      BINDING AFFINITY PREDICTED BY RF-SCORE:    0.00 PKD
ROOT
HETATM    1  C   UNL     1     -11.634  13.294  66.181  1.00  0.00    -0.385 C  
HETATM    2  C   UNL     1     -12.307  13.146  67.540  1.00  0.00     0.072 C  
ENDROOT
BRANCH   2   3
HETATM    3  C   UNL     1     -11.812  14.161  68.550  1.00  0.00    -0.390 A  
HETATM    4  F   UNL     1     -14.155  15.546  71.848  1.00  0.00    -0.506 F  
HETATM    5  F   UNL     1     -12.524  16.804  72.539  1.00  0.00    -0.306 F  
HETATM    6  C   UNL     1     -10.872  15.104  68.116  1.00  0.00    -0.266 A  
HETATM    7  C   UNL     1     -10.614  16.255  68.857  1.00  0.00    -0.284 A  
HETATM    8  F   UNL     1     -12.439  14.652  72.843  1.00  0.00    -0.403 F  
HETATM    9  C   UNL     1      -9.784  17.363  68.248  1.00  0.00    -0.299 C  
HETATM   10  C   UNL     1     -11.237  16.413  70.105  1.00  0.00    -0.260 A  
HETATM   11  C   UNL     1     -12.799  15.608  71.945  1.00  0.00    -0.449 C  
HETATM   12  C   UNL     1     -12.115  15.435  70.607  1.00  0.00    -0.412 A  
HETATM   13  F   UNL     1      -9.173  17.002  67.086  1.00  0.00    -0.221 F  
HETATM   14  F   UNL     1     -10.542  18.450  67.948  1.00  0.00    -0.377 F  
HETATM   15  C   UNL     1     -12.403  14.312  69.815  1.00  0.00    -0.342 A  
HETATM   16  F   UNL     1      -8.799  17.799  69.075  1.00  0.00    -0.252 F  
ENDBRANCH   2   3
BRANCH   2  17
HETATM   17  O   UNL     1     -12.142  11.810  68.044  1.00  0.00    -0.572 OA 
BRANCH  17  18
HETATM   18  C   UNL     1     -10.916  11.616  68.791  1.00  0.00    -0.226 C  
HETATM   19  N   UNL     1     -10.819   9.105  68.536  1.00  0.00    -0.107 NA 
HETATM   20  C   UNL     1     -10.067  10.364  68.293  1.00  0.00    -0.153 C  
HETATM   21  O   UNL     1     -11.169  11.486  70.200  1.00  0.00    -0.145 OA 
HETATM   22  C   UNL     1     -11.919  10.294  70.462  1.00  0.00    -0.323 C  
HETATM   23  C   UNL     1     -11.186   9.041  69.971  1.00  0.00    -0.128 C  
BRANCH  19  24
HETATM   24  C   UNL     1     -10.230   7.841  68.061  1.00  0.00    -0.201 C  
BRANCH  24  25
HETATM   25  C   UNL     1      -9.526   7.027  69.131  1.00  0.00    -0.143 C  
HETATM   26  O   UNL     1      -9.333   2.963  69.626  1.00  0.00    -0.141 OA 
HETATM   27  O   UNL     1      -7.019   3.615  70.139  1.00  0.00    -0.037 OA 
HETATM   28  N   UNL     1      -8.463   7.458  69.763  1.00  0.00    -0.135 NA 
HETATM   29  O   UNL     1      -8.680   3.246  72.083  1.00  0.00    -0.083 OA 
HETATM   30  C   UNL     1      -8.050   6.396  70.536  1.00  0.00    -0.117 C  
HETATM   31  O   UNL     1      -6.966   6.299  71.096  1.00  0.00    -0.065 OA 
HETATM   32  P   UNL     1      -8.499   3.808  70.717  1.00  0.00    -0.073 P  
HETATM   33  N   UNL     1      -8.967   5.384  70.435  1.00  0.00    -0.131 N  
HETATM   34  N   UNL     1      -9.956   5.777  69.508  1.00  0.00    -0.176 NA 
ENDBRANCH  24  25
ENDBRANCH  19  24
BRANCH  20  35
HETATM   35  C   UNL     1      -9.592  10.608  66.862  1.00  0.00    -0.200 A  
HETATM   36  C   UNL     1     -10.027  10.502  64.462  1.00  0.00    -0.413 A  
HETATM   37  F   UNL     1      -8.232  10.774  62.954  1.00  0.00    -0.160 F  
HETATM   38  C   UNL     1     -10.482  10.428  65.782  1.00  0.00    -0.187 A  
HETATM   39  C   UNL     1      -7.788  10.947  65.262  1.00  0.00     0.129 A  
HETATM   40  C   UNL     1      -8.245  10.888  66.582  1.00  0.00    -0.145 A  
HETATM   41  C   UNL     1      -8.678  10.746  64.216  1.00  0.00    -0.075 A  
ENDBRANCH  20  35
ENDBRANCH  17  18
ENDBRANCH   2  17
TORSDOF 6
ENDMDL
MODEL      166
REMARK 921   NORMALIZED FREE ENERGY PREDICTED BY IDOCK:   -6.29 KCAL/MOL
REMARK 922        TOTAL FREE ENERGY PREDICTED BY IDOCK:   -9.40 KCAL/MOL
REMARK 923 INTER-LIGAND FREE ENERGY PREDICTED BY IDOCK:   -7.92 KCAL/MOL
REMARK 924 INTRA-LIGAND FREE ENERGY PREDICTED BY IDOCK:   -1.48 KCAL/MOL
REMARK 927      BINDING AFFINITY PREDICTED BY RF-SCORE:    0.00 PKD
ROOT
HETATM    1  C   UNL     1     -10.599  13.027  69.162  1.00  0.00     0.005 C  
HETATM    2  C   UNL     1     -10.231  11.594  68.801  1.00  0.00    -0.177 C  
ENDROOT
BRANCH   2   3
HETATM    3  C   UNL     1     -10.103  11.383  67.306  1.00  0.00    -0.218 A  
HETATM    4  F   UNL     1     -13.319  11.983  64.552  1.00  0.00    -0.379 F  
HETATM    5  F   UNL     1     -12.039  11.473  62.873  1.00  0.00    -0.362 F  
HETATM    6  C   UNL     1      -9.176  10.432  66.861  1.00  0.00    -0.170 A  
HETATM    7  C   UNL     1      -9.222   9.938  65.559  1.00  0.00    -0.255 A  
HETATM    8  F   UNL     1     -11.833  13.407  63.845  1.00  0.00    -0.416 F  
HETATM    9  C   UNL     1      -8.372   8.745  65.184  1.00  0.00    -0.167 C  
HETATM   10  C   UNL     1     -10.150  10.483  64.658  1.00  0.00    -0.408 A  
HETATM   11  C   UNL     1     -12.043  12.085  64.091  1.00  0.00    -0.362 C  
HETATM   12  C   UNL     1     -11.031  11.506  65.055  1.00  0.00    -0.305 A  
HETATM   13  F   UNL     1      -7.457   8.414  66.137  1.00  0.00    -0.082 F  
HETATM   14  F   UNL     1      -9.127   7.632  64.992  1.00  0.00     0.053 F  
HETATM   15  C   UNL     1     -11.005  11.945  66.388  1.00  0.00    -0.337 A  
HETATM   16  F   UNL     1      -7.671   8.936  64.037  1.00  0.00    -0.107 F  
ENDBRANCH   2   3
BRANCH   2  17
HETATM   17  O   UNL     1     -11.179  10.670  69.361  1.00  0.00    -0.231 OA 
BRANCH  17  18
HETATM   18  C   UNL     1     -11.422  10.870  70.775  1.00  0.00    -0.019 C  
HETATM   19  N   UNL     1     -12.358   8.570  71.234  1.00  0.00    -0.298 NA 
HETATM   20  C   UNL     1     -11.297   9.533  71.631  1.00  0.00    -0.341 C  
HETATM   21  O   UNL     1     -12.708  11.466  71.013  1.00  0.00    -0.374 OA 
HETATM   22  C   UNL     1     -13.752  10.570  70.612  1.00  0.00     0.729 C  
HETATM   23  C   UNL     1     -13.676   9.236  71.362  1.00  0.00    -0.261 C  
BRANCH  19  24
HETATM   24  C   UNL     1     -12.352   7.235  71.857  1.00  0.00    -0.312 C  
BRANCH  24  25
HETATM   25  C   UNL     1     -11.427   6.230  71.196  1.00  0.00    -0.299 C  
HETATM   26  O   UNL     1      -9.657   6.338  67.500  1.00  0.00    -0.115 OA 
HETATM   27  O   UNL     1      -7.815   5.483  68.885  1.00  0.00    -0.092 OA 
HETATM   28  N   UNL     1     -10.649   5.427  71.878  1.00  0.00    -0.227 NA 
HETATM   29  O   UNL     1      -9.271   3.810  67.559  1.00  0.00    -0.152 OA 
HETATM   30  C   UNL     1      -9.880   4.783  70.935  1.00  0.00    -0.209 C  
HETATM   31  O   UNL     1      -8.871   4.130  71.161  1.00  0.00    -0.100 OA 
HETATM   32  P   UNL     1      -9.273   5.047  68.386  1.00  0.00    -0.133 P  
HETATM   33  N   UNL     1     -10.315   5.137  69.685  1.00  0.00    -0.272 N  
HETATM   34  N   UNL     1     -11.340   6.096  69.830  1.00  0.00    -0.426 NA 
ENDBRANCH  24  25
ENDBRANCH  19  24
BRANCH  20  35
HETATM   35  C   UNL     1      -9.858   9.024  71.573  1.00  0.00    -0.381 A  
HETATM   36  C   UNL     1      -7.851   8.275  72.745  1.00  0.00    -0.181 A  
HETATM   37  F   UNL     1      -5.820   8.106  71.556  1.00  0.00    -0.034 F  
HETATM   38  C   UNL     1      -9.210   8.603  72.754  1.00  0.00    -0.087 A  
HETATM   39  C   UNL     1      -7.751   8.770  70.379  1.00  0.00    -0.091 A  
HETATM   40  C   UNL     1      -9.114   9.083  70.384  1.00  0.00    -0.242 A  
HETATM   41  C   UNL     1      -7.131   8.378  71.557  1.00  0.00    -0.085 A  
ENDBRANCH  20  35
ENDBRANCH  17  18
ENDBRANCH   2  17
TORSDOF 6
ENDMDL
MODEL      167
REMARK 921   NORMALIZED FREE ENERGY PREDICTED BY IDOCK:   -6.26 KCAL/MOL
REMARK 922        TOTAL FREE ENERGY PREDICTED BY IDOCK:   -9.36 KCAL/MOL
REMARK 923 INTER-LIGAND FREE ENERGY PREDICTED BY IDOCK:   -8.24 KCAL/MOL
REMARK 924 INTRA-LIGAND FREE ENERGY PREDICTED BY IDOCK:   -1.12 KCAL/MOL
REMARK 927      BINDING AFFINITY PREDICTED BY RF-SCORE:    0.00 PKD
ROOT
HETATM    1  C   UNL     1     -10.933  11.607  65.644  1.00  0.00    -0.322 C  
HETATM    2  C   UNL     1     -11.564  11.955  66.986  1.00  0.00    -0.291 C  
ENDROOT
BRANCH   2   3
HETATM    3  C   UNL     1     -11.086  13.286  67.528  1.00  0.00    -0.292 A  
HETATM    4  F   UNL     1      -7.041  14.641  67.232  1.00  0.00    -0.198 F  
HETATM    5  F   UNL     1      -7.545  16.509  68.219  1.00  0.00    -0.151 F  
HETATM    6  C   UNL     1     -11.756  13.813  68.639  1.00  0.00    -0.391 A  
HETATM    7  C   UNL     1     -11.194  14.838  69.398  1.00  0.00    -0.308 A  
HETATM    8  F   UNL     1      -8.126  16.184  66.149  1.00  0.00    -0.317 F  
HETATM    9  C   UNL     1     -11.821  15.215  70.722  1.00  0.00    -0.324 C  
HETATM   10  C   UNL     1      -9.986  15.412  68.975  1.00  0.00    -0.229 A  
HETATM   11  C   UNL     1      -8.028  15.569  67.358  1.00  0.00    -0.185 C  
HETATM   12  C   UNL     1      -9.338  14.962  67.809  1.00  0.00    -0.194 A  
HETATM   13  F   UNL     1     -13.039  14.640  70.924  1.00  0.00    -0.374 F  
HETATM   14  F   UNL     1     -11.049  14.828  71.770  1.00  0.00    -0.314 F  
HETATM   15  C   UNL     1      -9.894  13.889  67.095  1.00  0.00    -0.241 A  
HETATM   16  F   UNL     1     -12.007  16.553  70.855  1.00  0.00    -0.301 F  
ENDBRANCH   2   3
BRANCH   2  17
HETATM   17  O   UNL     1     -11.333  10.907  67.942  1.00  0.00    -0.307 OA 
BRANCH  17  18
HETATM   18  C   UNL     1     -10.523  11.316  69.071  1.00  0.00    -0.194 C  
HETATM   19  N   UNL     1      -9.605   9.026  69.611  1.00  0.00    -0.167 NA 
HETATM   20  C   UNL     1      -9.221  10.421  69.268  1.00  0.00    -0.184 C  
HETATM   21  O   UNL     1     -11.282  11.325  70.292  1.00  0.00    -0.191 OA 
HETATM   22  C   UNL     1     -11.692   9.995  70.632  1.00  0.00    -0.337 C  
HETATM   23  C   UNL     1     -10.492   9.055  70.799  1.00  0.00    -0.243 C  
BRANCH  19  24
HETATM   24  C   UNL     1      -8.534   8.024  69.747  1.00  0.00    -0.127 C  
BRANCH  24  25
HETATM   25  C   UNL     1      -8.880   6.647  69.211  1.00  0.00    -0.133 C  
HETATM   26  O   UNL     1      -7.217   4.552  66.106  1.00  0.00    -0.073 OA 
HETATM   27  O   UNL     1      -7.503   2.775  67.780  1.00  0.00    -0.056 OA 
HETATM   28  N   UNL     1      -9.411   5.710  69.957  1.00  0.00    -0.153 NA 
HETATM   29  O   UNL     1      -9.291   3.063  65.938  1.00  0.00    -0.147 OA 
HETATM   30  C   UNL     1      -9.443   4.590  69.157  1.00  0.00    -0.164 C  
HETATM   31  O   UNL     1      -9.644   3.445  69.538  1.00  0.00    -0.169 OA 
HETATM   32  P   UNL     1      -8.388   3.767  66.888  1.00  0.00    -0.104 P  
HETATM   33  N   UNL     1      -9.037   4.929  67.893  1.00  0.00    -0.110 N  
HETATM   34  N   UNL     1      -8.658   6.289  67.902  1.00  0.00    -0.116 NA 
ENDBRANCH  24  25
ENDBRANCH  19  24
BRANCH  20  35
HETATM   35  C   UNL     1      -8.295  10.597  68.068  1.00  0.00    -0.118 A  
HETATM   36  C   UNL     1      -7.394   9.731  65.970  1.00  0.00    -0.102 A  
HETATM   37  F   UNL     1      -5.479  10.744  65.034  1.00  0.00    -0.123 F  
HETATM   38  C   UNL     1      -8.333   9.671  67.004  1.00  0.00    -0.117 A  
HETATM   39  C   UNL     1      -6.360  11.646  67.026  1.00  0.00    -0.149 A  
HETATM   40  C   UNL     1      -7.308  11.596  68.052  1.00  0.00    -0.089 A  
HETATM   41  C   UNL     1      -6.405  10.711  66.001  1.00  0.00    -0.132 A  
ENDBRANCH  20  35
ENDBRANCH  17  18
ENDBRANCH   2  17
TORSDOF 6
ENDMDL
MODEL      168
REMARK 921   NORMALIZED FREE ENERGY PREDICTED BY IDOCK:   -6.23 KCAL/MOL
REMARK 922        TOTAL FREE ENERGY PREDICTED BY IDOCK:   -9.31 KCAL/MOL
REMARK 923 INTER-LIGAND FREE ENERGY PREDICTED BY IDOCK:   -8.04 KCAL/MOL
REMARK 924 INTRA-LIGAND FREE ENERGY PREDICTED BY IDOCK:   -1.28 KCAL/MOL
REMARK 927      BINDING AFFINITY PREDICTED BY RF-SCORE:    0.00 PKD
ROOT
HETATM    1  C   UNL     1      -6.405  11.347  67.933  1.00  0.00    -0.055 C  
HETATM    2  C   UNL     1      -7.517  10.445  68.454  1.00  0.00    -0.091 C  
ENDROOT
BRANCH   2   3
HETATM    3  C   UNL     1      -7.779   9.259  67.548  1.00  0.00    -0.092 A  
HETATM    4  F   UNL     1      -7.508   9.437  63.284  1.00  0.00    -0.102 F  
HETATM    5  F   UNL     1      -7.998   7.327  63.118  1.00  0.00    -0.120 F  
HETATM    6  C   UNL     1      -8.682   8.287  67.996  1.00  0.00    -0.135 A  
HETATM    7  C   UNL     1      -9.230   7.355  67.116  1.00  0.00    -0.159 A  
HETATM    8  F   UNL     1      -6.017   7.931  63.780  1.00  0.00    -0.054 F  
HETATM    9  C   UNL     1     -10.378   6.484  67.574  1.00  0.00    -0.201 C  
HETATM   10  C   UNL     1      -8.786   7.335  65.786  1.00  0.00    -0.129 A  
HETATM   11  C   UNL     1      -7.339   8.233  63.895  1.00  0.00    -0.100 C  
HETATM   12  C   UNL     1      -7.809   8.242  65.332  1.00  0.00    -0.113 A  
HETATM   13  F   UNL     1     -10.607   6.555  68.915  1.00  0.00    -0.180 F  
HETATM   14  F   UNL     1     -11.546   6.838  66.978  1.00  0.00    -0.416 F  
HETATM   15  C   UNL     1      -7.316   9.209  66.223  1.00  0.00    -0.092 A  
HETATM   16  F   UNL     1     -10.187   5.169  67.292  1.00  0.00    -0.178 F  
ENDBRANCH   2   3
BRANCH   2  17
HETATM   17  O   UNL     1      -8.724  11.198  68.661  1.00  0.00    -0.155 OA 
BRANCH  17  18
HETATM   18  C   UNL     1      -9.215  11.854  67.467  1.00  0.00    -0.177 C  
HETATM   19  N   UNL     1     -10.783  13.449  68.640  1.00  0.00    -0.253 NA 
HETATM   20  C   UNL     1      -9.627  13.373  67.707  1.00  0.00    -0.213 C  
HETATM   21  O   UNL     1     -10.328  11.146  66.893  1.00  0.00    -0.213 OA 
HETATM   22  C   UNL     1     -11.449  11.178  67.784  1.00  0.00    -0.272 C  
HETATM   23  C   UNL     1     -11.883  12.614  68.102  1.00  0.00    -0.315 C  
BRANCH  19  24
HETATM   24  C   UNL     1     -11.255  14.782  69.053  1.00  0.00    -0.270 C  
BRANCH  24  25
HETATM   25  C   UNL     1     -10.992  15.888  68.047  1.00  0.00    -0.336 C  
HETATM   26  O   UNL     1      -8.090  18.782  68.035  1.00  0.00    -0.268 OA 
HETATM   27  O   UNL     1      -8.115  18.124  65.667  1.00  0.00    -0.488 OA 
HETATM   28  N   UNL     1     -11.325  15.790  66.784  1.00  0.00    -0.024 NA 
HETATM   29  O   UNL     1      -9.452  20.208  66.405  1.00  0.00    -0.384 OA 
HETATM   30  C   UNL     1     -10.803  16.916  66.187  1.00  0.00     0.009 C  
HETATM   31  O   UNL     1     -10.684  17.095  64.982  1.00  0.00    -0.712 OA 
HETATM   32  P   UNL     1      -9.067  18.813  66.754  1.00  0.00    -0.328 P  
HETATM   33  N   UNL     1     -10.272  17.730  67.152  1.00  0.00    -0.339 N  
HETATM   34  N   UNL     1     -10.384  17.071  68.395  1.00  0.00    -0.329 NA 
ENDBRANCH  24  25
ENDBRANCH  19  24
BRANCH  20  35
HETATM   35  C   UNL     1      -8.389  14.181  68.089  1.00  0.00    -0.161 A  
HETATM   36  C   UNL     1      -7.019  15.226  69.819  1.00  0.00    -0.168 A  
HETATM   37  F   UNL     1      -5.344  16.763  69.188  1.00  0.00    -0.123 F  
HETATM   38  C   UNL     1      -8.059  14.368  69.448  1.00  0.00     0.180 A  
HETATM   39  C   UNL     1      -6.605  15.725  67.489  1.00  0.00    -0.213 A  
HETATM   40  C   UNL     1      -7.634  14.856  67.116  1.00  0.00    -0.145 A  
HETATM   41  C   UNL     1      -6.312  15.909  68.833  1.00  0.00    -0.122 A  
ENDBRANCH  20  35
ENDBRANCH  17  18
ENDBRANCH   2  17
TORSDOF 6
ENDMDL
MODEL      169
REMARK 921   NORMALIZED FREE ENERGY PREDICTED BY IDOCK:   -6.21 KCAL/MOL
REMARK 922        TOTAL FREE ENERGY PREDICTED BY IDOCK:   -9.30 KCAL/MOL
REMARK 923 INTER-LIGAND FREE ENERGY PREDICTED BY IDOCK:   -8.69 KCAL/MOL
REMARK 924 INTRA-LIGAND FREE ENERGY PREDICTED BY IDOCK:   -0.60 KCAL/MOL
REMARK 927      BINDING AFFINITY PREDICTED BY RF-SCORE:    0.00 PKD
ROOT
HETATM    1  C   UNL     1     -11.262   8.200  72.588  1.00  0.00    -0.447 C  
HETATM    2  C   UNL     1     -11.271   8.851  71.211  1.00  0.00    -0.298 C  
ENDROOT
BRANCH   2   3
HETATM    3  C   UNL     1     -10.024   8.537  70.410  1.00  0.00    -0.203 A  
HETATM    4  F   UNL     1      -6.677  11.182  70.116  1.00  0.00    -0.150 F  
HETATM    5  F   UNL     1      -5.603   9.761  68.874  1.00  0.00    -0.037 F  
HETATM    6  C   UNL     1     -10.164   7.710  69.288  1.00  0.00    -0.210 A  
HETATM    7  C   UNL     1      -9.165   7.637  68.320  1.00  0.00    -0.139 A  
HETATM    8  F   UNL     1      -5.788   9.410  71.011  1.00  0.00    -0.040 F  
HETATM    9  C   UNL     1      -9.445   6.932  67.011  1.00  0.00    -0.151 C  
HETATM   10  C   UNL     1      -7.962   8.328  68.531  1.00  0.00    -0.122 A  
HETATM   11  C   UNL     1      -6.471   9.852  69.920  1.00  0.00    -0.069 C  
HETATM   12  C   UNL     1      -7.760   9.093  69.695  1.00  0.00    -0.082 A  
HETATM   13  F   UNL     1     -10.611   6.229  67.017  1.00  0.00    -0.226 F  
HETATM   14  F   UNL     1      -9.546   7.811  65.980  1.00  0.00    -0.221 F  
HETATM   15  C   UNL     1      -8.805   9.198  70.628  1.00  0.00    -0.278 A  
HETATM   16  F   UNL     1      -8.472   6.049  66.669  1.00  0.00    -0.108 F  
ENDBRANCH   2   3
BRANCH   2  17
HETATM   17  O   UNL     1     -11.456  10.272  71.322  1.00  0.00    -0.318 OA 
BRANCH  17  18
HETATM   18  C   UNL     1     -12.529  10.787  70.497  1.00  0.00    -0.360 C  
HETATM   19  N   UNL     1     -11.793  13.203  70.544  1.00  0.00    -0.198 NA 
HETATM   20  C   UNL     1     -12.108  12.063  69.642  1.00  0.00    -0.230 C  
HETATM   21  O   UNL     1     -13.693  11.103  71.278  1.00  0.00     0.307 OA 
HETATM   22  C   UNL     1     -13.410  12.180  72.179  1.00  0.00    -0.333 C  
HETATM   23  C   UNL     1     -12.954  13.440  71.434  1.00  0.00    -0.328 C  
BRANCH  19  24
HETATM   24  C   UNL     1     -11.298  14.451  69.938  1.00  0.00    -0.222 C  
BRANCH  24  25
HETATM   25  C   UNL     1     -11.601  14.602  68.459  1.00  0.00    -0.317 C  
HETATM   26  O   UNL     1      -9.143  15.744  65.384  1.00  0.00    -0.153 OA 
HETATM   27  O   UNL     1     -10.389  13.901  64.338  1.00  0.00    -0.384 OA 
HETATM   28  N   UNL     1     -12.540  13.917  67.855  1.00  0.00     0.289 NA 
HETATM   29  O   UNL     1     -11.162  16.332  63.927  1.00  0.00    -0.676 OA 
HETATM   30  C   UNL     1     -12.411  14.229  66.520  1.00  0.00    -0.314 C  
HETATM   31  O   UNL     1     -12.934  13.627  65.592  1.00  0.00    -0.538 OA 
HETATM   32  P   UNL     1     -10.644  15.366  64.933  1.00  0.00    -0.098 P  
HETATM   33  N   UNL     1     -11.461  15.205  66.378  1.00  0.00    -0.231 N  
HETATM   34  N   UNL     1     -10.908  15.471  67.649  1.00  0.00    -0.300 NA 
ENDBRANCH  24  25
ENDBRANCH  19  24
BRANCH  20  35
HETATM   35  C   UNL     1     -11.028  11.669  68.638  1.00  0.00    -0.266 A  
HETATM   36  C   UNL     1      -8.842  12.096  67.636  1.00  0.00    -0.172 A  
HETATM   37  F   UNL     1      -8.258  10.988  65.636  1.00  0.00    -0.164 F  
HETATM   38  C   UNL     1      -9.785  12.339  68.639  1.00  0.00    -0.074 A  
HETATM   39  C   UNL     1     -10.349  10.505  66.610  1.00  0.00    -0.295 A  
HETATM   40  C   UNL     1     -11.286  10.736  67.621  1.00  0.00    -0.370 A  
HETATM   41  C   UNL     1      -9.142  11.190  66.621  1.00  0.00    -0.170 A  
ENDBRANCH  20  35
ENDBRANCH  17  18
ENDBRANCH   2  17
TORSDOF 6
ENDMDL
MODEL      170
REMARK 921   NORMALIZED FREE ENERGY PREDICTED BY IDOCK:   -6.21 KCAL/MOL
REMARK 922        TOTAL FREE ENERGY PREDICTED BY IDOCK:   -9.29 KCAL/MOL
REMARK 923 INTER-LIGAND FREE ENERGY PREDICTED BY IDOCK:   -7.06 KCAL/MOL
REMARK 924 INTRA-LIGAND FREE ENERGY PREDICTED BY IDOCK:   -2.22 KCAL/MOL
REMARK 927      BINDING AFFINITY PREDICTED BY RF-SCORE:    0.00 PKD
ROOT
HETATM    1  C   UNL     1      -7.807  15.280  69.461  1.00  0.00    -0.204 C  
HETATM    2  C   UNL     1      -8.183  14.309  68.351  1.00  0.00    -0.144 C  
ENDROOT
BRANCH   2   3
HETATM    3  C   UNL     1      -9.680  14.099  68.241  1.00  0.00    -0.227 A  
HETATM    4  F   UNL     1     -11.964  15.136  64.778  1.00  0.00    -0.375 F  
HETATM    5  F   UNL     1     -13.785  14.392  65.699  1.00  0.00    -0.186 F  
HETATM    6  C   UNL     1     -10.431  14.147  69.422  1.00  0.00    -0.000 A  
HETATM    7  C   UNL     1     -11.815  14.297  69.389  1.00  0.00    -0.372 A  
HETATM    8  F   UNL     1     -12.307  12.993  64.934  1.00  0.00    -0.398 F  
HETATM    9  C   UNL     1     -12.565  14.590  70.669  1.00  0.00    -0.352 C  
HETATM   10  C   UNL     1     -12.468  14.296  68.147  1.00  0.00     0.215 A  
HETATM   11  C   UNL     1     -12.444  14.168  65.605  1.00  0.00    -0.469 C  
HETATM   12  C   UNL     1     -11.745  14.155  66.947  1.00  0.00    -0.437 A  
HETATM   13  F   UNL     1     -11.799  14.448  71.786  1.00  0.00    -0.370 F  
HETATM   14  F   UNL     1     -13.030  15.867  70.696  1.00  0.00    -0.482 F  
HETATM   15  C   UNL     1     -10.345  14.065  67.005  1.00  0.00    -0.267 A  
HETATM   16  F   UNL     1     -13.644  13.785  70.845  1.00  0.00    -0.249 F  
ENDBRANCH   2   3
BRANCH   2  17
HETATM   17  O   UNL     1      -7.509  13.051  68.527  1.00  0.00    -0.119 OA 
BRANCH  17  18
HETATM   18  C   UNL     1      -7.469  12.238  67.329  1.00  0.00    -0.147 C  
HETATM   19  N   UNL     1      -6.665  10.121  68.446  1.00  0.00    -0.054 NA 
HETATM   20  C   UNL     1      -7.749  10.696  67.606  1.00  0.00    -0.097 C  
HETATM   21  O   UNL     1      -6.216  12.375  66.636  1.00  0.00    -0.086 OA 
HETATM   22  C   UNL     1      -5.147  11.856  67.436  1.00  0.00    -0.086 C  
HETATM   23  C   UNL     1      -5.364  10.378  67.784  1.00  0.00    -0.040 C  
BRANCH  19  24
HETATM   24  C   UNL     1      -6.794   8.719  68.882  1.00  0.00    -0.061 C  
BRANCH  24  25
HETATM   25  C   UNL     1      -7.293   8.541  70.304  1.00  0.00    -0.052 C  
HETATM   26  O   UNL     1     -10.220   6.070  71.762  1.00  0.00    -0.194 OA 
HETATM   27  O   UNL     1      -8.494   5.837  73.496  1.00  0.00    -0.115 OA 
HETATM   28  N   UNL     1      -6.540   8.766  71.352  1.00  0.00    -0.072 NA 
HETATM   29  O   UNL     1     -10.438   7.496  73.874  1.00  0.00    -0.254 OA 
HETATM   30  C   UNL     1      -7.295   8.363  72.431  1.00  0.00    -0.090 C  
HETATM   31  O   UNL     1      -6.879   8.185  73.568  1.00  0.00    -0.110 OA 
HETATM   32  P   UNL     1      -9.470   6.949  72.885  1.00  0.00    -0.150 P  
HETATM   33  N   UNL     1      -8.548   8.018  71.997  1.00  0.00    -0.132 N  
HETATM   34  N   UNL     1      -8.573   8.127  70.590  1.00  0.00    -0.127 NA 
ENDBRANCH  24  25
ENDBRANCH  19  24
BRANCH  20  35
HETATM   35  C   UNL     1      -9.176  10.522  68.122  1.00  0.00    -0.148 A  
HETATM   36  C   UNL     1     -11.573  10.427  67.665  1.00  0.00     0.263 A  
HETATM   37  F   UNL     1     -13.093  10.546  69.466  1.00  0.00    -0.097 F  
HETATM   38  C   UNL     1     -10.250  10.437  67.211  1.00  0.00    -0.258 A  
HETATM   39  C   UNL     1     -10.786  10.576  69.947  1.00  0.00    -0.301 A  
HETATM   40  C   UNL     1      -9.463  10.571  69.495  1.00  0.00    -0.106 A  
HETATM   41  C   UNL     1     -11.826  10.512  69.032  1.00  0.00    -0.111 A  
ENDBRANCH  20  35
ENDBRANCH  17  18
ENDBRANCH   2  17
TORSDOF 6
ENDMDL
MODEL      171
REMARK 921   NORMALIZED FREE ENERGY PREDICTED BY IDOCK:   -6.18 KCAL/MOL
REMARK 922        TOTAL FREE ENERGY PREDICTED BY IDOCK:   -9.25 KCAL/MOL
REMARK 923 INTER-LIGAND FREE ENERGY PREDICTED BY IDOCK:   -7.39 KCAL/MOL
REMARK 924 INTRA-LIGAND FREE ENERGY PREDICTED BY IDOCK:   -1.86 KCAL/MOL
REMARK 927      BINDING AFFINITY PREDICTED BY RF-SCORE:    0.00 PKD
ROOT
HETATM    1  C   UNL     1      -6.568  12.762  68.985  1.00  0.00    -0.099 C  
HETATM    2  C   UNL     1      -7.497  12.533  67.799  1.00  0.00    -0.130 C  
ENDROOT
BRANCH   2   3
HETATM    3  C   UNL     1      -8.950  12.793  68.139  1.00  0.00    -0.199 A  
HETATM    4  F   UNL     1     -10.404  16.545  69.584  1.00  0.00    -0.264 F  
HETATM    5  F   UNL     1     -12.438  15.785  69.650  1.00  0.00    -0.362 F  
HETATM    6  C   UNL     1      -9.720  11.707  68.575  1.00  0.00    -0.187 A  
HETATM    7  C   UNL     1     -10.942  11.902  69.214  1.00  0.00    -0.208 A  
HETATM    8  F   UNL     1     -11.531  16.292  67.740  1.00  0.00    -0.274 F  
HETATM    9  C   UNL     1     -11.627  10.734  69.886  1.00  0.00    -0.331 C  
HETATM   10  C   UNL     1     -11.448  13.206  69.326  1.00  0.00    -0.348 A  
HETATM   11  C   UNL     1     -11.273  15.716  68.945  1.00  0.00    -0.311 C  
HETATM   12  C   UNL     1     -10.738  14.307  68.813  1.00  0.00    -0.262 A  
HETATM   13  F   UNL     1     -11.060   9.532  69.588  1.00  0.00    -0.235 F  
HETATM   14  F   UNL     1     -11.584  10.839  71.240  1.00  0.00    -0.364 F  
HETATM   15  C   UNL     1      -9.481  14.089  68.226  1.00  0.00    -0.216 A  
HETATM   16  F   UNL     1     -12.939  10.627  69.551  1.00  0.00    -0.207 F  
ENDBRANCH   2   3
BRANCH   2  17
HETATM   17  O   UNL     1      -7.330  11.205  67.274  1.00  0.00    -0.104 OA 
BRANCH  17  18
HETATM   18  C   UNL     1      -6.727  11.170  65.958  1.00  0.00     0.044 C  
HETATM   19  N   UNL     1      -7.309   8.767  65.440  1.00  0.00    -0.084 NA 
HETATM   20  C   UNL     1      -7.456  10.167  64.959  1.00  0.00    -0.140 C  
HETATM   21  O   UNL     1      -5.329  10.841  66.024  1.00  0.00    -0.086 OA 
HETATM   22  C   UNL     1      -5.156   9.506  66.513  1.00  0.00    -0.039 C  
HETATM   23  C   UNL     1      -5.867   8.478  65.626  1.00  0.00    -0.044 C  
BRANCH  19  24
HETATM   24  C   UNL     1      -7.993   7.700  64.690  1.00  0.00    -0.136 C  
BRANCH  24  25
HETATM   25  C   UNL     1      -8.361   6.480  65.515  1.00  0.00    -0.146 C  
HETATM   26  O   UNL     1      -8.297   5.952  69.579  1.00  0.00    -0.111 OA 
HETATM   27  O   UNL     1     -10.406   4.837  68.987  1.00  0.00    -0.111 OA 
HETATM   28  N   UNL     1      -9.227   5.585  65.108  1.00  0.00     0.024 NA 
HETATM   29  O   UNL     1      -8.275   3.409  69.295  1.00  0.00    -0.059 OA 
HETATM   30  C   UNL     1      -9.387   4.730  66.175  1.00  0.00    -0.152 C  
HETATM   31  O   UNL     1     -10.278   3.900  66.298  1.00  0.00    -0.047 OA 
HETATM   32  P   UNL     1      -8.831   4.677  68.749  1.00  0.00    -0.110 P  
HETATM   33  N   UNL     1      -8.502   5.074  67.163  1.00  0.00    -0.106 N  
HETATM   34  N   UNL     1      -7.810   6.232  66.750  1.00  0.00    -0.103 NA 
ENDBRANCH  24  25
ENDBRANCH  19  24
BRANCH  20  35
HETATM   35  C   UNL     1      -8.880  10.652  64.698  1.00  0.00    -0.191 A  
HETATM   36  C   UNL     1     -10.425  12.002  63.375  1.00  0.00    -0.474 A  
HETATM   37  F   UNL     1     -12.600  12.401  64.198  1.00  0.00    -0.486 F  
HETATM   38  C   UNL     1      -9.163  11.426  63.553  1.00  0.00    -0.106 A  
HETATM   39  C   UNL     1     -11.156  11.041  65.471  1.00  0.00     0.001 A  
HETATM   40  C   UNL     1      -9.900  10.452  65.642  1.00  0.00    -0.321 A  
HETATM   41  C   UNL     1     -11.405  11.815  64.346  1.00  0.00    -0.301 A  
ENDBRANCH  20  35
ENDBRANCH  17  18
ENDBRANCH   2  17
TORSDOF 6
ENDMDL
MODEL      172
REMARK 921   NORMALIZED FREE ENERGY PREDICTED BY IDOCK:   -6.17 KCAL/MOL
REMARK 922        TOTAL FREE ENERGY PREDICTED BY IDOCK:   -9.24 KCAL/MOL
REMARK 923 INTER-LIGAND FREE ENERGY PREDICTED BY IDOCK:   -8.39 KCAL/MOL
REMARK 924 INTRA-LIGAND FREE ENERGY PREDICTED BY IDOCK:   -0.85 KCAL/MOL
REMARK 927      BINDING AFFINITY PREDICTED BY RF-SCORE:    0.00 PKD
ROOT
HETATM    1  C   UNL     1      -7.341  12.979  68.202  1.00  0.00    -0.118 C  
HETATM    2  C   UNL     1      -8.375  12.020  67.626  1.00  0.00    -0.160 C  
ENDROOT
BRANCH   2   3
HETATM    3  C   UNL     1      -9.761  12.630  67.557  1.00  0.00    -0.196 A  
HETATM    4  F   UNL     1     -11.670  13.752  63.900  1.00  0.00    -0.414 F  
HETATM    5  F   UNL     1     -13.450  14.389  64.970  1.00  0.00    -0.095 F  
HETATM    6  C   UNL     1     -10.189  13.393  68.651  1.00  0.00    -0.187 A  
HETATM    7  C   UNL     1     -11.283  14.249  68.546  1.00  0.00    -0.289 A  
HETATM    8  F   UNL     1     -13.046  12.270  64.704  1.00  0.00    -0.543 F  
HETATM    9  C   UNL     1     -11.569  15.233  69.658  1.00  0.00    -0.321 C  
HETATM   10  C   UNL     1     -12.021  14.264  67.352  1.00  0.00    -0.426 A  
HETATM   11  C   UNL     1     -12.451  13.463  64.976  1.00  0.00    -0.428 C  
HETATM   12  C   UNL     1     -11.666  13.438  66.269  1.00  0.00    -0.405 A  
HETATM   13  F   UNL     1     -10.829  15.010  70.779  1.00  0.00    -0.287 F  
HETATM   14  F   UNL     1     -11.295  16.510  69.280  1.00  0.00    -0.300 F  
HETATM   15  C   UNL     1     -10.525  12.628  66.380  1.00  0.00    -0.267 A  
HETATM   16  F   UNL     1     -12.868  15.220  70.053  1.00  0.00    -0.332 F  
ENDBRANCH   2   3
BRANCH   2  17
HETATM   17  O   UNL     1      -8.400  10.792  68.373  1.00  0.00    -0.118 OA 
BRANCH  17  18
HETATM   18  C   UNL     1      -8.918   9.665  67.624  1.00  0.00    -0.125 C  
HETATM   19  N   UNL     1      -7.304   7.950  68.537  1.00  0.00    -0.095 NA 
HETATM   20  C   UNL     1      -8.747   8.275  68.381  1.00  0.00    -0.133 C  
HETATM   21  O   UNL     1      -8.315   9.573  66.322  1.00  0.00    -0.114 OA 
HETATM   22  C   UNL     1      -6.916   9.289  66.441  1.00  0.00    -0.084 C  
HETATM   23  C   UNL     1      -6.663   7.981  67.200  1.00  0.00    -0.065 C  
BRANCH  19  24
HETATM   24  C   UNL     1      -6.943   6.739  69.293  1.00  0.00    -0.074 C  
BRANCH  24  25
HETATM   25  C   UNL     1      -7.569   5.457  68.775  1.00  0.00    -0.079 C  
HETATM   26  O   UNL     1      -6.784   3.359  65.343  1.00  0.00    -0.039 OA 
HETATM   27  O   UNL     1      -7.026   1.534  66.972  1.00  0.00    -0.037 OA 
HETATM   28  N   UNL     1      -8.092   4.554  69.568  1.00  0.00    -0.061 NA 
HETATM   29  O   UNL     1      -9.046   2.173  65.494  1.00  0.00    -0.130 OA 
HETATM   30  C   UNL     1      -8.421   3.501  68.744  1.00  0.00    -0.078 C  
HETATM   31  O   UNL     1      -8.713   2.371  69.111  1.00  0.00    -0.067 OA 
HETATM   32  P   UNL     1      -7.901   2.689  66.293  1.00  0.00    -0.083 P  
HETATM   33  N   UNL     1      -8.195   3.862  67.442  1.00  0.00    -0.094 N  
HETATM   34  N   UNL     1      -7.630   5.155  67.435  1.00  0.00    -0.087 NA 
ENDBRANCH  24  25
ENDBRANCH  19  24
BRANCH  20  35
HETATM   35  C   UNL     1      -9.584   8.285  69.658  1.00  0.00    -0.167 A  
HETATM   36  C   UNL     1      -9.778   8.814  72.034  1.00  0.00    -0.370 A  
HETATM   37  F   UNL     1     -11.579   7.919  73.269  1.00  0.00    -0.414 F  
HETATM   38  C   UNL     1      -9.096   8.922  70.819  1.00  0.00    -0.260 A  
HETATM   39  C   UNL     1     -11.458   7.440  70.964  1.00  0.00    -0.307 A  
HETATM   40  C   UNL     1     -10.784   7.561  69.745  1.00  0.00    -0.249 A  
HETATM   41  C   UNL     1     -10.947   8.059  72.096  1.00  0.00    -0.295 A  
ENDBRANCH  20  35
ENDBRANCH  17  18
ENDBRANCH   2  17
TORSDOF 6
ENDMDL
MODEL      173
REMARK 921   NORMALIZED FREE ENERGY PREDICTED BY IDOCK:   -6.16 KCAL/MOL
REMARK 922        TOTAL FREE ENERGY PREDICTED BY IDOCK:   -9.22 KCAL/MOL
REMARK 923 INTER-LIGAND FREE ENERGY PREDICTED BY IDOCK:   -7.33 KCAL/MOL
REMARK 924 INTRA-LIGAND FREE ENERGY PREDICTED BY IDOCK:   -1.89 KCAL/MOL
REMARK 927      BINDING AFFINITY PREDICTED BY RF-SCORE:    0.00 PKD
ROOT
HETATM    1  C   UNL     1     -12.844  11.095  70.603  1.00  0.00    -0.271 C  
HETATM    2  C   UNL     1     -11.373  10.702  70.652  1.00  0.00    -0.198 C  
ENDROOT
BRANCH   2   3
HETATM    3  C   UNL     1     -10.620  11.108  69.402  1.00  0.00    -0.174 A  
HETATM    4  F   UNL     1     -12.523  12.620  65.883  1.00  0.00    -0.481 F  
HETATM    5  F   UNL     1     -10.604  12.871  64.896  1.00  0.00    -0.284 F  
HETATM    6  C   UNL     1      -9.414  10.451  69.128  1.00  0.00    -0.220 A  
HETATM    7  C   UNL     1      -8.832  10.513  67.863  1.00  0.00    -0.133 A  
HETATM    8  F   UNL     1     -11.217  14.267  66.447  1.00  0.00    -0.310 F  
HETATM    9  C   UNL     1      -7.671   9.603  67.531  1.00  0.00    -0.095 C  
HETATM   10  C   UNL     1      -9.418  11.332  66.886  1.00  0.00    -0.193 A  
HETATM   11  C   UNL     1     -11.222  12.949  66.109  1.00  0.00    -0.292 C  
HETATM   12  C   UNL     1     -10.580  12.076  67.164  1.00  0.00    -0.255 A  
HETATM   13  F   UNL     1      -7.163   8.959  68.619  1.00  0.00    -0.068 F  
HETATM   14  F   UNL     1      -8.033   8.628  66.657  1.00  0.00    -0.092 F  
HETATM   15  C   UNL     1     -11.179  11.950  68.427  1.00  0.00    -0.312 A  
HETATM   16  F   UNL     1      -6.630  10.262  66.961  1.00  0.00    -0.068 F  
ENDBRANCH   2   3
BRANCH   2  17
HETATM   17  O   UNL     1     -11.232   9.292  70.891  1.00  0.00    -0.260 OA 
BRANCH  17  18
HETATM   18  C   UNL     1     -11.613   8.886  72.228  1.00  0.00    -0.262 C  
HETATM   19  N   UNL     1     -11.141   6.424  71.927  1.00  0.00    -0.255 NA 
HETATM   20  C   UNL     1     -10.811   7.615  72.753  1.00  0.00    -0.360 C  
HETATM   21  O   UNL     1     -13.025   8.627  72.321  1.00  0.00    -0.363 OA 
HETATM   22  C   UNL     1     -13.377   7.500  71.510  1.00  0.00    -0.352 C  
HETATM   23  C   UNL     1     -12.612   6.239  71.926  1.00  0.00     0.030 C  
BRANCH  19  24
HETATM   24  C   UNL     1     -10.427   5.166  72.207  1.00  0.00    -0.219 C  
BRANCH  24  25
HETATM   25  C   UNL     1      -9.770   4.526  70.997  1.00  0.00    -0.189 C  
HETATM   26  O   UNL     1      -6.725   5.914  68.631  1.00  0.00    -0.059 OA 
HETATM   27  O   UNL     1      -6.111   3.545  68.855  1.00  0.00    -0.026 OA 
HETATM   28  N   UNL     1      -9.721   3.229  70.821  1.00  0.00    -0.158 NA 
HETATM   29  O   UNL     1      -7.395   4.315  66.749  1.00  0.00    -0.077 OA 
HETATM   30  C   UNL     1      -8.938   3.048  69.703  1.00  0.00    -0.102 C  
HETATM   31  O   UNL     1      -8.449   1.987  69.338  1.00  0.00    -0.048 OA 
HETATM   32  P   UNL     1      -7.270   4.452  68.226  1.00  0.00    -0.061 P  
HETATM   33  N   UNL     1      -8.639   4.270  69.161  1.00  0.00    -0.081 N  
HETATM   34  N   UNL     1      -9.179   5.268  70.001  1.00  0.00    -0.133 NA 
ENDBRANCH  24  25
ENDBRANCH  19  24
BRANCH  20  35
HETATM   35  C   UNL     1      -9.330   7.966  72.883  1.00  0.00    -0.309 A  
HETATM   36  C   UNL     1      -7.401   8.418  74.310  1.00  0.00    -0.224 A  
HETATM   37  F   UNL     1      -5.467   9.378  73.358  1.00  0.00    -0.104 F  
HETATM   38  C   UNL     1      -8.712   7.958  74.151  1.00  0.00    -0.263 A  
HETATM   39  C   UNL     1      -7.287   8.896  71.941  1.00  0.00     0.020 A  
HETATM   40  C   UNL     1      -8.592   8.422  71.779  1.00  0.00    -0.234 A  
HETATM   41  C   UNL     1      -6.707   8.898  73.201  1.00  0.00     0.204 A  
ENDBRANCH  20  35
ENDBRANCH  17  18
ENDBRANCH   2  17
TORSDOF 6
ENDMDL
MODEL      174
REMARK 921   NORMALIZED FREE ENERGY PREDICTED BY IDOCK:   -6.15 KCAL/MOL
REMARK 922        TOTAL FREE ENERGY PREDICTED BY IDOCK:   -9.21 KCAL/MOL
REMARK 923 INTER-LIGAND FREE ENERGY PREDICTED BY IDOCK:   -6.63 KCAL/MOL
REMARK 924 INTRA-LIGAND FREE ENERGY PREDICTED BY IDOCK:   -2.58 KCAL/MOL
REMARK 927      BINDING AFFINITY PREDICTED BY RF-SCORE:    0.00 PKD
ROOT
HETATM    1  C   UNL     1     -12.327  10.595  70.337  1.00  0.00    -0.428 C  
HETATM    2  C   UNL     1     -10.841  10.267  70.398  1.00  0.00    -0.253 C  
ENDROOT
BRANCH   2   3
HETATM    3  C   UNL     1     -10.077  10.795  69.201  1.00  0.00    -0.224 A  
HETATM    4  F   UNL     1      -6.233  12.648  69.480  1.00  0.00    -0.092 F  
HETATM    5  F   UNL     1      -6.150  12.907  67.325  1.00  0.00    -0.153 F  
HETATM    6  C   UNL     1     -10.821  11.247  68.104  1.00  0.00    -0.263 A  
HETATM    7  C   UNL     1     -10.237  12.040  67.118  1.00  0.00    -0.221 A  
HETATM    8  F   UNL     1      -5.831  10.939  68.194  1.00  0.00    -0.046 F  
HETATM    9  C   UNL     1     -11.115  12.711  66.085  1.00  0.00    -0.292 C  
HETATM   10  C   UNL     1      -8.860  12.298  67.181  1.00  0.00    -0.194 A  
HETATM   11  C   UNL     1      -6.588  12.065  68.303  1.00  0.00    -0.055 C  
HETATM   12  C   UNL     1      -8.071  11.777  68.224  1.00  0.00    -0.154 A  
HETATM   13  F   UNL     1     -12.403  12.269  66.103  1.00  0.00    -0.411 F  
HETATM   14  F   UNL     1     -11.181  14.054  66.280  1.00  0.00    -0.304 F  
HETATM   15  C   UNL     1      -8.693  11.030  69.237  1.00  0.00     0.085 A  
HETATM   16  F   UNL     1     -10.669  12.529  64.816  1.00  0.00    -0.285 F  
ENDBRANCH   2   3
BRANCH   2  17
HETATM   17  O   UNL     1     -10.639   8.851  70.543  1.00  0.00    -0.201 OA 
BRANCH  17  18
HETATM   18  C   UNL     1      -9.758   8.496  71.637  1.00  0.00    -0.252 C  
HETATM   19  N   UNL     1      -9.898   5.995  71.317  1.00  0.00    -0.175 NA 
HETATM   20  C   UNL     1      -8.957   7.144  71.386  1.00  0.00    -0.135 C  
HETATM   21  O   UNL     1     -10.472   8.400  72.881  1.00  0.00    -0.262 OA 
HETATM   22  C   UNL     1     -11.410   7.318  72.834  1.00  0.00    -0.246 C  
HETATM   23  C   UNL     1     -10.719   5.979  72.552  1.00  0.00    -0.227 C  
BRANCH  19  24
HETATM   24  C   UNL     1      -9.349   4.665  71.003  1.00  0.00    -0.147 C  
BRANCH  24  25
HETATM   25  C   UNL     1      -9.414   4.282  69.536  1.00  0.00    -0.187 C  
HETATM   26  O   UNL     1     -11.029   6.320  66.367  1.00  0.00    -0.124 OA 
HETATM   27  O   UNL     1      -8.948   5.468  65.374  1.00  0.00    -0.157 OA 
HETATM   28  N   UNL     1      -8.534   3.494  68.970  1.00  0.00    -0.068 NA 
HETATM   29  O   UNL     1     -11.147   4.170  64.985  1.00  0.00    -0.180 OA 
HETATM   30  C   UNL     1      -8.851   3.504  67.630  1.00  0.00    -0.125 C  
HETATM   31  O   UNL     1      -8.140   3.091  66.724  1.00  0.00    -0.079 OA 
HETATM   32  P   UNL     1     -10.328   4.922  65.974  1.00  0.00    -0.167 P  
HETATM   33  N   UNL     1     -10.010   4.213  67.449  1.00  0.00    -0.102 N  
HETATM   34  N   UNL     1     -10.403   4.740  68.698  1.00  0.00     0.009 NA 
ENDBRANCH  24  25
ENDBRANCH  19  24
BRANCH  20  35
HETATM   35  C   UNL     1      -8.014   7.324  70.198  1.00  0.00    -0.112 A  
HETATM   36  C   UNL     1      -5.768   7.781  69.356  1.00  0.00    -0.026 A  
HETATM   37  F   UNL     1      -5.480   8.304  67.073  1.00  0.00    -0.033 F  
HETATM   38  C   UNL     1      -6.626   7.468  70.414  1.00  0.00    -0.042 A  
HETATM   39  C   UNL     1      -7.652   7.805  67.839  1.00  0.00    -0.116 A  
HETATM   40  C   UNL     1      -8.509   7.477  68.894  1.00  0.00    -0.129 A  
HETATM   41  C   UNL     1      -6.294   7.962  68.079  1.00  0.00    -0.051 A  
ENDBRANCH  20  35
ENDBRANCH  17  18
ENDBRANCH   2  17
TORSDOF 6
ENDMDL
MODEL      175
REMARK 921   NORMALIZED FREE ENERGY PREDICTED BY IDOCK:   -6.09 KCAL/MOL
REMARK 922        TOTAL FREE ENERGY PREDICTED BY IDOCK:   -9.13 KCAL/MOL
REMARK 923 INTER-LIGAND FREE ENERGY PREDICTED BY IDOCK:   -8.01 KCAL/MOL
REMARK 924 INTRA-LIGAND FREE ENERGY PREDICTED BY IDOCK:   -1.11 KCAL/MOL
REMARK 927      BINDING AFFINITY PREDICTED BY RF-SCORE:    0.00 PKD
ROOT
HETATM    1  C   UNL     1      -8.971  12.406  66.419  1.00  0.00    -0.101 C  
HETATM    2  C   UNL     1     -10.226  11.748  66.977  1.00  0.00    -0.214 C  
ENDROOT
BRANCH   2   3
HETATM    3  C   UNL     1     -10.953  12.628  67.973  1.00  0.00    -0.266 A  
HETATM    4  F   UNL     1      -9.368  16.307  69.471  1.00  0.00    -0.239 F  
HETATM    5  F   UNL     1     -11.154  16.647  70.659  1.00  0.00    -0.355 F  
HETATM    6  C   UNL     1     -11.827  12.006  68.873  1.00  0.00    -0.356 A  
HETATM    7  C   UNL     1     -12.274  12.668  70.015  1.00  0.00    -0.267 A  
HETATM    8  F   UNL     1     -11.208  16.955  68.507  1.00  0.00    -0.342 F  
HETATM    9  C   UNL     1     -13.013  11.894  71.084  1.00  0.00    -0.172 C  
HETATM   10  C   UNL     1     -11.918  14.012  70.204  1.00  0.00    -0.399 A  
HETATM   11  C   UNL     1     -10.717  16.133  69.475  1.00  0.00    -0.313 C  
HETATM   12  C   UNL     1     -11.115  14.689  69.267  1.00  0.00    -0.290 A  
HETATM   13  F   UNL     1     -13.367  10.638  70.692  1.00  0.00    -0.372 F  
HETATM   14  F   UNL     1     -12.257  11.735  72.201  1.00  0.00     0.108 F  
HETATM   15  C   UNL     1     -10.630  13.983  68.155  1.00  0.00    -0.252 A  
HETATM   16  F   UNL     1     -14.160  12.504  71.479  1.00  0.00     0.167 F  
ENDBRANCH   2   3
BRANCH   2  17
HETATM   17  O   UNL     1      -9.912  10.474  67.564  1.00  0.00    -0.165 OA 
BRANCH  17  18
HETATM   18  C   UNL     1     -10.394   9.344  66.798  1.00  0.00    -0.233 C  
HETATM   19  N   UNL     1      -8.427   7.827  67.254  1.00  0.00    -0.117 NA 
HETATM   20  C   UNL     1      -9.905   7.941  67.369  1.00  0.00    -0.181 C  
HETATM   21  O   UNL     1     -10.023   9.446  65.412  1.00  0.00    -0.235 OA 
HETATM   22  C   UNL     1      -8.600   9.370  65.273  1.00  0.00    -0.162 C  
HETATM   23  C   UNL     1      -8.042   8.060  65.841  1.00  0.00    -0.117 C  
BRANCH  19  24
HETATM   24  C   UNL     1      -7.777   6.629  67.813  1.00  0.00    -0.107 C  
BRANCH  24  25
HETATM   25  C   UNL     1      -7.106   6.840  69.157  1.00  0.00    -0.088 C  
HETATM   26  O   UNL     1      -8.314   9.092  72.362  1.00  0.00    -0.342 OA 
HETATM   27  O   UNL     1      -7.478   7.073  73.487  1.00  0.00    -0.080 OA 
HETATM   28  N   UNL     1      -6.306   5.954  69.696  1.00  0.00    -0.039 NA 
HETATM   29  O   UNL     1      -5.931   9.132  73.292  1.00  0.00    -0.270 OA 
HETATM   30  C   UNL     1      -6.020   6.444  70.951  1.00  0.00    -0.027 C  
HETATM   31  O   UNL     1      -5.502   5.814  71.863  1.00  0.00    -0.020 OA 
HETATM   32  P   UNL     1      -6.937   8.286  72.594  1.00  0.00    -0.047 P  
HETATM   33  N   UNL     1      -6.568   7.693  71.080  1.00  0.00    -0.038 N  
HETATM   34  N   UNL     1      -7.294   7.979  69.904  1.00  0.00    -0.065 NA 
ENDBRANCH  24  25
ENDBRANCH  19  24
BRANCH  20  35
HETATM   35  C   UNL     1     -10.499   7.722  68.759  1.00  0.00    -0.201 A  
HETATM   36  C   UNL     1     -11.664   6.266  70.336  1.00  0.00    -0.290 A  
HETATM   37  F   UNL     1     -12.558   7.193  72.313  1.00  0.00    -0.283 F  
HETATM   38  C   UNL     1     -10.985   6.449  69.127  1.00  0.00    -0.416 A  
HETATM   39  C   UNL     1     -11.384   8.615  70.845  1.00  0.00    -0.314 A  
HETATM   40  C   UNL     1     -10.691   8.795  69.644  1.00  0.00    -0.212 A  
HETATM   41  C   UNL     1     -11.870   7.358  71.176  1.00  0.00    -0.301 A  
ENDBRANCH  20  35
ENDBRANCH  17  18
ENDBRANCH   2  17
TORSDOF 6
ENDMDL
MODEL      176
REMARK 921   NORMALIZED FREE ENERGY PREDICTED BY IDOCK:   -6.09 KCAL/MOL
REMARK 922        TOTAL FREE ENERGY PREDICTED BY IDOCK:   -9.12 KCAL/MOL
REMARK 923 INTER-LIGAND FREE ENERGY PREDICTED BY IDOCK:   -6.69 KCAL/MOL
REMARK 924 INTRA-LIGAND FREE ENERGY PREDICTED BY IDOCK:   -2.43 KCAL/MOL
REMARK 927      BINDING AFFINITY PREDICTED BY RF-SCORE:    0.00 PKD
ROOT
HETATM    1  C   UNL     1      -6.822  12.330  69.369  1.00  0.00     0.007 C  
HETATM    2  C   UNL     1      -7.665  12.063  68.129  1.00  0.00    -0.135 C  
ENDROOT
BRANCH   2   3
HETATM    3  C   UNL     1      -9.149  12.225  68.387  1.00  0.00    -0.146 A  
HETATM    4  F   UNL     1     -11.584   9.192  70.163  1.00  0.00    -0.249 F  
HETATM    5  F   UNL     1     -13.333  10.476  70.072  1.00  0.00    -0.239 F  
HETATM    6  C   UNL     1      -9.869  13.068  67.530  1.00  0.00    -0.209 A  
HETATM    7  C   UNL     1     -11.260  13.022  67.478  1.00  0.00    -0.320 A  
HETATM    8  F   UNL     1     -11.798  10.839  71.569  1.00  0.00    -0.347 F  
HETATM    9  C   UNL     1     -11.990  13.761  66.379  1.00  0.00    -0.438 C  
HETATM   10  C   UNL     1     -11.945  12.188  68.374  1.00  0.00    -0.257 A  
HETATM   11  C   UNL     1     -11.984  10.488  70.267  1.00  0.00    -0.325 C  
HETATM   12  C   UNL     1     -11.249  11.399  69.309  1.00  0.00    -0.342 A  
HETATM   13  F   UNL     1     -11.187  14.602  65.670  1.00  0.00    -0.315 F  
HETATM   14  F   UNL     1     -12.527  12.905  65.471  1.00  0.00    -0.476 F  
HETATM   15  C   UNL     1      -9.845  11.420  69.301  1.00  0.00     0.138 A  
HETATM   16  F   UNL     1     -13.015  14.520  66.844  1.00  0.00    -0.027 F  
ENDBRANCH   2   3
BRANCH   2  17
HETATM   17  O   UNL     1      -7.384  10.758  67.596  1.00  0.00    -0.091 OA 
BRANCH  17  18
HETATM   18  C   UNL     1      -6.450  10.768  66.489  1.00  0.00    -0.119 C  
HETATM   19  N   UNL     1      -6.925   8.421  65.690  1.00  0.00    -0.066 NA 
HETATM   20  C   UNL     1      -6.905   9.848  65.273  1.00  0.00    -0.114 C  
HETATM   21  O   UNL     1      -5.129  10.383  66.908  1.00  0.00    -0.039 OA 
HETATM   22  C   UNL     1      -5.125   9.019  67.344  1.00  0.00    -0.033 C  
HETATM   23  C   UNL     1      -5.594   8.066  66.238  1.00  0.00    -0.029 C  
BRANCH  19  24
HETATM   24  C   UNL     1      -7.407   7.421  64.721  1.00  0.00    -0.077 C  
BRANCH  24  25
HETATM   25  C   UNL     1      -8.132   6.238  65.336  1.00  0.00    -0.131 C  
HETATM   26  O   UNL     1      -6.664   2.608  66.547  1.00  0.00    -0.038 OA 
HETATM   27  O   UNL     1      -8.225   3.123  68.374  1.00  0.00    -0.067 OA 
HETATM   28  N   UNL     1      -9.230   6.369  66.039  1.00  0.00    -0.109 NA 
HETATM   29  O   UNL     1      -9.005   1.578  66.455  1.00  0.00    -0.119 OA 
HETATM   30  C   UNL     1      -9.493   5.109  66.530  1.00  0.00    -0.148 C  
HETATM   31  O   UNL     1     -10.289   4.842  67.420  1.00  0.00    -0.151 OA 
HETATM   32  P   UNL     1      -8.243   2.808  66.805  1.00  0.00    -0.095 P  
HETATM   33  N   UNL     1      -8.597   4.222  65.994  1.00  0.00    -0.113 N  
HETATM   34  N   UNL     1      -7.683   4.946  65.199  1.00  0.00    -0.081 NA 
ENDBRANCH  24  25
ENDBRANCH  19  24
BRANCH  20  35
HETATM   35  C   UNL     1      -8.194  10.400  64.671  1.00  0.00    -0.137 A  
HETATM   36  C   UNL     1     -10.618  10.675  64.797  1.00  0.00    -0.184 A  
HETATM   37  F   UNL     1     -11.791  11.429  62.893  1.00  0.00    -0.263 F  
HETATM   38  C   UNL     1      -9.405  10.311  65.391  1.00  0.00    -0.258 A  
HETATM   39  C   UNL     1      -9.446  11.236  62.756  1.00  0.00    -0.355 A  
HETATM   40  C   UNL     1      -8.231  10.887  63.354  1.00  0.00     0.130 A  
HETATM   41  C   UNL     1     -10.626  11.121  63.477  1.00  0.00    -0.324 A  
ENDBRANCH  20  35
ENDBRANCH  17  18
ENDBRANCH   2  17
TORSDOF 6
ENDMDL
MODEL      177
REMARK 921   NORMALIZED FREE ENERGY PREDICTED BY IDOCK:   -6.03 KCAL/MOL
REMARK 922        TOTAL FREE ENERGY PREDICTED BY IDOCK:   -9.04 KCAL/MOL
REMARK 923 INTER-LIGAND FREE ENERGY PREDICTED BY IDOCK:   -7.99 KCAL/MOL
REMARK 924 INTRA-LIGAND FREE ENERGY PREDICTED BY IDOCK:   -1.05 KCAL/MOL
REMARK 927      BINDING AFFINITY PREDICTED BY RF-SCORE:    0.00 PKD
ROOT
HETATM    1  C   UNL     1      -7.049  12.029  67.369  1.00  0.00    -0.136 C  
HETATM    2  C   UNL     1      -8.278  11.251  67.823  1.00  0.00    -0.120 C  
ENDROOT
BRANCH   2   3
HETATM    3  C   UNL     1      -8.645  10.132  66.870  1.00  0.00    -0.127 A  
HETATM    4  F   UNL     1      -9.760   6.208  68.151  1.00  0.00    -0.119 F  
HETATM    5  F   UNL     1     -10.075   5.576  66.097  1.00  0.00    -0.187 F  
HETATM    6  C   UNL     1      -8.057  10.143  65.599  1.00  0.00    -0.149 A  
HETATM    7  C   UNL     1      -8.069   9.007  64.791  1.00  0.00    -0.144 A  
HETATM    8  F   UNL     1     -11.532   6.863  67.071  1.00  0.00    -0.445 F  
HETATM    9  C   UNL     1      -7.222   8.973  63.540  1.00  0.00    -0.092 C  
HETATM   10  C   UNL     1      -8.772   7.873  65.226  1.00  0.00    -0.032 A  
HETATM   11  C   UNL     1     -10.196   6.642  66.937  1.00  0.00    -0.220 C  
HETATM   12  C   UNL     1      -9.450   7.868  66.459  1.00  0.00    -0.277 A  
HETATM   13  F   UNL     1      -6.695  10.186  63.212  1.00  0.00    -0.120 F  
HETATM   14  F   UNL     1      -6.163   8.133  63.673  1.00  0.00    -0.067 F  
HETATM   15  C   UNL     1      -9.373   9.004  67.280  1.00  0.00    -0.172 A  
HETATM   16  F   UNL     1      -7.910   8.553  62.447  1.00  0.00    -0.114 F  
ENDBRANCH   2   3
BRANCH   2  17
HETATM   17  O   UNL     1      -9.394  12.135  68.017  1.00  0.00    -0.185 OA 
BRANCH  17  18
HETATM   18  C   UNL     1      -9.572  13.095  66.947  1.00  0.00    -0.248 C  
HETATM   19  N   UNL     1     -10.963  14.741  68.264  1.00  0.00    -0.250 NA 
HETATM   20  C   UNL     1      -9.719  14.593  67.463  1.00  0.00    -0.210 C  
HETATM   21  O   UNL     1     -10.702  12.765  66.121  1.00  0.00    -0.269 OA 
HETATM   22  C   UNL     1     -11.915  12.869  66.876  1.00  0.00    -0.335 C  
HETATM   23  C   UNL     1     -12.111  14.279  67.447  1.00  0.00    -0.336 C  
BRANCH  19  24
HETATM   24  C   UNL     1     -11.228  16.042  68.902  1.00  0.00    -0.353 C  
BRANCH  24  25
HETATM   25  C   UNL     1     -10.723  17.244  68.125  1.00  0.00    -0.363 C  
HETATM   26  O   UNL     1      -7.201  19.307  68.491  1.00  0.00    -0.285 OA 
HETATM   27  O   UNL     1      -7.436  19.197  66.047  1.00  0.00    -0.266 OA 
HETATM   28  N   UNL     1     -11.096  17.500  66.895  1.00  0.00     0.155 NA 
HETATM   29  O   UNL     1      -8.205  21.329  67.286  1.00  0.00    -0.144 OA 
HETATM   30  C   UNL     1     -10.327  18.572  66.503  1.00  0.00    -0.414 C  
HETATM   31  O   UNL     1     -10.192  18.972  65.354  1.00  0.00    -0.339 OA 
HETATM   32  P   UNL     1      -8.167  19.841  67.316  1.00  0.00    -0.330 P  
HETATM   33  N   UNL     1      -9.592  19.013  67.572  1.00  0.00    -0.301 N  
HETATM   34  N   UNL     1      -9.836  18.148  68.660  1.00  0.00    -0.365 NA 
ENDBRANCH  24  25
ENDBRANCH  19  24
BRANCH  20  35
HETATM   35  C   UNL     1      -8.419  15.030  68.136  1.00  0.00    -0.151 A  
HETATM   36  C   UNL     1      -7.047  15.171  70.151  1.00  0.00     0.049 A  
HETATM   37  F   UNL     1      -5.161  16.588  70.162  1.00  0.00    -0.133 F  
HETATM   38  C   UNL     1      -8.157  14.659  69.472  1.00  0.00     0.099 A  
HETATM   39  C   UNL     1      -6.426  16.427  68.179  1.00  0.00    -0.135 A  
HETATM   40  C   UNL     1      -7.527  15.904  67.495  1.00  0.00    -0.194 A  
HETATM   41  C   UNL     1      -6.200  16.064  69.500  1.00  0.00    -0.172 A  
ENDBRANCH  20  35
ENDBRANCH  17  18
ENDBRANCH   2  17
TORSDOF 6
ENDMDL
MODEL      178
REMARK 921   NORMALIZED FREE ENERGY PREDICTED BY IDOCK:   -5.98 KCAL/MOL
REMARK 922        TOTAL FREE ENERGY PREDICTED BY IDOCK:   -8.98 KCAL/MOL
REMARK 923 INTER-LIGAND FREE ENERGY PREDICTED BY IDOCK:   -7.49 KCAL/MOL
REMARK 924 INTRA-LIGAND FREE ENERGY PREDICTED BY IDOCK:   -1.49 KCAL/MOL
REMARK 927      BINDING AFFINITY PREDICTED BY RF-SCORE:    0.00 PKD
ROOT
HETATM    1  C   UNL     1      -9.035   9.888  63.382  1.00  0.00    -0.278 C  
HETATM    2  C   UNL     1      -8.084   9.523  64.515  1.00  0.00    -0.142 C  
ENDROOT
BRANCH   2   3
HETATM    3  C   UNL     1      -8.265   8.096  64.990  1.00  0.00    -0.157 A  
HETATM    4  F   UNL     1      -7.954   4.692  62.421  1.00  0.00    -0.059 F  
HETATM    5  F   UNL     1      -8.317   3.344  64.085  1.00  0.00    -0.088 F  
HETATM    6  C   UNL     1      -9.115   7.878  66.082  1.00  0.00    -0.210 A  
HETATM    7  C   UNL     1      -9.596   6.604  66.375  1.00  0.00    -0.147 A  
HETATM    8  F   UNL     1      -6.383   4.316  63.879  1.00  0.00    -0.026 F  
HETATM    9  C   UNL     1     -10.696   6.440  67.400  1.00  0.00    -0.336 C  
HETATM   10  C   UNL     1      -9.136   5.514  65.620  1.00  0.00    -0.131 A  
HETATM   11  C   UNL     1      -7.721   4.524  63.751  1.00  0.00    -0.072 C  
HETATM   12  C   UNL     1      -8.209   5.694  64.576  1.00  0.00    -0.125 A  
HETATM   13  F   UNL     1     -10.945   7.575  68.109  1.00  0.00    -0.206 F  
HETATM   14  F   UNL     1     -11.875   6.098  66.819  1.00  0.00     0.091 F  
HETATM   15  C   UNL     1      -7.784   6.995  64.263  1.00  0.00    -0.117 A  
HETATM   16  F   UNL     1     -10.424   5.474  68.315  1.00  0.00    -0.216 F  
ENDBRANCH   2   3
BRANCH   2  17
HETATM   17  O   UNL     1      -8.225  10.443  65.611  1.00  0.00    -0.148 OA 
BRANCH  17  18
HETATM   18  C   UNL     1      -7.465  10.070  66.786  1.00  0.00    -0.096 C  
HETATM   19  N   UNL     1      -7.396  12.370  67.825  1.00  0.00    -0.110 NA 
HETATM   20  C   UNL     1      -7.802  10.960  68.062  1.00  0.00    -0.107 C  
HETATM   21  O   UNL     1      -6.050  10.114  66.538  1.00  0.00    -0.062 OA 
HETATM   22  C   UNL     1      -5.634  11.460  66.276  1.00  0.00    -0.082 C  
HETATM   23  C   UNL     1      -5.963  12.395  67.446  1.00  0.00    -0.154 C  
BRANCH  19  24
HETATM   24  C   UNL     1      -7.708  13.367  68.864  1.00  0.00     0.049 C  
BRANCH  24  25
HETATM   25  C   UNL     1      -8.701  14.434  68.442  1.00  0.00    -0.180 C  
HETATM   26  O   UNL     1      -8.351  17.352  65.584  1.00  0.00    -0.487 OA 
HETATM   27  O   UNL     1     -10.662  16.600  65.216  1.00  0.00    -0.550 OA 
HETATM   28  N   UNL     1      -9.996  14.283  68.560  1.00  0.00    -0.232 NA 
HETATM   29  O   UNL     1     -10.240  18.699  66.662  1.00  0.00    -0.356 OA 
HETATM   30  C   UNL     1     -10.545  15.389  67.950  1.00  0.00    -0.267 C  
HETATM   31  O   UNL     1     -11.719  15.522  67.634  1.00  0.00    -0.229 OA 
HETATM   32  P   UNL     1      -9.776  17.323  66.336  1.00  0.00    -0.259 P  
HETATM   33  N   UNL     1      -9.539  16.246  67.587  1.00  0.00    -0.226 N  
HETATM   34  N   UNL     1      -8.306  15.636  67.902  1.00  0.00    -0.144 NA 
ENDBRANCH  24  25
ENDBRANCH  19  24
BRANCH  20  35
HETATM   35  C   UNL     1      -9.254  10.729  68.475  1.00  0.00    -0.174 A  
HETATM   36  C   UNL     1     -11.635  10.968  67.988  1.00  0.00    -0.326 A  
HETATM   37  F   UNL     1     -13.205  10.592  69.708  1.00  0.00    -0.182 F  
HETATM   38  C   UNL     1     -10.300  11.032  67.577  1.00  0.00    -0.233 A  
HETATM   39  C   UNL     1     -10.919  10.290  70.196  1.00  0.00    -0.377 A  
HETATM   40  C   UNL     1      -9.585  10.338  69.782  1.00  0.00    -0.146 A  
HETATM   41  C   UNL     1     -11.930  10.612  69.301  1.00  0.00    -0.197 A  
ENDBRANCH  20  35
ENDBRANCH  17  18
ENDBRANCH   2  17
TORSDOF 6
ENDMDL
MODEL      179
REMARK 921   NORMALIZED FREE ENERGY PREDICTED BY IDOCK:   -5.95 KCAL/MOL
REMARK 922        TOTAL FREE ENERGY PREDICTED BY IDOCK:   -8.94 KCAL/MOL
REMARK 923 INTER-LIGAND FREE ENERGY PREDICTED BY IDOCK:   -7.27 KCAL/MOL
REMARK 924 INTRA-LIGAND FREE ENERGY PREDICTED BY IDOCK:   -1.67 KCAL/MOL
REMARK 927      BINDING AFFINITY PREDICTED BY RF-SCORE:    0.00 PKD
ROOT
HETATM    1  C   UNL     1     -10.586  10.939  65.146  1.00  0.00    -0.268 C  
HETATM    2  C   UNL     1     -10.978  11.126  66.606  1.00  0.00    -0.228 C  
ENDROOT
BRANCH   2   3
HETATM    3  C   UNL     1     -11.319  12.563  66.940  1.00  0.00    -0.383 A  
HETATM    4  F   UNL     1      -9.236  15.924  65.311  1.00  0.00    -0.176 F  
HETATM    5  F   UNL     1     -10.531  17.303  66.378  1.00  0.00    -0.315 F  
HETATM    6  C   UNL     1     -11.871  12.824  68.200  1.00  0.00    -0.372 A  
HETATM    7  C   UNL     1     -11.905  14.118  68.716  1.00  0.00    -0.384 A  
HETATM    8  F   UNL     1     -11.271  16.261  64.619  1.00  0.00    -0.447 F  
HETATM    9  C   UNL     1     -12.279  14.333  70.166  1.00  0.00    -0.345 C  
HETATM   10  C   UNL     1     -11.471  15.182  67.911  1.00  0.00    -0.344 A  
HETATM   11  C   UNL     1     -10.516  16.100  65.739  1.00  0.00    -0.367 C  
HETATM   12  C   UNL     1     -10.998  14.957  66.605  1.00  0.00    -0.325 A  
HETATM   13  F   UNL     1     -12.774  13.215  70.766  1.00  0.00    -0.380 F  
HETATM   14  F   UNL     1     -11.206  14.710  70.909  1.00  0.00    -0.282 F  
HETATM   15  C   UNL     1     -10.918  13.638  66.130  1.00  0.00    -0.285 A  
HETATM   16  F   UNL     1     -13.219  15.299  70.331  1.00  0.00    -0.374 F  
ENDBRANCH   2   3
BRANCH   2  17
HETATM   17  O   UNL     1      -9.943  10.637  67.476  1.00  0.00    -0.165 OA 
BRANCH  17  18
HETATM   18  C   UNL     1      -8.618  11.112  67.129  1.00  0.00    -0.139 C  
HETATM   19  N   UNL     1      -7.345   9.522  68.622  1.00  0.00    -0.074 NA 
HETATM   20  C   UNL     1      -7.502   9.980  67.216  1.00  0.00    -0.091 C  
HETATM   21  O   UNL     1      -8.226  12.228  67.946  1.00  0.00    -0.140 OA 
HETATM   22  C   UNL     1      -8.095  11.822  69.313  1.00  0.00     0.389 C  
HETATM   23  C   UNL     1      -7.064  10.699  69.477  1.00  0.00    -0.127 C  
BRANCH  19  24
HETATM   24  C   UNL     1      -6.414   8.411  68.890  1.00  0.00    -0.049 C  
BRANCH  24  25
HETATM   25  C   UNL     1      -6.920   7.386  69.888  1.00  0.00    -0.060 C  
HETATM   26  O   UNL     1      -7.151   7.605  73.975  1.00  0.00    -0.098 OA 
HETATM   27  O   UNL     1      -9.293   6.528  73.434  1.00  0.00    -0.131 OA 
HETATM   28  N   UNL     1      -7.820   6.485  69.583  1.00  0.00    -0.109 NA 
HETATM   29  O   UNL     1      -7.294   5.056  74.149  1.00  0.00    -0.081 OA 
HETATM   30  C   UNL     1      -8.109   5.850  70.770  1.00  0.00    -0.119 C  
HETATM   31  O   UNL     1      -9.063   5.110  70.971  1.00  0.00    -0.139 OA 
HETATM   32  P   UNL     1      -7.722   6.234  73.347  1.00  0.00    -0.097 P  
HETATM   33  N   UNL     1      -7.266   6.315  71.745  1.00  0.00    -0.085 N  
HETATM   34  N   UNL     1      -6.467   7.335  71.186  1.00  0.00    -0.043 NA 
ENDBRANCH  24  25
ENDBRANCH  19  24
BRANCH  20  35
HETATM   35  C   UNL     1      -7.789   8.901  66.175  1.00  0.00    -0.102 A  
HETATM   36  C   UNL     1      -8.867   6.790  65.587  1.00  0.00    -0.043 A  
HETATM   37  F   UNL     1      -8.235   5.690  63.597  1.00  0.00    -0.110 F  
HETATM   38  C   UNL     1      -8.703   7.865  66.466  1.00  0.00    -0.162 A  
HETATM   39  C   UNL     1      -7.221   7.757  64.102  1.00  0.00    -0.080 A  
HETATM   40  C   UNL     1      -7.068   8.841  64.972  1.00  0.00    -0.080 A  
HETATM   41  C   UNL     1      -8.110   6.740  64.419  1.00  0.00    -0.058 A  
ENDBRANCH  20  35
ENDBRANCH  17  18
ENDBRANCH   2  17
TORSDOF 6
ENDMDL
MODEL      180
REMARK 921   NORMALIZED FREE ENERGY PREDICTED BY IDOCK:   -5.93 KCAL/MOL
REMARK 922        TOTAL FREE ENERGY PREDICTED BY IDOCK:   -8.91 KCAL/MOL
REMARK 923 INTER-LIGAND FREE ENERGY PREDICTED BY IDOCK:   -7.65 KCAL/MOL
REMARK 924 INTRA-LIGAND FREE ENERGY PREDICTED BY IDOCK:   -1.25 KCAL/MOL
REMARK 927      BINDING AFFINITY PREDICTED BY RF-SCORE:    0.00 PKD
ROOT
HETATM    1  C   UNL     1     -10.870   5.750  68.015  1.00  0.00    -0.251 C  
HETATM    2  C   UNL     1      -9.405   5.869  68.413  1.00  0.00    -0.120 C  
ENDROOT
BRANCH   2   3
HETATM    3  C   UNL     1      -9.187   5.677  69.900  1.00  0.00    -0.173 A  
HETATM    4  F   UNL     1     -10.008   2.017  71.955  1.00  0.00    -0.189 F  
HETATM    5  F   UNL     1      -9.320   2.863  73.834  1.00  0.00    -0.083 F  
HETATM    6  C   UNL     1      -9.307   6.802  70.725  1.00  0.00    -0.161 A  
HETATM    7  C   UNL     1      -9.453   6.671  72.104  1.00  0.00    -0.146 A  
HETATM    8  F   UNL     1      -7.878   2.282  72.314  1.00  0.00    -0.048 F  
HETATM    9  C   UNL     1      -9.823   7.880  72.933  1.00  0.00    -0.282 C  
HETATM   10  C   UNL     1      -9.375   5.392  72.676  1.00  0.00    -0.152 A  
HETATM   11  C   UNL     1      -9.092   2.870  72.490  1.00  0.00    -0.087 C  
HETATM   12  C   UNL     1      -9.162   4.252  71.879  1.00  0.00    -0.173 A  
HETATM   13  F   UNL     1      -9.751   9.051  72.241  1.00  0.00    -0.374 F  
HETATM   14  F   UNL     1     -11.099   7.799  73.395  1.00  0.00    -0.435 F  
HETATM   15  C   UNL     1      -9.077   4.405  70.486  1.00  0.00    -0.174 A  
HETATM   16  F   UNL     1      -9.029   8.035  74.024  1.00  0.00    -0.307 F  
ENDBRANCH   2   3
BRANCH   2  17
HETATM   17  O   UNL     1      -8.863   7.128  67.982  1.00  0.00    -0.129 OA 
BRANCH  17  18
HETATM   18  C   UNL     1      -7.605   7.009  67.273  1.00  0.00    -0.108 C  
HETATM   19  N   UNL     1      -8.153   8.659  65.440  1.00  0.00    -0.114 NA 
HETATM   20  C   UNL     1      -7.179   8.345  66.519  1.00  0.00    -0.076 C  
HETATM   21  O   UNL     1      -7.628   5.922  66.332  1.00  0.00    -0.088 OA 
HETATM   22  C   UNL     1      -8.581   6.183  65.295  1.00  0.00    -0.077 C  
HETATM   23  C   UNL     1      -8.264   7.482  64.545  1.00  0.00    -0.033 C  
BRANCH  19  24
HETATM   24  C   UNL     1      -7.973   9.911  64.685  1.00  0.00    -0.141 C  
BRANCH  24  25
HETATM   25  C   UNL     1      -9.141  10.877  64.772  1.00  0.00    -0.178 C  
HETATM   26  O   UNL     1      -9.493  14.376  66.877  1.00  0.00    -0.236 OA 
HETATM   27  O   UNL     1     -10.551  14.994  64.746  1.00  0.00    -0.402 OA 
HETATM   28  N   UNL     1     -10.018  11.014  63.809  1.00  0.00    -0.316 NA 
HETATM   29  O   UNL     1     -12.045  14.265  66.724  1.00  0.00    -0.430 OA 
HETATM   30  C   UNL     1     -10.820  12.064  64.201  1.00  0.00    -0.352 C  
HETATM   31  O   UNL     1     -11.609  12.666  63.486  1.00  0.00    -0.465 OA 
HETATM   32  P   UNL     1     -10.782  14.003  65.982  1.00  0.00    -0.309 P  
HETATM   33  N   UNL     1     -10.467  12.448  65.468  1.00  0.00    -0.268 N  
HETATM   34  N   UNL     1      -9.355  11.677  65.869  1.00  0.00    -0.227 NA 
ENDBRANCH  24  25
ENDBRANCH  19  24
BRANCH  20  35
HETATM   35  C   UNL     1      -6.920   9.447  67.544  1.00  0.00    -0.077 A  
HETATM   36  C   UNL     1      -7.799  11.111  69.100  1.00  0.00    -0.065 A  
HETATM   37  F   UNL     1      -6.348  12.759  69.964  1.00  0.00    -0.131 F  
HETATM   38  C   UNL     1      -7.995  10.004  68.269  1.00  0.00    -0.097 A  
HETATM   39  C   UNL     1      -5.452  11.130  68.515  1.00  0.00    -0.043 A  
HETATM   40  C   UNL     1      -5.644  10.014  67.696  1.00  0.00    -0.042 A  
HETATM   41  C   UNL     1      -6.529  11.673  69.202  1.00  0.00    -0.095 A  
ENDBRANCH  20  35
ENDBRANCH  17  18
ENDBRANCH   2  17
TORSDOF 6
ENDMDL
MODEL      181
REMARK 921   NORMALIZED FREE ENERGY PREDICTED BY IDOCK:   -5.91 KCAL/MOL
REMARK 922        TOTAL FREE ENERGY PREDICTED BY IDOCK:   -8.88 KCAL/MOL
REMARK 923 INTER-LIGAND FREE ENERGY PREDICTED BY IDOCK:   -6.46 KCAL/MOL
REMARK 924 INTRA-LIGAND FREE ENERGY PREDICTED BY IDOCK:   -2.42 KCAL/MOL
REMARK 927      BINDING AFFINITY PREDICTED BY RF-SCORE:    0.00 PKD
ROOT
HETATM    1  C   UNL     1      -8.944   8.069  73.502  1.00  0.00    -0.327 C  
HETATM    2  C   UNL     1      -8.456   8.410  72.100  1.00  0.00    -0.181 C  
ENDROOT
BRANCH   2   3
HETATM    3  C   UNL     1      -9.555   8.970  71.220  1.00  0.00    -0.361 A  
HETATM    4  F   UNL     1      -8.954  12.150  68.426  1.00  0.00    -0.176 F  
HETATM    5  F   UNL     1     -11.028  12.044  67.788  1.00  0.00    -0.218 F  
HETATM    6  C   UNL     1     -10.868   8.912  71.705  1.00  0.00    -0.420 A  
HETATM    7  C   UNL     1     -11.879   9.682  71.134  1.00  0.00    -0.448 A  
HETATM    8  F   UNL     1      -9.615  10.524  67.140  1.00  0.00    -0.172 F  
HETATM    9  C   UNL     1     -13.219   9.784  71.827  1.00  0.00    -0.436 C  
HETATM   10  C   UNL     1     -11.589  10.446  69.994  1.00  0.00    -0.378 A  
HETATM   11  C   UNL     1      -9.979  11.282  68.210  1.00  0.00    -0.195 C  
HETATM   12  C   UNL     1     -10.299  10.449  69.431  1.00  0.00    -0.259 A  
HETATM   13  F   UNL     1     -13.364   8.900  72.853  1.00  0.00    -0.465 F  
HETATM   14  F   UNL     1     -13.411  11.015  72.368  1.00  0.00    -0.528 F  
HETATM   15  C   UNL     1      -9.283   9.711  70.059  1.00  0.00    -0.275 A  
HETATM   16  F   UNL     1     -14.265   9.566  70.989  1.00  0.00    -0.310 F  
ENDBRANCH   2   3
BRANCH   2  17
HETATM   17  O   UNL     1      -7.848   7.263  71.482  1.00  0.00    -0.090 OA 
BRANCH  17  18
HETATM   18  C   UNL     1      -6.442   7.110  71.792  1.00  0.00    -0.047 C  
HETATM   19  N   UNL     1      -5.835   5.787  69.729  1.00  0.00    -0.022 NA 
HETATM   20  C   UNL     1      -5.518   7.019  70.499  1.00  0.00    -0.023 C  
HETATM   21  O   UNL     1      -6.206   5.962  72.626  1.00  0.00    -0.049 OA 
HETATM   22  C   UNL     1      -6.531   4.760  71.918  1.00  0.00    -0.030 C  
HETATM   23  C   UNL     1      -5.711   4.617  70.631  1.00  0.00    -0.016 C  
BRANCH  19  24
HETATM   24  C   UNL     1      -5.140   5.571  68.448  1.00  0.00    -0.003 C  
BRANCH  24  25
HETATM   25  C   UNL     1      -5.964   4.857  67.391  1.00  0.00    -0.023 C  
HETATM   26  O   UNL     1      -9.676   5.766  65.910  1.00  0.00    -0.079 OA 
HETATM   27  O   UNL     1      -8.488   5.126  63.856  1.00  0.00    -0.133 OA 
HETATM   28  N   UNL     1      -5.424   4.145  66.434  1.00  0.00    -0.013 NA 
HETATM   29  O   UNL     1      -9.968   3.375  65.047  1.00  0.00    -0.119 OA 
HETATM   30  C   UNL     1      -6.473   3.787  65.617  1.00  0.00    -0.033 C  
HETATM   31  O   UNL     1      -6.374   3.322  64.490  1.00  0.00    -0.023 OA 
HETATM   32  P   UNL     1      -8.985   4.477  65.232  1.00  0.00    -0.154 P  
HETATM   33  N   UNL     1      -7.648   4.199  66.189  1.00  0.00    -0.088 N  
HETATM   34  N   UNL     1      -7.338   4.912  67.367  1.00  0.00    -0.077 NA 
ENDBRANCH  24  25
ENDBRANCH  19  24
BRANCH  20  35
HETATM   35  C   UNL     1      -5.584   8.338  69.732  1.00  0.00    -0.026 A  
HETATM   36  C   UNL     1      -5.398  10.772  69.730  1.00  0.00    -0.040 A  
HETATM   37  F   UNL     1      -6.205  11.986  67.875  1.00  0.00    -0.055 F  
HETATM   38  C   UNL     1      -5.205   9.541  70.364  1.00  0.00    -0.028 A  
HETATM   39  C   UNL     1      -6.341   9.634  67.816  1.00  0.00    -0.053 A  
HETATM   40  C   UNL     1      -6.135   8.401  68.443  1.00  0.00    -0.046 A  
HETATM   41  C   UNL     1      -5.980  10.806  68.465  1.00  0.00    -0.043 A  
ENDBRANCH  20  35
ENDBRANCH  17  18
ENDBRANCH   2  17
TORSDOF 6
ENDMDL
MODEL      182
REMARK 921   NORMALIZED FREE ENERGY PREDICTED BY IDOCK:   -5.90 KCAL/MOL
REMARK 922        TOTAL FREE ENERGY PREDICTED BY IDOCK:   -8.87 KCAL/MOL
REMARK 923 INTER-LIGAND FREE ENERGY PREDICTED BY IDOCK:   -7.45 KCAL/MOL
REMARK 924 INTRA-LIGAND FREE ENERGY PREDICTED BY IDOCK:   -1.42 KCAL/MOL
REMARK 927      BINDING AFFINITY PREDICTED BY RF-SCORE:    0.00 PKD
ROOT
HETATM    1  C   UNL     1     -10.200   5.631  68.655  1.00  0.00    -0.263 C  
HETATM    2  C   UNL     1     -10.115   6.484  67.396  1.00  0.00    -0.162 C  
ENDROOT
BRANCH   2   3
HETATM    3  C   UNL     1      -9.471   5.751  66.237  1.00  0.00    -0.166 A  
HETATM    4  F   UNL     1      -8.685   1.548  66.245  1.00  0.00    -0.094 F  
HETATM    5  F   UNL     1      -7.877   1.647  64.231  1.00  0.00    -0.059 F  
HETATM    6  C   UNL     1      -8.581   6.469  65.428  1.00  0.00    -0.076 A  
HETATM    7  C   UNL     1      -7.705   5.814  64.566  1.00  0.00    -0.095 A  
HETATM    8  F   UNL     1     -10.025   1.764  64.545  1.00  0.00    -0.108 F  
HETATM    9  C   UNL     1      -6.598   6.595  63.893  1.00  0.00    -0.041 C  
HETATM   10  C   UNL     1      -7.793   4.420  64.438  1.00  0.00    -0.086 A  
HETATM   11  C   UNL     1      -8.831   2.178  65.048  1.00  0.00    -0.120 C  
HETATM   12  C   UNL     1      -8.742   3.682  65.171  1.00  0.00    -0.116 A  
HETATM   13  F   UNL     1      -6.724   7.943  64.038  1.00  0.00    -0.058 F  
HETATM   14  F   UNL     1      -5.379   6.279  64.405  1.00  0.00    -0.016 F  
HETATM   15  C   UNL     1      -9.574   4.360  66.077  1.00  0.00    -0.190 A  
HETATM   16  F   UNL     1      -6.525   6.363  62.557  1.00  0.00    -0.032 F  
ENDBRANCH   2   3
BRANCH   2  17
HETATM   17  O   UNL     1      -9.422   7.715  67.663  1.00  0.00    -0.140 OA 
BRANCH  17  18
HETATM   18  C   UNL     1      -8.522   7.644  68.795  1.00  0.00    -0.129 C  
HETATM   19  N   UNL     1      -7.685  10.022  68.646  1.00  0.00    -0.084 NA 
HETATM   20  C   UNL     1      -8.343   9.037  69.545  1.00  0.00    -0.117 C  
HETATM   21  O   UNL     1      -7.230   7.140  68.415  1.00  0.00    -0.085 OA 
HETATM   22  C   UNL     1      -6.584   8.057  67.523  1.00  0.00    -0.058 C  
HETATM   23  C   UNL     1      -6.411   9.442  68.158  1.00  0.00    -0.054 C  
BRANCH  19  24
HETATM   24  C   UNL     1      -7.511  11.400  69.135  1.00  0.00    -0.057 C  
BRANCH  24  25
HETATM   25  C   UNL     1      -8.169  12.466  68.277  1.00  0.00    -0.170 C  
HETATM   26  O   UNL     1     -11.319  12.154  65.674  1.00  0.00    -0.328 OA 
HETATM   27  O   UNL     1     -11.834  14.282  66.791  1.00  0.00    -0.393 OA 
HETATM   28  N   UNL     1      -8.171  13.734  68.602  1.00  0.00    -0.120 NA 
HETATM   29  O   UNL     1     -10.629  14.322  64.505  1.00  0.00    -0.388 OA 
HETATM   30  C   UNL     1      -8.972  14.344  67.662  1.00  0.00    -0.192 C  
HETATM   31  O   UNL     1      -9.426  15.478  67.738  1.00  0.00    -0.203 OA 
HETATM   32  P   UNL     1     -10.726  13.645  65.827  1.00  0.00    -0.292 P  
HETATM   33  N   UNL     1      -9.331  13.424  66.713  1.00  0.00    -0.254 N  
HETATM   34  N   UNL     1      -8.811  12.169  67.098  1.00  0.00    -0.185 NA 
ENDBRANCH  24  25
ENDBRANCH  19  24
BRANCH  20  35
HETATM   35  C   UNL     1      -9.675   9.459  70.160  1.00  0.00    -0.274 A  
HETATM   36  C   UNL     1     -11.377   9.160  71.886  1.00  0.00    -0.416 A  
HETATM   37  F   UNL     1     -13.481  10.192  71.619  1.00  0.00    -0.418 F  
HETATM   38  C   UNL     1     -10.098   8.898  71.384  1.00  0.00    -0.379 A  
HETATM   39  C   UNL     1     -11.841  10.555  69.965  1.00  0.00    -0.388 A  
HETATM   40  C   UNL     1     -10.557  10.306  69.470  1.00  0.00    -0.270 A  
HETATM   41  C   UNL     1     -12.242   9.975  71.160  1.00  0.00    -0.380 A  
ENDBRANCH  20  35
ENDBRANCH  17  18
ENDBRANCH   2  17
TORSDOF 6
ENDMDL
MODEL      183
REMARK 921   NORMALIZED FREE ENERGY PREDICTED BY IDOCK:   -5.85 KCAL/MOL
REMARK 922        TOTAL FREE ENERGY PREDICTED BY IDOCK:   -8.81 KCAL/MOL
REMARK 923 INTER-LIGAND FREE ENERGY PREDICTED BY IDOCK:   -9.93 KCAL/MOL
REMARK 924 INTRA-LIGAND FREE ENERGY PREDICTED BY IDOCK:    1.12 KCAL/MOL
REMARK 927      BINDING AFFINITY PREDICTED BY RF-SCORE:    0.00 PKD
ROOT
HETATM    1  C   UNL     1      -7.716  11.735  68.637  1.00  0.00    -0.126 C  
HETATM    2  C   UNL     1      -8.999  11.157  68.055  1.00  0.00    -0.149 C  
ENDROOT
BRANCH   2   3
HETATM    3  C   UNL     1      -9.137  11.423  66.570  1.00  0.00    -0.193 A  
HETATM    4  F   UNL     1     -12.755  12.781  64.738  1.00  0.00    -0.497 F  
HETATM    5  F   UNL     1     -11.800  12.842  62.788  1.00  0.00    -0.429 F  
HETATM    6  C   UNL     1      -8.334  10.676  65.699  1.00  0.00    -0.162 A  
HETATM    7  C   UNL     1      -8.619  10.609  64.337  1.00  0.00    -0.110 A  
HETATM    8  F   UNL     1     -11.363  14.384  64.258  1.00  0.00    -0.351 F  
HETATM    9  C   UNL     1      -7.888   9.608  63.470  1.00  0.00    -0.136 C  
HETATM   10  C   UNL     1      -9.668  11.387  63.824  1.00  0.00    -0.314 A  
HETATM   11  C   UNL     1     -11.574  13.047  64.117  1.00  0.00    -0.407 C  
HETATM   12  C   UNL     1     -10.433  12.218  64.663  1.00  0.00    -0.334 A  
HETATM   13  F   UNL     1      -6.835   9.017  64.101  1.00  0.00    -0.084 F  
HETATM   14  F   UNL     1      -8.704   8.594  63.079  1.00  0.00    -0.184 F  
HETATM   15  C   UNL     1     -10.163  12.223  66.041  1.00  0.00    -0.267 A  
HETATM   16  F   UNL     1      -7.388  10.159  62.334  1.00  0.00    -0.115 F  
ENDBRANCH   2   3
BRANCH   2  17
HETATM   17  O   UNL     1     -10.147  11.653  68.765  1.00  0.00    -0.207 OA 
BRANCH  17  18
HETATM   18  C   UNL     1     -11.304  10.785  68.681  1.00  0.00    -0.291 C  
HETATM   19  N   UNL     1     -10.900   9.558  70.851  1.00  0.00    -0.311 NA 
HETATM   20  C   UNL     1     -11.890  10.379  70.104  1.00  0.00    -0.297 C  
HETATM   21  O   UNL     1     -11.019   9.594  67.928  1.00  0.00    -0.243 OA 
HETATM   22  C   UNL     1     -10.044   8.796  68.610  1.00  0.00    -0.189 C  
HETATM   23  C   UNL     1     -10.517   8.397  70.013  1.00  0.00    -0.224 C  
BRANCH  19  24
HETATM   24  C   UNL     1     -11.229   9.158  72.230  1.00  0.00     0.053 C  
BRANCH  24  25
HETATM   25  C   UNL     1     -10.316   8.098  72.819  1.00  0.00    -0.313 C  
HETATM   26  O   UNL     1     -10.345   4.033  72.297  1.00  0.00    -0.175 OA 
HETATM   27  O   UNL     1      -7.935   4.507  72.209  1.00  0.00    -0.093 OA 
HETATM   28  N   UNL     1      -9.080   8.348  73.175  1.00  0.00    -0.262 NA 
HETATM   29  O   UNL     1      -8.975   3.703  74.433  1.00  0.00    -0.087 OA 
HETATM   30  C   UNL     1      -8.553   7.124  73.522  1.00  0.00    -0.139 C  
HETATM   31  O   UNL     1      -7.365   6.878  73.685  1.00  0.00    -0.081 OA 
HETATM   32  P   UNL     1      -9.156   4.576  73.241  1.00  0.00    -0.113 P  
HETATM   33  N   UNL     1      -9.545   6.180  73.481  1.00  0.00    -0.143 N  
HETATM   34  N   UNL     1     -10.724   6.800  73.016  1.00  0.00    -0.266 NA 
ENDBRANCH  24  25
ENDBRANCH  19  24
BRANCH  20  35
HETATM   35  C   UNL     1     -12.415  11.625  70.813  1.00  0.00    -0.425 A  
HETATM   36  C   UNL     1     -13.966  12.632  72.408  1.00  0.00    -0.131 A  
HETATM   37  F   UNL     1     -14.235  14.976  72.428  1.00  0.00    -0.491 F  
HETATM   38  C   UNL     1     -13.364  11.500  71.850  1.00  0.00    -0.408 A  
HETATM   39  C   UNL     1     -12.683  14.043  70.920  1.00  0.00    -0.420 A  
HETATM   40  C   UNL     1     -12.070  12.912  70.372  1.00  0.00    -0.385 A  
HETATM   41  C   UNL     1     -13.629  13.894  71.924  1.00  0.00    -0.430 A  
ENDBRANCH  20  35
ENDBRANCH  17  18
ENDBRANCH   2  17
TORSDOF 6
ENDMDL
MODEL      184
REMARK 921   NORMALIZED FREE ENERGY PREDICTED BY IDOCK:   -5.84 KCAL/MOL
REMARK 922        TOTAL FREE ENERGY PREDICTED BY IDOCK:   -8.79 KCAL/MOL
REMARK 923 INTER-LIGAND FREE ENERGY PREDICTED BY IDOCK:   -6.86 KCAL/MOL
REMARK 924 INTRA-LIGAND FREE ENERGY PREDICTED BY IDOCK:   -1.93 KCAL/MOL
REMARK 927      BINDING AFFINITY PREDICTED BY RF-SCORE:    0.00 PKD
ROOT
HETATM    1  C   UNL     1      -8.131  10.489  69.548  1.00  0.00    -0.105 C  
HETATM    2  C   UNL     1      -7.522  11.187  68.339  1.00  0.00    -0.102 C  
ENDROOT
BRANCH   2   3
HETATM    3  C   UNL     1      -8.206  12.500  68.018  1.00  0.00    -0.166 A  
HETATM    4  F   UNL     1      -6.324  16.315  68.456  1.00  0.00    -0.113 F  
HETATM    5  F   UNL     1      -8.097  17.327  67.715  1.00  0.00    -0.187 F  
HETATM    6  C   UNL     1      -9.598  12.560  68.164  1.00  0.00    -0.215 A  
HETATM    7  C   UNL     1     -10.263  13.783  68.216  1.00  0.00    -0.245 A  
HETATM    8  F   UNL     1      -6.793  16.272  66.332  1.00  0.00    -0.195 F  
HETATM    9  C   UNL     1     -11.720  13.823  68.618  1.00  0.00    -0.356 C  
HETATM   10  C   UNL     1      -9.531  14.963  68.015  1.00  0.00    -0.198 A  
HETATM   11  C   UNL     1      -7.350  16.196  67.571  1.00  0.00    -0.159 C  
HETATM   12  C   UNL     1      -8.145  14.925  67.773  1.00  0.00    -0.162 A  
HETATM   13  F   UNL     1     -12.299  12.591  68.669  1.00  0.00    -0.269 F  
HETATM   14  F   UNL     1     -11.885  14.362  69.854  1.00  0.00    -0.288 F  
HETATM   15  C   UNL     1      -7.489  13.684  67.784  1.00  0.00    -0.172 A  
HETATM   16  F   UNL     1     -12.481  14.563  67.771  1.00  0.00    -0.287 F  
ENDBRANCH   2   3
BRANCH   2  17
HETATM   17  O   UNL     1      -7.532  10.319  67.193  1.00  0.00    -0.090 OA 
BRANCH  17  18
HETATM   18  C   UNL     1      -6.862  10.874  66.035  1.00  0.00    -0.072 C  
HETATM   19  N   UNL     1      -7.114   8.841  64.557  1.00  0.00    -0.084 NA 
HETATM   20  C   UNL     1      -7.408  10.296  64.656  1.00  0.00    -0.085 C  
HETATM   21  O   UNL     1      -5.439  10.678  66.102  1.00  0.00    -0.067 OA 
HETATM   22  C   UNL     1      -5.127   9.281  66.039  1.00  0.00    -0.036 C  
HETATM   23  C   UNL     1      -5.659   8.636  64.753  1.00  0.00    -0.047 C  
BRANCH  19  24
HETATM   24  C   UNL     1      -7.621   8.109  63.384  1.00  0.00    -0.132 C  
BRANCH  24  25
HETATM   25  C   UNL     1      -8.010   6.667  63.656  1.00  0.00    -0.070 C  
HETATM   26  O   UNL     1     -10.651   5.140  66.394  1.00  0.00    -0.293 OA 
HETATM   27  O   UNL     1     -11.159   3.762  64.422  1.00  0.00    -0.291 OA 
HETATM   28  N   UNL     1      -7.953   5.733  62.739  1.00  0.00    -0.098 NA 
HETATM   29  O   UNL     1      -9.561   2.831  66.226  1.00  0.00     0.013 OA 
HETATM   30  C   UNL     1      -8.509   4.619  63.327  1.00  0.00    -0.113 C  
HETATM   31  O   UNL     1      -8.862   3.604  62.741  1.00  0.00    -0.088 OA 
HETATM   32  P   UNL     1      -9.959   4.034  65.446  1.00  0.00    -0.093 P  
HETATM   33  N   UNL     1      -8.774   4.891  64.643  1.00  0.00    -0.152 N  
HETATM   34  N   UNL     1      -8.452   6.243  64.887  1.00  0.00    -0.071 NA 
ENDBRANCH  24  25
ENDBRANCH  19  24
BRANCH  20  35
HETATM   35  C   UNL     1      -8.866  10.711  64.471  1.00  0.00    -0.189 A  
HETATM   36  C   UNL     1     -10.533  12.034  63.275  1.00  0.00    -0.403 A  
HETATM   37  F   UNL     1     -12.694  12.266  64.194  1.00  0.00    -0.511 F  
HETATM   38  C   UNL     1      -9.235  11.524  63.378  1.00  0.00    -0.098 A  
HETATM   39  C   UNL     1     -11.129  10.928  65.342  1.00  0.00     0.080 A  
HETATM   40  C   UNL     1      -9.836  10.405  65.438  1.00  0.00    -0.347 A  
HETATM   41  C   UNL     1     -11.463  11.743  64.269  1.00  0.00    -0.307 A  
ENDBRANCH  20  35
ENDBRANCH  17  18
ENDBRANCH   2  17
TORSDOF 6
ENDMDL
MODEL      185
REMARK 921   NORMALIZED FREE ENERGY PREDICTED BY IDOCK:   -5.82 KCAL/MOL
REMARK 922        TOTAL FREE ENERGY PREDICTED BY IDOCK:   -8.76 KCAL/MOL
REMARK 923 INTER-LIGAND FREE ENERGY PREDICTED BY IDOCK:   -8.48 KCAL/MOL
REMARK 924 INTRA-LIGAND FREE ENERGY PREDICTED BY IDOCK:   -0.28 KCAL/MOL
REMARK 927      BINDING AFFINITY PREDICTED BY RF-SCORE:    0.00 PKD
ROOT
HETATM    1  C   UNL     1      -7.372  11.898  68.045  1.00  0.00    -0.100 C  
HETATM    2  C   UNL     1      -8.619  11.655  67.204  1.00  0.00    -0.164 C  
ENDROOT
BRANCH   2   3
HETATM    3  C   UNL     1      -9.555  12.845  67.191  1.00  0.00    -0.225 A  
HETATM    4  F   UNL     1     -11.699  14.202  70.634  1.00  0.00    -0.339 F  
HETATM    5  F   UNL     1     -12.574  15.837  69.503  1.00  0.00    -0.304 F  
HETATM    6  C   UNL     1     -10.211  13.144  65.990  1.00  0.00    -0.287 A  
HETATM    7  C   UNL     1     -11.317  13.990  65.965  1.00  0.00    -0.328 A  
HETATM    8  F   UNL     1     -10.493  15.940  70.125  1.00  0.00    -0.276 F  
HETATM    9  C   UNL     1     -12.146  14.098  64.705  1.00  0.00    -0.441 C  
HETATM   10  C   UNL     1     -11.710  14.628  67.152  1.00  0.00    -0.392 A  
HETATM   11  C   UNL     1     -11.440  15.093  69.639  1.00  0.00    -0.293 C  
HETATM   12  C   UNL     1     -11.010  14.418  68.355  1.00  0.00    -0.261 A  
HETATM   13  F   UNL     1     -11.565  13.503  63.626  1.00  0.00    -0.403 F  
HETATM   14  F   UNL     1     -13.358  13.502  64.850  1.00  0.00    -0.198 F  
HETATM   15  C   UNL     1      -9.935  13.515  68.365  1.00  0.00    -0.232 A  
HETATM   16  F   UNL     1     -12.391  15.383  64.343  1.00  0.00    -0.405 F  
ENDBRANCH   2   3
BRANCH   2  17
HETATM   17  O   UNL     1      -9.308  10.474  67.649  1.00  0.00    -0.148 OA 
BRANCH  17  18
HETATM   18  C   UNL     1      -8.730   9.872  68.832  1.00  0.00    -0.140 C  
HETATM   19  N   UNL     1     -10.331   7.924  68.975  1.00  0.00    -0.213 NA 
HETATM   20  C   UNL     1      -8.893   8.290  68.877  1.00  0.00    -0.140 C  
HETATM   21  O   UNL     1      -9.276  10.439  70.036  1.00  0.00     0.002 OA 
HETATM   22  C   UNL     1     -10.671  10.128  70.142  1.00  0.00    -0.300 C  
HETATM   23  C   UNL     1     -10.917   8.615  70.148  1.00  0.00    -0.226 C  
BRANCH  19  24
HETATM   24  C   UNL     1     -10.689   6.496  68.940  1.00  0.00    -0.273 C  
BRANCH  24  25
HETATM   25  C   UNL     1     -10.158   5.680  70.105  1.00  0.00    -0.227 C  
HETATM   26  O   UNL     1     -10.275   6.475  74.125  1.00  0.00    -0.315 OA 
HETATM   27  O   UNL     1     -10.801   4.074  74.099  1.00  0.00    -0.226 OA 
HETATM   28  N   UNL     1     -10.034   4.377  70.059  1.00  0.00    -0.221 NA 
HETATM   29  O   UNL     1      -8.370   4.821  74.554  1.00  0.00    -0.100 OA 
HETATM   30  C   UNL     1      -9.662   4.007  71.332  1.00  0.00    -0.183 C  
HETATM   31  O   UNL     1      -9.673   2.867  71.776  1.00  0.00    -0.138 OA 
HETATM   32  P   UNL     1      -9.594   5.064  73.743  1.00  0.00    -0.138 P  
HETATM   33  N   UNL     1      -9.450   5.133  72.083  1.00  0.00    -0.139 N  
HETATM   34  N   UNL     1      -9.773   6.257  71.293  1.00  0.00    -0.174 NA 
ENDBRANCH  24  25
ENDBRANCH  19  24
BRANCH  20  35
HETATM   35  C   UNL     1      -8.108   7.664  67.725  1.00  0.00    -0.118 A  
HETATM   36  C   UNL     1      -8.055   6.178  65.788  1.00  0.00    -0.124 A  
HETATM   37  F   UNL     1      -5.970   5.550  64.878  1.00  0.00    -0.019 F  
HETATM   38  C   UNL     1      -8.775   6.878  66.761  1.00  0.00    -0.122 A  
HETATM   39  C   UNL     1      -5.988   7.037  66.707  1.00  0.00    -0.033 A  
HETATM   40  C   UNL     1      -6.708   7.749  67.670  1.00  0.00    -0.068 A  
HETATM   41  C   UNL     1      -6.664   6.253  65.782  1.00  0.00    -0.048 A  
ENDBRANCH  20  35
ENDBRANCH  17  18
ENDBRANCH   2  17
TORSDOF 6
ENDMDL
MODEL      186
REMARK 921   NORMALIZED FREE ENERGY PREDICTED BY IDOCK:   -5.81 KCAL/MOL
REMARK 922        TOTAL FREE ENERGY PREDICTED BY IDOCK:   -8.75 KCAL/MOL
REMARK 923 INTER-LIGAND FREE ENERGY PREDICTED BY IDOCK:   -7.45 KCAL/MOL
REMARK 924 INTRA-LIGAND FREE ENERGY PREDICTED BY IDOCK:   -1.30 KCAL/MOL
REMARK 927      BINDING AFFINITY PREDICTED BY RF-SCORE:    0.00 PKD
ROOT
HETATM    1  C   UNL     1     -12.247  11.409  69.581  1.00  0.00    -0.316 C  
HETATM    2  C   UNL     1     -11.242  11.047  68.494  1.00  0.00    -0.268 C  
ENDROOT
BRANCH   2   3
HETATM    3  C   UNL     1     -10.778   9.608  68.585  1.00  0.00    -0.233 A  
HETATM    4  F   UNL     1      -9.096   7.887  72.120  1.00  0.00    -0.145 F  
HETATM    5  F   UNL     1      -8.890   5.959  71.139  1.00  0.00    -0.130 F  
HETATM    6  C   UNL     1     -10.316   9.000  67.411  1.00  0.00    -0.335 A  
HETATM    7  C   UNL     1      -9.574   7.822  67.456  1.00  0.00    -0.184 A  
HETATM    8  F   UNL     1     -10.850   6.642  71.788  1.00  0.00    -0.238 F  
HETATM    9  C   UNL     1      -8.887   7.325  66.204  1.00  0.00    -0.158 C  
HETATM   10  C   UNL     1      -9.378   7.190  68.693  1.00  0.00    -0.134 A  
HETATM   11  C   UNL     1      -9.689   7.061  71.215  1.00  0.00    -0.171 C  
HETATM   12  C   UNL     1      -9.910   7.732  69.878  1.00  0.00    -0.177 A  
HETATM   13  F   UNL     1      -9.269   7.991  65.079  1.00  0.00     0.032 F  
HETATM   14  F   UNL     1      -7.538   7.471  66.281  1.00  0.00    -0.080 F  
HETATM   15  C   UNL     1     -10.605   8.950  69.813  1.00  0.00    -0.230 A  
HETATM   16  F   UNL     1      -9.117   6.009  65.961  1.00  0.00    -0.146 F  
ENDBRANCH   2   3
BRANCH   2  17
HETATM   17  O   UNL     1     -10.119  11.944  68.524  1.00  0.00    -0.211 OA 
BRANCH  17  18
HETATM   18  C   UNL     1      -9.400  12.020  67.269  1.00  0.00    -0.180 C  
HETATM   19  N   UNL     1      -7.921  13.966  67.903  1.00  0.00    -0.144 NA 
HETATM   20  C   UNL     1      -7.910  12.556  67.429  1.00  0.00    -0.175 C  
HETATM   21  O   UNL     1     -10.096  12.832  66.308  1.00  0.00    -0.249 OA 
HETATM   22  C   UNL     1     -10.148  14.193  66.753  1.00  0.00    -0.262 C  
HETATM   23  C   UNL     1      -8.746  14.773  66.973  1.00  0.00    -0.235 C  
BRANCH  19  24
HETATM   24  C   UNL     1      -6.628  14.610  68.194  1.00  0.00    -0.134 C  
BRANCH  24  25
HETATM   25  C   UNL     1      -6.664  16.128  68.205  1.00  0.00    -0.124 C  
HETATM   26  O   UNL     1      -8.637  18.718  65.716  1.00  0.00    -0.420 OA 
HETATM   27  O   UNL     1      -9.012  19.779  67.901  1.00  0.00    -0.316 OA 
HETATM   28  N   UNL     1      -6.489  16.832  69.295  1.00  0.00    -0.208 NA 
HETATM   29  O   UNL     1      -7.087  20.634  66.404  1.00  0.00    -0.250 OA 
HETATM   30  C   UNL     1      -6.730  18.136  68.923  1.00  0.00    -0.252 C  
HETATM   31  O   UNL     1      -6.904  19.076  69.686  1.00  0.00    -0.217 OA 
HETATM   32  P   UNL     1      -7.811  19.432  66.902  1.00  0.00    -0.284 P  
HETATM   33  N   UNL     1      -6.923  18.187  67.568  1.00  0.00    -0.196 N  
HETATM   34  N   UNL     1      -6.885  16.868  67.067  1.00  0.00    -0.182 NA 
ENDBRANCH  24  25
ENDBRANCH  19  24
BRANCH  20  35
HETATM   35  C   UNL     1      -7.097  11.565  68.258  1.00  0.00    -0.080 A  
HETATM   36  C   UNL     1      -6.295   9.285  68.605  1.00  0.00    -0.049 A  
HETATM   37  F   UNL     1      -5.334   8.706  70.681  1.00  0.00    -0.027 F  
HETATM   38  C   UNL     1      -6.906  10.246  67.794  1.00  0.00    -0.075 A  
HETATM   39  C   UNL     1      -6.040  10.932  70.358  1.00  0.00    -0.129 A  
HETATM   40  C   UNL     1      -6.637  11.897  69.542  1.00  0.00    -0.093 A  
HETATM   41  C   UNL     1      -5.881   9.636  69.888  1.00  0.00    -0.041 A  
ENDBRANCH  20  35
ENDBRANCH  17  18
ENDBRANCH   2  17
TORSDOF 6
ENDMDL
MODEL      187
REMARK 921   NORMALIZED FREE ENERGY PREDICTED BY IDOCK:   -5.80 KCAL/MOL
REMARK 922        TOTAL FREE ENERGY PREDICTED BY IDOCK:   -8.74 KCAL/MOL
REMARK 923 INTER-LIGAND FREE ENERGY PREDICTED BY IDOCK:   -7.88 KCAL/MOL
REMARK 924 INTRA-LIGAND FREE ENERGY PREDICTED BY IDOCK:   -0.86 KCAL/MOL
REMARK 927      BINDING AFFINITY PREDICTED BY RF-SCORE:    0.00 PKD
ROOT
HETATM    1  C   UNL     1     -10.917   6.815  68.569  1.00  0.00    -0.258 C  
HETATM    2  C   UNL     1      -9.844   7.591  69.323  1.00  0.00    -0.170 C  
ENDROOT
BRANCH   2   3
HETATM    3  C   UNL     1      -9.492   6.957  70.653  1.00  0.00    -0.165 A  
HETATM    4  F   UNL     1     -12.308   4.849  73.084  1.00  0.00    -0.335 F  
HETATM    5  F   UNL     1     -10.775   4.403  74.557  1.00  0.00    -0.279 F  
HETATM    6  C   UNL     1      -8.460   7.541  71.398  1.00  0.00    -0.115 A  
HETATM    7  C   UNL     1      -8.291   7.244  72.749  1.00  0.00    -0.127 A  
HETATM    8  F   UNL     1     -10.817   3.319  72.672  1.00  0.00    -0.213 F  
HETATM    9  C   UNL     1      -7.332   8.067  73.579  1.00  0.00    -0.143 C  
HETATM   10  C   UNL     1      -9.109   6.266  73.336  1.00  0.00    -0.132 A  
HETATM   11  C   UNL     1     -10.987   4.553  73.219  1.00  0.00    -0.288 C  
HETATM   12  C   UNL     1     -10.094   5.597  72.585  1.00  0.00    -0.208 A  
HETATM   13  F   UNL     1      -6.547   8.893  72.834  1.00  0.00    -0.098 F  
HETATM   14  F   UNL     1      -7.990   8.870  74.455  1.00  0.00    -0.229 F  
HETATM   15  C   UNL     1     -10.283   5.957  71.242  1.00  0.00    -0.262 A  
HETATM   16  F   UNL     1      -6.486   7.304  74.318  1.00  0.00    -0.076 F  
ENDBRANCH   2   3
BRANCH   2  17
HETATM   17  O   UNL     1     -10.242   8.960  69.506  1.00  0.00    -0.193 OA 
BRANCH  17  18
HETATM   18  C   UNL     1     -10.637   9.621  68.279  1.00  0.00    -0.225 C  
HETATM   19  N   UNL     1      -9.093  11.606  68.513  1.00  0.00    -0.182 NA 
HETATM   20  C   UNL     1      -9.467  10.477  67.621  1.00  0.00    -0.149 C  
HETATM   21  O   UNL     1     -11.786  10.462  68.477  1.00  0.00    -0.280 OA 
HETATM   22  C   UNL     1     -11.463  11.545  69.358  1.00  0.00    -0.309 C  
HETATM   23  C   UNL     1     -10.311  12.397  68.814  1.00  0.00    -0.121 C  
BRANCH  19  24
HETATM   24  C   UNL     1      -7.964  12.463  68.112  1.00  0.00    -0.153 C  
BRANCH  24  25
HETATM   25  C   UNL     1      -8.358  13.718  67.355  1.00  0.00    -0.193 C  
HETATM   26  O   UNL     1     -12.031  14.895  65.967  1.00  0.00    -0.213 OA 
HETATM   27  O   UNL     1     -11.154  17.015  66.849  1.00  0.00     0.033 OA 
HETATM   28  N   UNL     1      -7.702  14.846  67.465  1.00  0.00    -0.176 NA 
HETATM   29  O   UNL     1     -10.940  16.522  64.322  1.00  0.00    -0.848 OA 
HETATM   30  C   UNL     1      -8.439  15.761  66.746  1.00  0.00    -0.269 C  
HETATM   31  O   UNL     1      -8.305  16.977  66.788  1.00  0.00    -0.199 OA 
HETATM   32  P   UNL     1     -10.845  15.952  65.693  1.00  0.00    -0.182 P  
HETATM   33  N   UNL     1      -9.466  15.113  66.113  1.00  0.00    -0.303 N  
HETATM   34  N   UNL     1      -9.435  13.756  66.500  1.00  0.00    -0.281 NA 
ENDBRANCH  24  25
ENDBRANCH  19  24
BRANCH  20  35
HETATM   35  C   UNL     1      -8.337   9.546  67.189  1.00  0.00    -0.131 A  
HETATM   36  C   UNL     1      -7.507   7.816  65.678  1.00  0.00    -0.075 A  
HETATM   37  F   UNL     1      -5.531   6.653  66.236  1.00  0.00    -0.015 F  
HETATM   38  C   UNL     1      -8.463   8.780  66.010  1.00  0.00    -0.144 A  
HETATM   39  C   UNL     1      -6.268   8.361  67.683  1.00  0.00    -0.053 A  
HETATM   40  C   UNL     1      -7.216   9.336  68.008  1.00  0.00    -0.079 A  
HETATM   41  C   UNL     1      -6.425   7.606  66.530  1.00  0.00    -0.049 A  
ENDBRANCH  20  35
ENDBRANCH  17  18
ENDBRANCH   2  17
TORSDOF 6
ENDMDL
MODEL      188
REMARK 921   NORMALIZED FREE ENERGY PREDICTED BY IDOCK:   -5.78 KCAL/MOL
REMARK 922        TOTAL FREE ENERGY PREDICTED BY IDOCK:   -8.70 KCAL/MOL
REMARK 923 INTER-LIGAND FREE ENERGY PREDICTED BY IDOCK:   -8.31 KCAL/MOL
REMARK 924 INTRA-LIGAND FREE ENERGY PREDICTED BY IDOCK:   -0.39 KCAL/MOL
REMARK 927      BINDING AFFINITY PREDICTED BY RF-SCORE:    0.00 PKD
ROOT
HETATM    1  C   UNL     1     -12.331  11.468  68.828  1.00  0.00     0.148 C  
HETATM    2  C   UNL     1     -10.996  10.922  68.337  1.00  0.00    -0.237 C  
ENDROOT
BRANCH   2   3
HETATM    3  C   UNL     1     -10.557   9.687  69.097  1.00  0.00    -0.237 A  
HETATM    4  F   UNL     1      -9.223   6.095  67.198  1.00  0.00    -0.117 F  
HETATM    5  F   UNL     1      -8.856   5.158  69.122  1.00  0.00    -0.091 F  
HETATM    6  C   UNL     1     -11.135   9.456  70.352  1.00  0.00    -0.311 A  
HETATM    7  C   UNL     1     -11.051   8.207  70.964  1.00  0.00    -0.281 A  
HETATM    8  F   UNL     1      -7.484   6.670  68.374  1.00  0.00    -0.085 F  
HETATM    9  C   UNL     1     -11.885   7.920  72.191  1.00  0.00    -0.334 C  
HETATM   10  C   UNL     1     -10.286   7.202  70.352  1.00  0.00    -0.203 A  
HETATM   11  C   UNL     1      -8.804   6.351  68.467  1.00  0.00    -0.119 C  
HETATM   12  C   UNL     1      -9.617   7.437  69.136  1.00  0.00    -0.156 A  
HETATM   13  F   UNL     1     -12.480   9.031  72.710  1.00  0.00    -0.404 F  
HETATM   14  F   UNL     1     -12.894   7.052  71.920  1.00  0.00    -0.350 F  
HETATM   15  C   UNL     1      -9.767   8.685  68.510  1.00  0.00    -0.174 A  
HETATM   16  F   UNL     1     -11.165   7.369  73.202  1.00  0.00    -0.347 F  
ENDBRANCH   2   3
BRANCH   2  17
HETATM   17  O   UNL     1      -9.980  11.937  68.395  1.00  0.00    -0.197 OA 
BRANCH  17  18
HETATM   18  C   UNL     1      -9.096  11.944  67.247  1.00  0.00    -0.178 C  
HETATM   19  N   UNL     1      -8.073  14.210  67.687  1.00  0.00    -0.165 NA 
HETATM   20  C   UNL     1      -7.758  12.771  67.489  1.00  0.00    -0.168 C  
HETATM   21  O   UNL     1      -9.757  12.445  66.073  1.00  0.00    -0.250 OA 
HETATM   22  C   UNL     1     -10.100  13.825  66.247  1.00  0.00    -0.300 C  
HETATM   23  C   UNL     1      -8.864  14.687  66.527  1.00  0.00    -0.155 C  
BRANCH  19  24
HETATM   24  C   UNL     1      -6.965  15.125  68.012  1.00  0.00    -0.133 C  
BRANCH  24  25
HETATM   25  C   UNL     1      -7.342  16.595  68.036  1.00  0.00    -0.156 C  
HETATM   26  O   UNL     1     -11.018  18.362  67.629  1.00  0.00    -0.346 OA 
HETATM   27  O   UNL     1     -10.044  19.703  69.445  1.00  0.00    -0.390 OA 
HETATM   28  N   UNL     1      -6.646  17.494  68.687  1.00  0.00    -0.197 NA 
HETATM   29  O   UNL     1      -9.929  20.596  67.023  1.00  0.00    -0.441 OA 
HETATM   30  C   UNL     1      -7.376  18.657  68.583  1.00  0.00    -0.304 C  
HETATM   31  O   UNL     1      -7.201  19.672  69.245  1.00  0.00    -0.360 OA 
HETATM   32  P   UNL     1      -9.808  19.394  67.892  1.00  0.00    -0.414 P  
HETATM   33  N   UNL     1      -8.444  18.444  67.752  1.00  0.00    -0.256 N  
HETATM   34  N   UNL     1      -8.445  17.084  67.376  1.00  0.00    -0.194 NA 
ENDBRANCH  24  25
ENDBRANCH  19  24
BRANCH  20  35
HETATM   35  C   UNL     1      -6.934  12.097  68.584  1.00  0.00    -0.097 A  
HETATM   36  C   UNL     1      -6.164  10.048  69.667  1.00  0.00    -0.049 A  
HETATM   37  F   UNL     1      -5.134  10.184  71.786  1.00  0.00    -0.070 F  
HETATM   38  C   UNL     1      -6.787  10.693  68.594  1.00  0.00    -0.059 A  
HETATM   39  C   UNL     1      -5.807  12.186  70.741  1.00  0.00     0.011 A  
HETATM   40  C   UNL     1      -6.417  12.833  69.661  1.00  0.00    -0.046 A  
HETATM   41  C   UNL     1      -5.693  10.803  70.738  1.00  0.00    -0.099 A  
ENDBRANCH  20  35
ENDBRANCH  17  18
ENDBRANCH   2  17
TORSDOF 6
ENDMDL
MODEL      189
REMARK 921   NORMALIZED FREE ENERGY PREDICTED BY IDOCK:   -5.77 KCAL/MOL
REMARK 922        TOTAL FREE ENERGY PREDICTED BY IDOCK:   -8.70 KCAL/MOL
REMARK 923 INTER-LIGAND FREE ENERGY PREDICTED BY IDOCK:   -5.91 KCAL/MOL
REMARK 924 INTRA-LIGAND FREE ENERGY PREDICTED BY IDOCK:   -2.79 KCAL/MOL
REMARK 927      BINDING AFFINITY PREDICTED BY RF-SCORE:    0.00 PKD
ROOT
HETATM    1  C   UNL     1      -7.295  10.459  69.630  1.00  0.00    -0.156 C  
HETATM    2  C   UNL     1      -7.217  11.309  68.368  1.00  0.00    -0.085 C  
ENDROOT
BRANCH   2   3
HETATM    3  C   UNL     1      -8.205  12.457  68.376  1.00  0.00    -0.144 A  
HETATM    4  F   UNL     1     -12.433  11.937  67.993  1.00  0.00    -0.103 F  
HETATM    5  F   UNL     1     -12.760  14.076  68.180  1.00  0.00    -0.112 F  
HETATM    6  C   UNL     1      -7.765  13.697  67.898  1.00  0.00    -0.157 A  
HETATM    7  C   UNL     1      -8.670  14.701  67.559  1.00  0.00    -0.194 A  
HETATM    8  F   UNL     1     -12.259  12.898  69.938  1.00  0.00    -0.345 F  
HETATM    9  C   UNL     1      -8.182  15.927  66.822  1.00  0.00    -0.272 C  
HETATM   10  C   UNL     1     -10.036  14.492  67.802  1.00  0.00    -0.225 A  
HETATM   11  C   UNL     1     -11.971  13.055  68.617  1.00  0.00    -0.263 C  
HETATM   12  C   UNL     1     -10.497  13.289  68.368  1.00  0.00    -0.261 A  
HETATM   13  F   UNL     1      -6.824  16.019  66.766  1.00  0.00    -0.228 F  
HETATM   14  F   UNL     1      -8.609  15.939  65.531  1.00  0.00    -0.139 F  
HETATM   15  C   UNL     1      -9.571  12.271  68.645  1.00  0.00    -0.051 A  
HETATM   16  F   UNL     1      -8.617  17.086  67.380  1.00  0.00    -0.190 F  
ENDBRANCH   2   3
BRANCH   2  17
HETATM   17  O   UNL     1      -7.397  10.496  67.197  1.00  0.00    -0.089 OA 
BRANCH  17  18
HETATM   18  C   UNL     1      -6.833  11.073  65.993  1.00  0.00    -0.017 C  
HETATM   19  N   UNL     1      -7.287   9.097  64.488  1.00  0.00    -0.098 NA 
HETATM   20  C   UNL     1      -7.531  10.553  64.660  1.00  0.00     0.049 C  
HETATM   21  O   UNL     1      -5.417  10.841  65.909  1.00  0.00    -0.101 OA 
HETATM   22  C   UNL     1      -5.150   9.441  65.772  1.00  0.00    -0.035 C  
HETATM   23  C   UNL     1      -5.825   8.852  64.528  1.00  0.00    -0.065 C  
BRANCH  19  24
HETATM   24  C   UNL     1      -7.929   8.415  63.351  1.00  0.00    -0.160 C  
BRANCH  24  25
HETATM   25  C   UNL     1      -8.206   6.939  63.570  1.00  0.00     0.099 C  
HETATM   26  O   UNL     1     -10.443   5.098  66.470  1.00  0.00    -0.263 OA 
HETATM   27  O   UNL     1     -11.087   3.806  64.480  1.00  0.00    -0.248 OA 
HETATM   28  N   UNL     1      -8.199   6.064  62.595  1.00  0.00    -0.100 NA 
HETATM   29  O   UNL     1      -9.252   2.874  66.042  1.00  0.00    -0.146 OA 
HETATM   30  C   UNL     1      -8.625   4.886  63.166  1.00  0.00    -0.116 C  
HETATM   31  O   UNL     1      -8.984   3.886  62.558  1.00  0.00    -0.090 OA 
HETATM   32  P   UNL     1      -9.799   4.093  65.386  1.00  0.00    -0.177 P  
HETATM   33  N   UNL     1      -8.759   5.065  64.518  1.00  0.00    -0.151 N  
HETATM   34  N   UNL     1      -8.487   6.418  64.812  1.00  0.00    -0.028 NA 
ENDBRANCH  24  25
ENDBRANCH  19  24
BRANCH  20  35
HETATM   35  C   UNL     1      -8.989  11.007  64.638  1.00  0.00    -0.085 A  
HETATM   36  C   UNL     1     -10.648  12.700  64.050  1.00  0.00    -0.457 A  
HETATM   37  F   UNL     1     -12.821  12.544  64.956  1.00  0.00    -0.554 F  
HETATM   38  C   UNL     1      -9.349  12.190  63.958  1.00  0.00     0.294 A  
HETATM   39  C   UNL     1     -11.263  10.858  65.493  1.00  0.00     0.201 A  
HETATM   40  C   UNL     1      -9.969  10.340  65.389  1.00  0.00    -0.371 A  
HETATM   41  C   UNL     1     -11.589  12.034  64.832  1.00  0.00    -0.273 A  
ENDBRANCH  20  35
ENDBRANCH  17  18
ENDBRANCH   2  17
TORSDOF 6
ENDMDL
MODEL      190
REMARK 921   NORMALIZED FREE ENERGY PREDICTED BY IDOCK:   -5.75 KCAL/MOL
REMARK 922        TOTAL FREE ENERGY PREDICTED BY IDOCK:   -8.68 KCAL/MOL
REMARK 923 INTER-LIGAND FREE ENERGY PREDICTED BY IDOCK:   -6.57 KCAL/MOL
REMARK 924 INTRA-LIGAND FREE ENERGY PREDICTED BY IDOCK:   -2.11 KCAL/MOL
REMARK 927      BINDING AFFINITY PREDICTED BY RF-SCORE:    0.00 PKD
ROOT
HETATM    1  C   UNL     1     -10.694   4.724  65.785  1.00  0.00    -0.220 C  
HETATM    2  C   UNL     1     -10.415   5.554  67.031  1.00  0.00    -0.274 C  
ENDROOT
BRANCH   2   3
HETATM    3  C   UNL     1     -10.113   7.003  66.712  1.00  0.00    -0.270 A  
HETATM    4  F   UNL     1      -6.523   8.298  64.782  1.00  0.00    -0.060 F  
HETATM    5  F   UNL     1      -7.193  10.364  64.816  1.00  0.00    -0.140 F  
HETATM    6  C   UNL     1     -10.663   7.982  67.549  1.00  0.00    -0.238 A  
HETATM    7  C   UNL     1     -10.183   9.290  67.539  1.00  0.00    -0.300 A  
HETATM    8  F   UNL     1      -8.061   8.966  63.394  1.00  0.00    -0.133 F  
HETATM    9  C   UNL     1     -10.625  10.254  68.617  1.00  0.00    -0.208 C  
HETATM   10  C   UNL     1      -9.203   9.646  66.600  1.00  0.00    -0.187 A  
HETATM   11  C   UNL     1      -7.632   9.080  64.681  1.00  0.00    -0.107 C  
HETATM   12  C   UNL     1      -8.699   8.704  65.684  1.00  0.00    -0.214 A  
HETATM   13  F   UNL     1     -11.653   9.782  69.374  1.00  0.00    -0.188 F  
HETATM   14  F   UNL     1      -9.618  10.529  69.487  1.00  0.00    -0.217 F  
HETATM   15  C   UNL     1      -9.157   7.378  65.754  1.00  0.00    -0.006 A  
HETATM   16  F   UNL     1     -11.038  11.448  68.119  1.00  0.00    -0.220 F  
ENDBRANCH   2   3
BRANCH   2  17
HETATM   17  O   UNL     1      -9.348   4.973  67.799  1.00  0.00    -0.118 OA 
BRANCH  17  18
HETATM   18  C   UNL     1      -9.681   3.690  68.384  1.00  0.00    -0.005 C  
HETATM   19  N   UNL     1      -7.681   3.545  69.919  1.00  0.00    -0.047 NA 
HETATM   20  C   UNL     1      -9.167   3.529  69.882  1.00  0.00    -0.147 C  
HETATM   21  O   UNL     1      -9.181   2.600  67.591  1.00  0.00    -0.171 OA 
HETATM   22  C   UNL     1      -7.748   2.609  67.584  1.00  0.00    -0.060 C  
HETATM   23  C   UNL     1      -7.171   2.500  69.000  1.00  0.00    -0.044 C  
BRANCH  19  24
HETATM   24  C   UNL     1      -7.018   3.495  71.233  1.00  0.00    -0.032 C  
BRANCH  24  25
HETATM   25  C   UNL     1      -6.841   4.844  71.907  1.00  0.00    -0.052 C  
HETATM   26  O   UNL     1      -7.131   8.616  70.330  1.00  0.00    -0.038 OA 
HETATM   27  O   UNL     1      -8.275   8.912  72.485  1.00  0.00    -0.384 OA 
HETATM   28  N   UNL     1      -7.066   5.033  73.183  1.00  0.00    -0.082 NA 
HETATM   29  O   UNL     1      -5.789   9.585  72.281  1.00  0.00    -0.256 OA 
HETATM   30  C   UNL     1      -6.932   6.390  73.374  1.00  0.00    -0.078 C  
HETATM   31  O   UNL     1      -7.290   7.010  74.366  1.00  0.00    -0.099 OA 
HETATM   32  P   UNL     1      -6.819   8.576  71.911  1.00  0.00    -0.053 P  
HETATM   33  N   UNL     1      -6.501   6.967  72.209  1.00  0.00    -0.056 N  
HETATM   34  N   UNL     1      -6.433   5.962  71.219  1.00  0.00    -0.044 NA 
ENDBRANCH  24  25
ENDBRANCH  19  24
BRANCH  20  35
HETATM   35  C   UNL     1      -9.883   4.538  70.777  1.00  0.00    -0.280 A  
HETATM   36  C   UNL     1     -10.442   6.859  71.289  1.00  0.00    -0.228 A  
HETATM   37  F   UNL     1     -11.371   7.382  73.394  1.00  0.00    -0.344 F  
HETATM   38  C   UNL     1      -9.923   5.901  70.413  1.00  0.00    -0.247 A  
HETATM   39  C   UNL     1     -10.902   5.123  72.909  1.00  0.00    -0.324 A  
HETATM   40  C   UNL     1     -10.398   4.162  72.028  1.00  0.00    -0.145 A  
HETATM   41  C   UNL     1     -10.913   6.460  72.537  1.00  0.00    -0.251 A  
ENDBRANCH  20  35
ENDBRANCH  17  18
ENDBRANCH   2  17
TORSDOF 6
ENDMDL
MODEL      191
REMARK 921   NORMALIZED FREE ENERGY PREDICTED BY IDOCK:   -5.72 KCAL/MOL
REMARK 922        TOTAL FREE ENERGY PREDICTED BY IDOCK:   -8.64 KCAL/MOL
REMARK 923 INTER-LIGAND FREE ENERGY PREDICTED BY IDOCK:   -8.06 KCAL/MOL
REMARK 924 INTRA-LIGAND FREE ENERGY PREDICTED BY IDOCK:   -0.57 KCAL/MOL
REMARK 927      BINDING AFFINITY PREDICTED BY RF-SCORE:    0.00 PKD
ROOT
HETATM    1  C   UNL     1     -11.887   8.085  72.826  1.00  0.00    -0.303 C  
HETATM    2  C   UNL     1     -11.629   8.419  71.363  1.00  0.00    -0.284 C  
ENDROOT
BRANCH   2   3
HETATM    3  C   UNL     1     -10.435   7.678  70.797  1.00  0.00    -0.211 A  
HETATM    4  F   UNL     1     -10.023   3.423  70.908  1.00  0.00    -0.248 F  
HETATM    5  F   UNL     1      -8.125   3.532  69.857  1.00  0.00    -0.049 F  
HETATM    6  C   UNL     1      -9.202   8.344  70.789  1.00  0.00    -0.186 A  
HETATM    7  C   UNL     1      -8.010   7.647  70.606  1.00  0.00    -0.099 A  
HETATM    8  F   UNL     1      -9.985   3.836  68.772  1.00  0.00    -0.198 F  
HETATM    9  C   UNL     1      -6.692   8.349  70.845  1.00  0.00    -0.042 C  
HETATM   10  C   UNL     1      -8.063   6.274  70.324  1.00  0.00    -0.116 A  
HETATM   11  C   UNL     1      -9.355   4.115  69.945  1.00  0.00    -0.165 C  
HETATM   12  C   UNL     1      -9.294   5.598  70.234  1.00  0.00    -0.186 A  
HETATM   13  F   UNL     1      -6.819   9.696  71.003  1.00  0.00    -0.101 F  
HETATM   14  F   UNL     1      -6.082   7.899  71.973  1.00  0.00    -0.038 F  
HETATM   15  C   UNL     1     -10.478   6.311  70.482  1.00  0.00    -0.274 A  
HETATM   16  F   UNL     1      -5.806   8.168  69.832  1.00  0.00    -0.023 F  
ENDBRANCH   2   3
BRANCH   2  17
HETATM   17  O   UNL     1     -11.475   9.837  71.185  1.00  0.00    -0.343 OA 
BRANCH  17  18
HETATM   18  C   UNL     1     -12.485  10.432  70.335  1.00  0.00    -0.268 C  
HETATM   19  N   UNL     1     -11.544  12.775  70.366  1.00  0.00    -0.002 NA 
HETATM   20  C   UNL     1     -11.941  11.655  69.473  1.00  0.00    -0.317 C  
HETATM   21  O   UNL     1     -13.631  10.857  71.091  1.00  0.00     0.065 OA 
HETATM   22  C   UNL     1     -13.271  11.918  71.984  1.00  0.00    -0.356 C  
HETATM   23  C   UNL     1     -12.695  13.124  71.232  1.00  0.00    -0.306 C  
BRANCH  19  24
HETATM   24  C   UNL     1     -10.932  13.967  69.755  1.00  0.00     0.028 C  
BRANCH  24  25
HETATM   25  C   UNL     1     -11.428  14.288  68.357  1.00  0.00    -0.301 C  
HETATM   26  O   UNL     1      -9.336  15.524  65.056  1.00  0.00     0.075 OA 
HETATM   27  O   UNL     1     -10.888  13.901  64.056  1.00  0.00    -0.129 OA 
HETATM   28  N   UNL     1     -12.504  13.744  67.845  1.00  0.00     0.054 NA 
HETATM   29  O   UNL     1     -11.477  16.415  63.975  1.00  0.00    -1.048 OA 
HETATM   30  C   UNL     1     -12.537  14.175  66.537  1.00  0.00    -0.128 C  
HETATM   31  O   UNL     1     -13.243  13.713  65.651  1.00  0.00    -0.506 OA 
HETATM   32  P   UNL     1     -10.915  15.316  64.805  1.00  0.00    -0.226 P  
HETATM   33  N   UNL     1     -11.529  15.080  66.338  1.00  0.00    -0.281 N  
HETATM   34  N   UNL     1     -10.778  15.173  67.529  1.00  0.00    -0.278 NA 
ENDBRANCH  24  25
ENDBRANCH  19  24
BRANCH  20  35
HETATM   35  C   UNL     1     -10.882  11.156  68.493  1.00  0.00    -0.243 A  
HETATM   36  C   UNL     1      -8.552  11.119  67.764  1.00  0.00    -0.131 A  
HETATM   37  F   UNL     1      -8.027  10.261  65.630  1.00  0.00    -0.125 F  
HETATM   38  C   UNL     1      -9.519  11.438  68.723  1.00  0.00    -0.128 A  
HETATM   39  C   UNL     1     -10.278  10.222  66.327  1.00  0.00    -0.287 A  
HETATM   40  C   UNL     1     -11.244  10.526  67.291  1.00  0.00    -0.202 A  
HETATM   41  C   UNL     1      -8.946  10.527  66.566  1.00  0.00    -0.157 A  
ENDBRANCH  20  35
ENDBRANCH  17  18
ENDBRANCH   2  17
TORSDOF 6
ENDMDL
MODEL      192
REMARK 921   NORMALIZED FREE ENERGY PREDICTED BY IDOCK:   -5.67 KCAL/MOL
REMARK 922        TOTAL FREE ENERGY PREDICTED BY IDOCK:   -8.57 KCAL/MOL
REMARK 923 INTER-LIGAND FREE ENERGY PREDICTED BY IDOCK:   -6.08 KCAL/MOL
REMARK 924 INTRA-LIGAND FREE ENERGY PREDICTED BY IDOCK:   -2.48 KCAL/MOL
REMARK 927      BINDING AFFINITY PREDICTED BY RF-SCORE:    0.00 PKD
ROOT
HETATM    1  C   UNL     1     -12.252   8.410  71.682  1.00  0.00    -0.358 C  
HETATM    2  C   UNL     1     -10.729   8.367  71.662  1.00  0.00    -0.265 C  
ENDROOT
BRANCH   2   3
HETATM    3  C   UNL     1     -10.127   9.447  70.786  1.00  0.00    -0.366 A  
HETATM    4  F   UNL     1     -12.134  11.148  67.415  1.00  0.00    -0.157 F  
HETATM    5  F   UNL     1     -10.464  12.485  67.037  1.00  0.00    -0.227 F  
HETATM    6  C   UNL     1      -8.732   9.479  70.663  1.00  0.00    -0.189 A  
HETATM    7  C   UNL     1      -8.118  10.203  69.643  1.00  0.00    -0.178 A  
HETATM    8  F   UNL     1     -11.819  12.883  68.690  1.00  0.00    -0.305 F  
HETATM    9  C   UNL     1      -6.638  10.023  69.388  1.00  0.00    -0.053 C  
HETATM   10  C   UNL     1      -8.912  10.990  68.795  1.00  0.00    -0.153 A  
HETATM   11  C   UNL     1     -11.170  11.883  68.035  1.00  0.00    -0.257 C  
HETATM   12  C   UNL     1     -10.309  11.047  68.956  1.00  0.00    -0.229 A  
HETATM   13  F   UNL     1      -6.005   9.315  70.365  1.00  0.00    -0.034 F  
HETATM   14  F   UNL     1      -6.407   9.349  68.231  1.00  0.00    -0.051 F  
HETATM   15  C   UNL     1     -10.909  10.263  69.954  1.00  0.00    -0.355 A  
HETATM   16  F   UNL     1      -5.973  11.202  69.285  1.00  0.00    -0.041 F  
ENDBRANCH   2   3
BRANCH   2  17
HETATM   17  O   UNL     1     -10.264   7.069  71.255  1.00  0.00    -0.192 OA 
BRANCH  17  18
HETATM   18  C   UNL     1      -9.387   6.436  72.219  1.00  0.00    -0.141 C  
HETATM   19  N   UNL     1      -9.501   4.115  71.229  1.00  0.00    -0.148 NA 
HETATM   20  C   UNL     1      -8.571   5.209  71.616  1.00  0.00    -0.129 C  
HETATM   21  O   UNL     1     -10.108   5.999  73.384  1.00  0.00    -0.176 OA 
HETATM   22  C   UNL     1     -11.034   4.964  73.035  1.00  0.00    -0.288 C  
HETATM   23  C   UNL     1     -10.329   3.757  72.406  1.00  0.00    -0.114 C  
BRANCH  19  24
HETATM   24  C   UNL     1      -8.936   2.925  70.569  1.00  0.00    -0.102 C  
BRANCH  24  25
HETATM   25  C   UNL     1      -9.064   2.918  69.057  1.00  0.00    -0.144 C  
HETATM   26  O   UNL     1     -10.255   5.904  66.515  1.00  0.00    -0.184 OA 
HETATM   27  O   UNL     1      -8.365   4.946  65.271  1.00  0.00    -0.120 OA 
HETATM   28  N   UNL     1      -8.344   2.138  68.289  1.00  0.00    -0.057 NA 
HETATM   29  O   UNL     1     -10.766   4.200  64.677  1.00  0.00    -0.255 OA 
HETATM   30  C   UNL     1      -8.648   2.522  67.002  1.00  0.00    -0.110 C  
HETATM   31  O   UNL     1      -8.022   2.211  65.998  1.00  0.00    -0.075 OA 
HETATM   32  P   UNL     1      -9.826   4.535  65.780  1.00  0.00    -0.237 P  
HETATM   33  N   UNL     1      -9.653   3.452  67.037  1.00  0.00    -0.154 N  
HETATM   34  N   UNL     1      -9.947   3.733  68.388  1.00  0.00     0.112 NA 
ENDBRANCH  24  25
ENDBRANCH  19  24
BRANCH  20  35
HETATM   35  C   UNL     1      -7.622   5.713  70.531  1.00  0.00    -0.089 A  
HETATM   36  C   UNL     1      -7.296   6.615  68.286  1.00  0.00    -0.090 A  
HETATM   37  F   UNL     1      -5.126   6.639  67.360  1.00  0.00    -0.006 F  
HETATM   38  C   UNL     1      -8.140   6.286  69.350  1.00  0.00    -0.113 A  
HETATM   39  C   UNL     1      -5.395   5.820  69.553  1.00  0.00    -0.004 A  
HETATM   40  C   UNL     1      -6.237   5.505  70.624  1.00  0.00    -0.026 A  
HETATM   41  C   UNL     1      -5.930   6.364  68.394  1.00  0.00    -0.020 A  
ENDBRANCH  20  35
ENDBRANCH  17  18
ENDBRANCH   2  17
TORSDOF 6
ENDMDL
MODEL      193
REMARK 921   NORMALIZED FREE ENERGY PREDICTED BY IDOCK:   -5.65 KCAL/MOL
REMARK 922        TOTAL FREE ENERGY PREDICTED BY IDOCK:   -8.54 KCAL/MOL
REMARK 923 INTER-LIGAND FREE ENERGY PREDICTED BY IDOCK:   -6.31 KCAL/MOL
REMARK 924 INTRA-LIGAND FREE ENERGY PREDICTED BY IDOCK:   -2.24 KCAL/MOL
REMARK 927      BINDING AFFINITY PREDICTED BY RF-SCORE:    0.00 PKD
ROOT
HETATM    1  C   UNL     1     -12.210  15.145  70.601  1.00  0.00    -0.401 C  
HETATM    2  C   UNL     1     -11.238  14.753  69.496  1.00  0.00    -0.278 C  
ENDROOT
BRANCH   2   3
HETATM    3  C   UNL     1     -11.247  15.729  68.337  1.00  0.00    -0.362 A  
HETATM    4  F   UNL     1     -10.860  14.545  64.247  1.00  0.00    -0.323 F  
HETATM    5  F   UNL     1     -11.051  16.604  63.583  1.00  0.00     0.402 F  
HETATM    6  C   UNL     1     -10.771  17.025  68.576  1.00  0.00    -0.352 A  
HETATM    7  C   UNL     1     -10.434  17.872  67.522  1.00  0.00    -0.398 A  
HETATM    8  F   UNL     1     -12.807  15.517  64.265  1.00  0.00    -0.264 F  
HETATM    9  C   UNL     1      -9.699  19.162  67.809  1.00  0.00    -0.321 C  
HETATM   10  C   UNL     1     -10.675  17.448  66.207  1.00  0.00    -0.082 A  
HETATM   11  C   UNL     1     -11.487  15.720  64.525  1.00  0.00    -0.289 C  
HETATM   12  C   UNL     1     -11.239  16.186  65.942  1.00  0.00     0.176 A  
HETATM   13  F   UNL     1      -9.645  19.468  69.135  1.00  0.00    -0.424 F  
HETATM   14  F   UNL     1      -8.409  19.108  67.387  1.00  0.00    -0.281 F  
HETATM   15  C   UNL     1     -11.515  15.328  67.019  1.00  0.00    -0.167 A  
HETATM   16  F   UNL     1     -10.260  20.236  67.196  1.00  0.00    -0.524 F  
ENDBRANCH   2   3
BRANCH   2  17
HETATM   17  O   UNL     1     -11.506  13.418  69.034  1.00  0.00    -0.263 OA 
BRANCH  17  18
HETATM   18  C   UNL     1     -10.575  12.429  69.536  1.00  0.00     0.395 C  
HETATM   19  N   UNL     1      -9.959  11.450  67.291  1.00  0.00    -0.192 NA 
HETATM   20  C   UNL     1      -9.404  12.091  68.512  1.00  0.00    -0.124 C  
HETATM   21  O   UNL     1     -11.245  11.212  69.908  1.00  0.00    -0.261 OA 
HETATM   22  C   UNL     1     -11.816  10.587  68.753  1.00  0.00    -0.022 C  
HETATM   23  C   UNL     1     -10.754  10.266  67.695  1.00  0.00    -0.288 C  
BRANCH  19  24
HETATM   24  C   UNL     1      -9.033  11.142  66.187  1.00  0.00    -0.195 C  
BRANCH  24  25
HETATM   25  C   UNL     1      -8.416   9.757  66.244  1.00  0.00    -0.123 C  
HETATM   26  O   UNL     1      -8.269   6.835  63.374  1.00  0.00    -0.048 OA 
HETATM   27  O   UNL     1      -6.002   6.695  64.312  1.00  0.00    -0.033 OA 
HETATM   28  N   UNL     1      -7.405   9.464  67.024  1.00  0.00    -0.087 NA 
HETATM   29  O   UNL     1      -7.809   5.050  65.148  1.00  0.00    -0.085 OA 
HETATM   30  C   UNL     1      -7.055   8.175  66.689  1.00  0.00    -0.077 C  
HETATM   31  O   UNL     1      -6.019   7.610  67.011  1.00  0.00    -0.043 OA 
HETATM   32  P   UNL     1      -7.522   6.455  64.751  1.00  0.00    -0.100 P  
HETATM   33  N   UNL     1      -7.963   7.683  65.790  1.00  0.00    -0.108 N  
HETATM   34  N   UNL     1      -8.876   8.713  65.477  1.00  0.00    -0.189 NA 
ENDBRANCH  24  25
ENDBRANCH  19  24
BRANCH  20  35
HETATM   35  C   UNL     1      -8.541  13.333  68.298  1.00  0.00    -0.169 A  
HETATM   36  C   UNL     1      -7.141  15.100  69.237  1.00  0.00    -0.172 A  
HETATM   37  F   UNL     1      -6.588  16.963  67.899  1.00  0.00    -0.128 F  
HETATM   38  C   UNL     1      -7.815  13.883  69.377  1.00  0.00     0.371 A  
HETATM   39  C   UNL     1      -7.888  15.246  66.941  1.00  0.00    -0.152 A  
HETATM   40  C   UNL     1      -8.550  14.022  67.075  1.00  0.00    -0.193 A  
HETATM   41  C   UNL     1      -7.198  15.777  68.021  1.00  0.00    -0.130 A  
ENDBRANCH  20  35
ENDBRANCH  17  18
ENDBRANCH   2  17
TORSDOF 6
ENDMDL
MODEL      194
REMARK 921   NORMALIZED FREE ENERGY PREDICTED BY IDOCK:   -5.65 KCAL/MOL
REMARK 922        TOTAL FREE ENERGY PREDICTED BY IDOCK:   -8.54 KCAL/MOL
REMARK 923 INTER-LIGAND FREE ENERGY PREDICTED BY IDOCK:   -7.51 KCAL/MOL
REMARK 924 INTRA-LIGAND FREE ENERGY PREDICTED BY IDOCK:   -1.02 KCAL/MOL
REMARK 927      BINDING AFFINITY PREDICTED BY RF-SCORE:    0.00 PKD
ROOT
HETATM    1  C   UNL     1      -8.341  11.766  68.930  1.00  0.00     0.073 C  
HETATM    2  C   UNL     1      -9.158  10.552  68.505  1.00  0.00    -0.154 C  
ENDROOT
BRANCH   2   3
HETATM    3  C   UNL     1      -9.571  10.608  67.049  1.00  0.00    -0.196 A  
HETATM    4  F   UNL     1      -6.841  10.102  63.797  1.00  0.00    -0.122 F  
HETATM    5  F   UNL     1      -8.449  10.314  62.352  1.00  0.00    -0.139 F  
HETATM    6  C   UNL     1     -10.671  11.409  66.716  1.00  0.00    -0.316 A  
HETATM    7  C   UNL     1     -10.916  11.782  65.396  1.00  0.00    -0.352 A  
HETATM    8  F   UNL     1      -8.243   8.468  63.482  1.00  0.00    -0.153 F  
HETATM    9  C   UNL     1     -11.958  12.837  65.100  1.00  0.00    -0.424 C  
HETATM   10  C   UNL     1     -10.101  11.258  64.381  1.00  0.00    -0.357 A  
HETATM   11  C   UNL     1      -8.156   9.822  63.589  1.00  0.00    -0.151 C  
HETATM   12  C   UNL     1      -9.045  10.377  64.679  1.00  0.00    -0.255 A  
HETATM   13  F   UNL     1     -12.724  13.155  66.180  1.00  0.00    -0.409 F  
HETATM   14  F   UNL     1     -11.389  14.002  64.692  1.00  0.00    -0.333 F  
HETATM   15  C   UNL     1      -8.783  10.063  66.022  1.00  0.00    -0.152 A  
HETATM   16  F   UNL     1     -12.820  12.467  64.120  1.00  0.00    -0.466 F  
ENDBRANCH   2   3
BRANCH   2  17
HETATM   17  O   UNL     1     -10.310  10.395  69.351  1.00  0.00    -0.213 OA 
BRANCH  17  18
HETATM   18  C   UNL     1     -10.011   9.796  70.636  1.00  0.00    -0.146 C  
HETATM   19  N   UNL     1     -11.290   7.651  70.258  1.00  0.00    -0.230 NA 
HETATM   20  C   UNL     1      -9.951   8.206  70.591  1.00  0.00    -0.189 C  
HETATM   21  O   UNL     1     -10.953  10.206  71.643  1.00  0.00     0.188 OA 
HETATM   22  C   UNL     1     -12.260   9.710  71.331  1.00  0.00    -0.385 C  
HETATM   23  C   UNL     1     -12.279   8.181  71.227  1.00  0.00    -0.279 C  
BRANCH  19  24
HETATM   24  C   UNL     1     -11.414   6.194  70.084  1.00  0.00    -0.295 C  
BRANCH  24  25
HETATM   25  C   UNL     1     -10.950   5.372  71.272  1.00  0.00    -0.065 C  
HETATM   26  O   UNL     1      -7.405   3.403  71.870  1.00  0.00    -0.048 OA 
HETATM   27  O   UNL     1      -7.778   4.394  74.088  1.00  0.00    -0.083 OA 
HETATM   28  N   UNL     1     -11.390   5.575  72.489  1.00  0.00    -0.281 NA 
HETATM   29  O   UNL     1      -8.469   1.938  73.678  1.00  0.00    -0.056 OA 
HETATM   30  C   UNL     1     -10.641   4.739  73.286  1.00  0.00    -0.226 C  
HETATM   31  O   UNL     1     -10.570   4.790  74.507  1.00  0.00    -0.300 OA 
HETATM   32  P   UNL     1      -8.435   3.312  73.107  1.00  0.00    -0.082 P  
HETATM   33  N   UNL     1      -9.845   3.955  72.493  1.00  0.00    -0.148 N  
HETATM   34  N   UNL     1     -10.031   4.356  71.152  1.00  0.00    -0.191 NA 
ENDBRANCH  24  25
ENDBRANCH  19  24
BRANCH  20  35
HETATM   35  C   UNL     1      -8.790   7.766  69.702  1.00  0.00    -0.139 A  
HETATM   36  C   UNL     1      -8.002   6.581  67.718  1.00  0.00    -0.115 A  
HETATM   37  F   UNL     1      -5.700   6.116  67.494  1.00  0.00    -0.013 F  
HETATM   38  C   UNL     1      -9.047   7.122  68.473  1.00  0.00    -0.132 A  
HETATM   39  C   UNL     1      -6.417   7.318  69.390  1.00  0.00    -0.036 A  
HETATM   40  C   UNL     1      -7.460   7.873  70.138  1.00  0.00    -0.078 A  
HETATM   41  C   UNL     1      -6.697   6.671  68.194  1.00  0.00    -0.068 A  
ENDBRANCH  20  35
ENDBRANCH  17  18
ENDBRANCH   2  17
TORSDOF 6
ENDMDL
MODEL      195
REMARK 921   NORMALIZED FREE ENERGY PREDICTED BY IDOCK:   -5.64 KCAL/MOL
REMARK 922        TOTAL FREE ENERGY PREDICTED BY IDOCK:   -8.52 KCAL/MOL
REMARK 923 INTER-LIGAND FREE ENERGY PREDICTED BY IDOCK:   -7.68 KCAL/MOL
REMARK 924 INTRA-LIGAND FREE ENERGY PREDICTED BY IDOCK:   -0.84 KCAL/MOL
REMARK 927      BINDING AFFINITY PREDICTED BY RF-SCORE:    0.00 PKD
ROOT
HETATM    1  C   UNL     1     -10.395  10.224  66.248  1.00  0.00    -0.256 C  
HETATM    2  C   UNL     1     -11.344  10.680  67.350  1.00  0.00    -0.105 C  
ENDROOT
BRANCH   2   3
HETATM    3  C   UNL     1     -11.232  12.162  67.640  1.00  0.00    -0.345 A  
HETATM    4  F   UNL     1      -7.686  14.446  66.938  1.00  0.00    -0.177 F  
HETATM    5  F   UNL     1      -8.663  16.262  67.620  1.00  0.00    -0.176 F  
HETATM    6  C   UNL     1     -12.018  12.682  68.676  1.00  0.00    -0.264 A  
HETATM    7  C   UNL     1     -11.745  13.933  69.227  1.00  0.00    -0.381 A  
HETATM    8  F   UNL     1      -9.139  15.444  65.662  1.00  0.00    -0.337 F  
HETATM    9  C   UNL     1     -12.449  14.358  70.496  1.00  0.00    -0.350 C  
HETATM   10  C   UNL     1     -10.730  14.718  68.660  1.00  0.00    -0.253 A  
HETATM   11  C   UNL     1      -8.882  15.094  66.952  1.00  0.00    -0.256 C  
HETATM   12  C   UNL     1      -9.987  14.257  67.557  1.00  0.00    -0.235 A  
HETATM   13  F   UNL     1     -13.473  13.531  70.847  1.00  0.00    -0.220 F  
HETATM   14  F   UNL     1     -11.602  14.372  71.559  1.00  0.00    -0.347 F  
HETATM   15  C   UNL     1     -10.242  12.969  67.058  1.00  0.00    -0.245 A  
HETATM   16  F   UNL     1     -12.981  15.604  70.412  1.00  0.00    -0.454 F  
ENDBRANCH   2   3
BRANCH   2  17
HETATM   17  O   UNL     1     -11.135   9.913  68.548  1.00  0.00    -0.207 OA 
BRANCH  17  18
HETATM   18  C   UNL     1     -10.490  10.657  69.610  1.00  0.00    -0.179 C  
HETATM   19  N   UNL     1      -9.340   8.682  70.685  1.00  0.00    -0.172 NA 
HETATM   20  C   UNL     1      -9.108  10.018  70.075  1.00  0.00    -0.091 C  
HETATM   21  O   UNL     1     -11.351  10.805  70.752  1.00  0.00    -0.256 OA 
HETATM   22  C   UNL     1     -11.617   9.527  71.343  1.00  0.00    -0.395 C  
HETATM   23  C   UNL     1     -10.327   8.824  71.782  1.00  0.00    -0.343 C  
BRANCH  19  24
HETATM   24  C   UNL     1      -8.165   7.894  71.099  1.00  0.00    -0.107 C  
BRANCH  24  25
HETATM   25  C   UNL     1      -8.468   6.457  71.481  1.00  0.00    -0.129 C  
HETATM   26  O   UNL     1      -9.007   3.170  69.092  1.00  0.00    -0.096 OA 
HETATM   27  O   UNL     1      -7.650   2.221  70.908  1.00  0.00    -0.033 OA 
HETATM   28  N   UNL     1      -8.109   5.939  72.629  1.00  0.00    -0.105 NA 
HETATM   29  O   UNL     1     -10.217   1.938  70.980  1.00  0.00     0.095 OA 
HETATM   30  C   UNL     1      -8.435   4.604  72.539  1.00  0.00    -0.115 C  
HETATM   31  O   UNL     1      -8.054   3.723  73.297  1.00  0.00    -0.084 OA 
HETATM   32  P   UNL     1      -9.095   2.867  70.673  1.00  0.00    -0.147 P  
HETATM   33  N   UNL     1      -9.105   4.384  71.364  1.00  0.00    -0.122 N  
HETATM   34  N   UNL     1      -9.140   5.598  70.644  1.00  0.00    -0.148 NA 
ENDBRANCH  24  25
ENDBRANCH  19  24
BRANCH  20  35
HETATM   35  C   UNL     1      -8.106  10.078  68.924  1.00  0.00    -0.111 A  
HETATM   36  C   UNL     1      -6.732  11.410  67.408  1.00  0.00    -0.094 A  
HETATM   37  F   UNL     1      -5.776  10.378  65.514  1.00  0.00    -0.069 F  
HETATM   38  C   UNL     1      -7.534  11.312  68.549  1.00  0.00    -0.115 A  
HETATM   39  C   UNL     1      -7.044   9.048  66.990  1.00  0.00    -0.079 A  
HETATM   40  C   UNL     1      -7.833   8.946  68.140  1.00  0.00    -0.101 A  
HETATM   41  C   UNL     1      -6.508  10.277  66.630  1.00  0.00    -0.076 A  
ENDBRANCH  20  35
ENDBRANCH  17  18
ENDBRANCH   2  17
TORSDOF 6
ENDMDL
MODEL      196
REMARK 921   NORMALIZED FREE ENERGY PREDICTED BY IDOCK:   -5.61 KCAL/MOL
REMARK 922        TOTAL FREE ENERGY PREDICTED BY IDOCK:   -8.48 KCAL/MOL
REMARK 923 INTER-LIGAND FREE ENERGY PREDICTED BY IDOCK:   -8.28 KCAL/MOL
REMARK 924 INTRA-LIGAND FREE ENERGY PREDICTED BY IDOCK:   -0.20 KCAL/MOL
REMARK 927      BINDING AFFINITY PREDICTED BY RF-SCORE:    0.00 PKD
ROOT
HETATM    1  C   UNL     1      -8.157   9.473  67.522  1.00  0.00    -0.110 C  
HETATM    2  C   UNL     1      -7.939  10.051  68.915  1.00  0.00    -0.101 C  
ENDROOT
BRANCH   2   3
HETATM    3  C   UNL     1      -8.254   9.059  70.015  1.00  0.00    -0.128 A  
HETATM    4  F   UNL     1      -5.282   6.720  72.010  1.00  0.00    -0.028 F  
HETATM    5  F   UNL     1      -6.787   5.810  73.285  1.00  0.00    -0.075 F  
HETATM    6  C   UNL     1      -9.508   8.436  69.988  1.00  0.00    -0.164 A  
HETATM    7  C   UNL     1      -9.759   7.291  70.741  1.00  0.00    -0.171 A  
HETATM    8  F   UNL     1      -6.152   7.858  73.648  1.00  0.00    -0.063 F  
HETATM    9  C   UNL     1     -11.031   6.507  70.505  1.00  0.00    -0.294 C  
HETATM   10  C   UNL     1      -8.766   6.822  71.614  1.00  0.00    -0.126 A  
HETATM   11  C   UNL     1      -6.451   6.973  72.659  1.00  0.00    -0.053 C  
HETATM   12  C   UNL     1      -7.529   7.484  71.729  1.00  0.00    -0.080 A  
HETATM   13  F   UNL     1     -11.925   7.158  69.710  1.00  0.00    -0.102 F  
HETATM   14  F   UNL     1     -10.782   5.321  69.892  1.00  0.00    -0.364 F  
HETATM   15  C   UNL     1      -7.280   8.601  70.916  1.00  0.00    -0.073 A  
HETATM   16  F   UNL     1     -11.691   6.214  71.655  1.00  0.00    -0.335 F  
ENDBRANCH   2   3
BRANCH   2  17
HETATM   17  O   UNL     1      -8.702  11.257  69.088  1.00  0.00    -0.030 OA 
BRANCH  17  18
HETATM   18  C   UNL     1      -9.194  11.819  67.847  1.00  0.00    -0.181 C  
HETATM   19  N   UNL     1     -10.725  13.532  68.895  1.00  0.00    -0.231 NA 
HETATM   20  C   UNL     1      -9.579  13.359  67.963  1.00  0.00    -0.219 C  
HETATM   21  O   UNL     1     -10.323  11.085  67.343  1.00  0.00    -0.191 OA 
HETATM   22  C   UNL     1     -11.435  11.209  68.237  1.00  0.00    -0.303 C  
HETATM   23  C   UNL     1     -11.843  12.673  68.437  1.00  0.00    -0.301 C  
BRANCH  19  24
HETATM   24  C   UNL     1     -11.172  14.903  69.200  1.00  0.00    -0.279 C  
BRANCH  24  25
HETATM   25  C   UNL     1     -10.950  15.905  68.082  1.00  0.00    -0.335 C  
HETATM   26  O   UNL     1      -8.457  19.155  67.936  1.00  0.00    -0.286 OA 
HETATM   27  O   UNL     1      -8.153  18.220  65.683  1.00  0.00    -0.477 OA 
HETATM   28  N   UNL     1     -11.135  15.610  66.819  1.00  0.00    -0.235 NA 
HETATM   29  O   UNL     1      -9.815  20.169  66.018  1.00  0.00    -0.434 OA 
HETATM   30  C   UNL     1     -10.703  16.718  66.125  1.00  0.00    -0.116 C  
HETATM   31  O   UNL     1     -10.483  16.766  64.922  1.00  0.00    -0.652 OA 
HETATM   32  P   UNL     1      -9.293  18.895  66.582  1.00  0.00    -0.343 P  
HETATM   33  N   UNL     1     -10.383  17.709  67.015  1.00  0.00    -0.332 N  
HETATM   34  N   UNL     1     -10.538  17.196  68.320  1.00  0.00    -0.366 NA 
ENDBRANCH  24  25
ENDBRANCH  19  24
BRANCH  20  35
HETATM   35  C   UNL     1      -8.325  14.177  68.266  1.00  0.00    -0.157 A  
HETATM   36  C   UNL     1      -6.844  15.212  69.909  1.00  0.00    -0.154 A  
HETATM   37  F   UNL     1      -5.234  16.776  69.181  1.00  0.00    -0.122 F  
HETATM   38  C   UNL     1      -7.900  14.348  69.601  1.00  0.00     0.280 A  
HETATM   39  C   UNL     1      -6.604  15.748  67.562  1.00  0.00    -0.213 A  
HETATM   40  C   UNL     1      -7.649  14.873  67.252  1.00  0.00    -0.213 A  
HETATM   41  C   UNL     1      -6.217  15.916  68.884  1.00  0.00    -0.120 A  
ENDBRANCH  20  35
ENDBRANCH  17  18
ENDBRANCH   2  17
TORSDOF 6
ENDMDL
MODEL      197
REMARK 921   NORMALIZED FREE ENERGY PREDICTED BY IDOCK:   -5.60 KCAL/MOL
REMARK 922        TOTAL FREE ENERGY PREDICTED BY IDOCK:   -8.46 KCAL/MOL
REMARK 923 INTER-LIGAND FREE ENERGY PREDICTED BY IDOCK:   -7.79 KCAL/MOL
REMARK 924 INTRA-LIGAND FREE ENERGY PREDICTED BY IDOCK:   -0.68 KCAL/MOL
REMARK 927      BINDING AFFINITY PREDICTED BY RF-SCORE:    0.00 PKD
ROOT
HETATM    1  C   UNL     1     -11.893   8.358  70.503  1.00  0.00    -0.004 C  
HETATM    2  C   UNL     1     -10.499   7.806  70.233  1.00  0.00    -0.225 C  
ENDROOT
BRANCH   2   3
HETATM    3  C   UNL     1      -9.823   7.291  71.487  1.00  0.00    -0.182 A  
HETATM    4  F   UNL     1      -5.980   8.618  72.812  1.00  0.00    -0.064 F  
HETATM    5  F   UNL     1      -6.089   7.337  74.563  1.00  0.00    -0.078 F  
HETATM    6  C   UNL     1     -10.116   5.984  71.893  1.00  0.00    -0.223 A  
HETATM    7  C   UNL     1      -9.312   5.320  72.817  1.00  0.00    -0.150 A  
HETATM    8  F   UNL     1      -7.260   9.167  74.484  1.00  0.00    -0.122 F  
HETATM    9  C   UNL     1      -9.509   3.839  73.049  1.00  0.00    -0.111 C  
HETATM   10  C   UNL     1      -8.253   6.016  73.419  1.00  0.00    -0.114 A  
HETATM   11  C   UNL     1      -6.844   8.111  73.733  1.00  0.00    -0.127 C  
HETATM   12  C   UNL     1      -7.993   7.362  73.097  1.00  0.00    -0.127 A  
HETATM   13  F   UNL     1     -10.641   3.349  72.471  1.00  0.00    -0.232 F  
HETATM   14  F   UNL     1      -8.484   3.110  72.535  1.00  0.00    -0.074 F  
HETATM   15  C   UNL     1      -8.782   7.990  72.120  1.00  0.00    -0.212 A  
HETATM   16  F   UNL     1      -9.587   3.517  74.366  1.00  0.00    -0.108 F  
ENDBRANCH   2   3
BRANCH   2  17
HETATM   17  O   UNL     1      -9.679   8.794  69.586  1.00  0.00    -0.168 OA 
BRANCH  17  18
HETATM   18  C   UNL     1      -8.831   8.255  68.543  1.00  0.00    -0.137 C  
HETATM   19  N   UNL     1      -9.332  10.031  66.819  1.00  0.00    -0.157 NA 
HETATM   20  C   UNL     1      -8.236   9.372  67.577  1.00  0.00    -0.117 C  
HETATM   21  O   UNL     1      -9.519   7.267  67.759  1.00  0.00    -0.131 OA 
HETATM   22  C   UNL     1     -10.601   7.869  67.039  1.00  0.00    -0.311 C  
HETATM   23  C   UNL     1     -10.115   8.989  66.112  1.00  0.00    -0.172 C  
BRANCH  19  24
HETATM   24  C   UNL     1      -8.985  11.156  65.933  1.00  0.00    -0.199 C  
BRANCH  24  25
HETATM   25  C   UNL     1      -9.844  12.394  66.114  1.00  0.00    -0.252 C  
HETATM   26  O   UNL     1      -8.821  16.354  65.838  1.00  0.00    -0.432 OA 
HETATM   27  O   UNL     1     -10.995  16.343  64.692  1.00  0.00    -0.707 OA 
HETATM   28  N   UNL     1     -11.134  12.400  65.887  1.00  0.00    -0.300 NA 
HETATM   29  O   UNL     1     -10.892  17.030  67.180  1.00  0.00    -0.224 OA 
HETATM   30  C   UNL     1     -11.517  13.716  66.025  1.00  0.00    -0.324 C  
HETATM   31  O   UNL     1     -12.587  14.189  65.668  1.00  0.00    -0.487 OA 
HETATM   32  P   UNL     1     -10.381  16.088  66.148  1.00  0.00    -0.336 P  
HETATM   33  N   UNL     1     -10.446  14.451  66.460  1.00  0.00    -0.285 N  
HETATM   34  N   UNL     1      -9.324  13.598  66.527  1.00  0.00    -0.257 NA 
ENDBRANCH  24  25
ENDBRANCH  19  24
BRANCH  20  35
HETATM   35  C   UNL     1      -7.307  10.289  68.369  1.00  0.00    -0.084 A  
HETATM   36  C   UNL     1      -6.281  10.900  70.499  1.00  0.00    -0.072 A  
HETATM   37  F   UNL     1      -5.205  12.990  70.701  1.00  0.00    -0.091 F  
HETATM   38  C   UNL     1      -7.007   9.996  69.717  1.00  0.00    -0.107 A  
HETATM   39  C   UNL     1      -6.129  12.406  68.613  1.00  0.00    -0.065 A  
HETATM   40  C   UNL     1      -6.841  11.496  67.825  1.00  0.00    -0.077 A  
HETATM   41  C   UNL     1      -5.862  12.105  69.941  1.00  0.00    -0.140 A  
ENDBRANCH  20  35
ENDBRANCH  17  18
ENDBRANCH   2  17
TORSDOF 6
ENDMDL
MODEL      198
REMARK 921   NORMALIZED FREE ENERGY PREDICTED BY IDOCK:   -5.58 KCAL/MOL
REMARK 922        TOTAL FREE ENERGY PREDICTED BY IDOCK:   -8.44 KCAL/MOL
REMARK 923 INTER-LIGAND FREE ENERGY PREDICTED BY IDOCK:   -8.44 KCAL/MOL
REMARK 924 INTRA-LIGAND FREE ENERGY PREDICTED BY IDOCK:   -0.00 KCAL/MOL
REMARK 927      BINDING AFFINITY PREDICTED BY RF-SCORE:    0.00 PKD
ROOT
HETATM    1  C   UNL     1     -11.311  10.410  68.198  1.00  0.00    -0.284 C  
HETATM    2  C   UNL     1     -10.448  10.888  67.037  1.00  0.00    -0.244 C  
ENDROOT
BRANCH   2   3
HETATM    3  C   UNL     1      -9.544   9.800  66.496  1.00  0.00    -0.249 A  
HETATM    4  F   UNL     1      -8.503   9.430  62.364  1.00  0.00    -0.142 F  
HETATM    5  F   UNL     1      -7.248   7.708  62.786  1.00  0.00    -0.073 F  
HETATM    6  C   UNL     1      -9.525   8.574  67.173  1.00  0.00    -0.208 A  
HETATM    7  C   UNL     1      -8.997   7.431  66.577  1.00  0.00    -0.184 A  
HETATM    8  F   UNL     1      -6.562   9.705  63.307  1.00  0.00    -0.098 F  
HETATM    9  C   UNL     1      -9.211   6.083  67.228  1.00  0.00    -0.114 C  
HETATM   10  C   UNL     1      -8.385   7.543  65.319  1.00  0.00    -0.112 A  
HETATM   11  C   UNL     1      -7.662   8.903  63.295  1.00  0.00    -0.123 C  
HETATM   12  C   UNL     1      -8.307   8.782  64.657  1.00  0.00    -0.175 A  
HETATM   13  F   UNL     1      -9.723   6.169  68.488  1.00  0.00    -0.124 F  
HETATM   14  F   UNL     1     -10.084   5.318  66.523  1.00  0.00    -0.159 F  
HETATM   15  C   UNL     1      -8.899   9.907  65.253  1.00  0.00    -0.210 A  
HETATM   16  F   UNL     1      -8.066   5.361  67.334  1.00  0.00    -0.099 F  
ENDBRANCH   2   3
BRANCH   2  17
HETATM   17  O   UNL     1      -9.679  12.041  67.418  1.00  0.00    -0.180 OA 
BRANCH  17  18
HETATM   18  C   UNL     1      -9.713  13.113  66.444  1.00  0.00    -0.269 C  
HETATM   19  N   UNL     1     -11.055  14.730  67.844  1.00  0.00    -0.282 NA 
HETATM   20  C   UNL     1      -9.777  14.560  67.103  1.00  0.00    -0.240 C  
HETATM   21  O   UNL     1     -10.811  12.960  65.527  1.00  0.00    -0.269 OA 
HETATM   22  C   UNL     1     -12.058  13.090  66.220  1.00  0.00    -0.386 C  
HETATM   23  C   UNL     1     -12.181  14.447  66.921  1.00  0.00    -0.267 C  
BRANCH  19  24
HETATM   24  C   UNL     1     -11.261  15.979  68.597  1.00  0.00    -0.366 C  
BRANCH  24  25
HETATM   25  C   UNL     1     -10.698  17.221  67.931  1.00  0.00    -0.351 C  
HETATM   26  O   UNL     1      -6.965  18.889  68.227  1.00  0.00    -0.237 OA 
HETATM   27  O   UNL     1      -7.401  19.120  65.819  1.00  0.00    -0.356 OA 
HETATM   28  N   UNL     1     -11.137  17.668  66.781  1.00  0.00     0.207 NA 
HETATM   29  O   UNL     1      -7.849  21.133  67.375  1.00  0.00    -0.300 OA 
HETATM   30  C   UNL     1     -10.295  18.708  66.455  1.00  0.00    -0.432 C  
HETATM   31  O   UNL     1     -10.211  19.241  65.356  1.00  0.00    -0.328 OA 
HETATM   32  P   UNL     1      -7.961  19.658  67.219  1.00  0.00    -0.302 P  
HETATM   33  N   UNL     1      -9.438  18.936  67.499  1.00  0.00    -0.299 N  
HETATM   34  N   UNL     1      -9.684  17.963  68.491  1.00  0.00    -0.335 NA 
ENDBRANCH  24  25
ENDBRANCH  19  24
BRANCH  20  35
HETATM   35  C   UNL     1      -8.494  14.819  67.889  1.00  0.00    -0.156 A  
HETATM   36  C   UNL     1      -7.397  15.247  70.028  1.00  0.00     0.036 A  
HETATM   37  F   UNL     1      -5.160  16.000  70.043  1.00  0.00    -0.112 F  
HETATM   38  C   UNL     1      -8.527  14.866  69.299  1.00  0.00    -0.116 A  
HETATM   39  C   UNL     1      -6.168  15.535  67.964  1.00  0.00    -0.153 A  
HETATM   40  C   UNL     1      -7.294  15.139  67.235  1.00  0.00    -0.216 A  
HETATM   41  C   UNL     1      -6.231  15.594  69.349  1.00  0.00    -0.136 A  
ENDBRANCH  20  35
ENDBRANCH  17  18
ENDBRANCH   2  17
TORSDOF 6
ENDMDL
MODEL      199
REMARK 921   NORMALIZED FREE ENERGY PREDICTED BY IDOCK:   -5.58 KCAL/MOL
REMARK 922        TOTAL FREE ENERGY PREDICTED BY IDOCK:   -8.44 KCAL/MOL
REMARK 923 INTER-LIGAND FREE ENERGY PREDICTED BY IDOCK:   -7.68 KCAL/MOL
REMARK 924 INTRA-LIGAND FREE ENERGY PREDICTED BY IDOCK:   -0.76 KCAL/MOL
REMARK 927      BINDING AFFINITY PREDICTED BY RF-SCORE:    0.00 PKD
ROOT
HETATM    1  C   UNL     1      -9.595   9.851  70.105  1.00  0.00    -0.237 C  
HETATM    2  C   UNL     1      -9.373  10.944  69.068  1.00  0.00    -0.131 C  
ENDROOT
BRANCH   2   3
HETATM    3  C   UNL     1     -10.431  12.027  69.126  1.00  0.00    -0.005 A  
HETATM    4  F   UNL     1      -9.753  16.062  67.884  1.00  0.00    -0.215 F  
HETATM    5  F   UNL     1     -11.808  16.598  68.342  1.00  0.00    -0.200 F  
HETATM    6  C   UNL     1     -11.416  11.921  70.116  1.00  0.00    -0.136 A  
HETATM    7  C   UNL     1     -12.214  13.011  70.457  1.00  0.00    -0.392 A  
HETATM    8  F   UNL     1     -11.362  15.435  66.560  1.00  0.00    -0.320 F  
HETATM    9  C   UNL     1     -13.091  12.938  71.686  1.00  0.00    -0.335 C  
HETATM   10  C   UNL     1     -12.091  14.198  69.720  1.00  0.00    -0.409 A  
HETATM   11  C   UNL     1     -11.027  15.585  67.870  1.00  0.00    -0.316 C  
HETATM   12  C   UNL     1     -11.173  14.302  68.657  1.00  0.00    -0.287 A  
HETATM   13  F   UNL     1     -13.173  11.685  72.216  1.00  0.00    -0.609 F  
HETATM   14  F   UNL     1     -12.624  13.733  72.683  1.00  0.00    -0.298 F  
HETATM   15  C   UNL     1     -10.339  13.208  68.373  1.00  0.00    -0.257 A  
HETATM   16  F   UNL     1     -14.368  13.331  71.447  1.00  0.00     0.106 F  
ENDBRANCH   2   3
BRANCH   2  17
HETATM   17  O   UNL     1      -9.297  10.382  67.747  1.00  0.00    -0.144 OA 
BRANCH  17  18
HETATM   18  C   UNL     1      -8.172  10.865  66.972  1.00  0.00    -0.134 C  
HETATM   19  N   UNL     1      -8.074   8.919  65.366  1.00  0.00    -0.112 NA 
HETATM   20  C   UNL     1      -8.209  10.397  65.451  1.00  0.00    -0.159 C  
HETATM   21  O   UNL     1      -6.918  10.475  67.558  1.00  0.00    -0.078 OA 
HETATM   22  C   UNL     1      -6.773   9.051  67.517  1.00  0.00    -0.069 C  
HETATM   23  C   UNL     1      -6.841   8.513  66.083  1.00  0.00    -0.072 C  
BRANCH  19  24
HETATM   24  C   UNL     1      -8.173   8.287  64.039  1.00  0.00    -0.096 C  
BRANCH  24  25
HETATM   25  C   UNL     1      -8.032   6.776  64.043  1.00  0.00    -0.075 C  
HETATM   26  O   UNL     1     -10.391   3.931  65.814  1.00  0.00    -0.041 OA 
HETATM   27  O   UNL     1      -9.925   2.878  63.642  1.00  0.00    -0.135 OA 
HETATM   28  N   UNL     1      -7.439   6.118  63.078  1.00  0.00    -0.061 NA 
HETATM   29  O   UNL     1      -8.496   2.216  65.690  1.00  0.00    -0.090 OA 
HETATM   30  C   UNL     1      -7.637   4.788  63.376  1.00  0.00    -0.060 C  
HETATM   31  O   UNL     1      -7.451   3.850  62.613  1.00  0.00    -0.047 OA 
HETATM   32  P   UNL     1      -9.154   3.338  64.967  1.00  0.00    -0.151 P  
HETATM   33  N   UNL     1      -8.247   4.688  64.599  1.00  0.00    -0.107 N  
HETATM   34  N   UNL     1      -8.520   5.993  65.062  1.00  0.00    -0.126 NA 
ENDBRANCH  24  25
ENDBRANCH  19  24
BRANCH  20  35
HETATM   35  C   UNL     1      -9.424  11.011  64.759  1.00  0.00    -0.267 A  
HETATM   36  C   UNL     1     -11.746  11.758  64.872  1.00  0.00    -0.187 A  
HETATM   37  F   UNL     1     -12.908  12.212  62.869  1.00  0.00    -0.518 F  
HETATM   38  C   UNL     1     -10.575  11.336  65.508  1.00  0.00    -0.306 A  
HETATM   39  C   UNL     1     -10.649  11.554  62.726  1.00  0.00     0.167 A  
HETATM   40  C   UNL     1      -9.473  11.146  63.362  1.00  0.00    -0.321 A  
HETATM   41  C   UNL     1     -11.774  11.848  63.482  1.00  0.00    -0.452 A  
ENDBRANCH  20  35
ENDBRANCH  17  18
ENDBRANCH   2  17
TORSDOF 6
ENDMDL
MODEL      200
REMARK 921   NORMALIZED FREE ENERGY PREDICTED BY IDOCK:   -5.56 KCAL/MOL
REMARK 922        TOTAL FREE ENERGY PREDICTED BY IDOCK:   -8.42 KCAL/MOL
REMARK 923 INTER-LIGAND FREE ENERGY PREDICTED BY IDOCK:   -6.54 KCAL/MOL
REMARK 924 INTRA-LIGAND FREE ENERGY PREDICTED BY IDOCK:   -1.88 KCAL/MOL
REMARK 927      BINDING AFFINITY PREDICTED BY RF-SCORE:    0.00 PKD
ROOT
HETATM    1  C   UNL     1     -10.294   5.660  68.516  1.00  0.00    -0.265 C  
HETATM    2  C   UNL     1      -9.837   6.751  67.557  1.00  0.00    -0.132 C  
ENDROOT
BRANCH   2   3
HETATM    3  C   UNL     1      -9.404   6.203  66.213  1.00  0.00    -0.157 A  
HETATM    4  F   UNL     1      -9.528   2.049  65.206  1.00  0.00    -0.129 F  
HETATM    5  F   UNL     1      -8.789   2.464  63.206  1.00  0.00    -0.084 F  
HETATM    6  C   UNL     1      -8.411   6.902  65.515  1.00  0.00    -0.122 A  
HETATM    7  C   UNL     1      -7.725   6.312  64.456  1.00  0.00    -0.106 A  
HETATM    8  F   UNL     1     -10.851   2.925  63.717  1.00  0.00    -0.218 F  
HETATM    9  C   UNL     1      -6.502   6.995  63.887  1.00  0.00    -0.043 C  
HETATM   10  C   UNL     1      -8.112   5.034  64.026  1.00  0.00    -0.119 A  
HETATM   11  C   UNL     1      -9.579   2.962  64.198  1.00  0.00    -0.147 C  
HETATM   12  C   UNL     1      -9.169   4.346  64.651  1.00  0.00    -0.156 A  
HETATM   13  F   UNL     1      -6.335   8.268  64.343  1.00  0.00    -0.062 F  
HETATM   14  F   UNL     1      -5.361   6.332  64.210  1.00  0.00    -0.016 F  
HETATM   15  C   UNL     1      -9.805   4.939  65.753  1.00  0.00    -0.186 A  
HETATM   16  F   UNL     1      -6.527   7.079  62.532  1.00  0.00    -0.047 F  
ENDBRANCH   2   3
BRANCH   2  17
HETATM   17  O   UNL     1      -8.785   7.535  68.145  1.00  0.00    -0.123 OA 
BRANCH  17  18
HETATM   18  C   UNL     1      -8.062   6.847  69.195  1.00  0.00    -0.121 C  
HETATM   19  N   UNL     1      -6.765   8.853  70.013  1.00  0.00    -0.041 NA 
HETATM   20  C   UNL     1      -7.708   7.782  70.433  1.00  0.00    -0.088 C  
HETATM   21  O   UNL     1      -6.856   6.242  68.698  1.00  0.00    -0.068 OA 
HETATM   22  C   UNL     1      -5.939   7.251  68.258  1.00  0.00    -0.030 C  
HETATM   23  C   UNL     1      -5.579   8.223  69.387  1.00  0.00    -0.030 C  
BRANCH  19  24
HETATM   24  C   UNL     1      -6.388   9.874  71.006  1.00  0.00    -0.005 C  
BRANCH  24  25
HETATM   25  C   UNL     1      -6.270  11.283  70.455  1.00  0.00    -0.066 C  
HETATM   26  O   UNL     1      -8.694  13.271  67.814  1.00  0.00    -0.170 OA 
HETATM   27  O   UNL     1      -8.220  15.042  69.451  1.00  0.00    -0.196 OA 
HETATM   28  N   UNL     1      -5.677  12.252  71.107  1.00  0.00    -0.367 NA 
HETATM   29  O   UNL     1      -6.825  14.935  67.279  1.00  0.00    -0.254 OA 
HETATM   30  C   UNL     1      -5.899  13.382  70.352  1.00  0.00    -0.162 C  
HETATM   31  O   UNL     1      -5.719  14.534  70.722  1.00  0.00    -0.153 OA 
HETATM   32  P   UNL     1      -7.456  14.143  68.369  1.00  0.00    -0.147 P  
HETATM   33  N   UNL     1      -6.524  13.027  69.186  1.00  0.00    -0.104 N  
HETATM   34  N   UNL     1      -6.782  11.640  69.229  1.00  0.00    -0.110 NA 
ENDBRANCH  24  25
ENDBRANCH  19  24
BRANCH  20  35
HETATM   35  C   UNL     1      -8.998   8.237  71.113  1.00  0.00    -0.192 A  
HETATM   36  C   UNL     1     -10.771   7.818  72.738  1.00  0.00    -0.417 A  
HETATM   37  F   UNL     1     -12.729   9.133  72.670  1.00  0.00    -0.439 F  
HETATM   38  C   UNL     1      -9.519   7.505  72.200  1.00  0.00    -0.185 A  
HETATM   39  C   UNL     1     -11.011   9.606  71.127  1.00  0.00    -0.430 A  
HETATM   40  C   UNL     1      -9.752   9.303  70.599  1.00  0.00    -0.334 A  
HETATM   41  C   UNL     1     -11.512   8.859  72.183  1.00  0.00    -0.317 A  
ENDBRANCH  20  35
ENDBRANCH  17  18
ENDBRANCH   2  17
TORSDOF 6
ENDMDL
MODEL      201
REMARK 921   NORMALIZED FREE ENERGY PREDICTED BY IDOCK:   -5.54 KCAL/MOL
REMARK 922        TOTAL FREE ENERGY PREDICTED BY IDOCK:   -8.38 KCAL/MOL
REMARK 923 INTER-LIGAND FREE ENERGY PREDICTED BY IDOCK:   -9.13 KCAL/MOL
REMARK 924 INTRA-LIGAND FREE ENERGY PREDICTED BY IDOCK:    0.75 KCAL/MOL
REMARK 927      BINDING AFFINITY PREDICTED BY RF-SCORE:    0.00 PKD
ROOT
HETATM    1  C   UNL     1      -8.087  10.842  68.589  1.00  0.00    -0.143 C  
HETATM    2  C   UNL     1      -9.466  11.264  69.081  1.00  0.00     0.085 C  
ENDROOT
BRANCH   2   3
HETATM    3  C   UNL     1     -10.109  10.224  69.976  1.00  0.00    -0.167 A  
HETATM    4  F   UNL     1     -13.759  10.872  72.107  1.00  0.00    -0.407 F  
HETATM    5  F   UNL     1     -13.702   8.855  72.912  1.00  0.00    -0.451 F  
HETATM    6  C   UNL     1      -9.267   9.300  70.608  1.00  0.00    -0.321 A  
HETATM    7  C   UNL     1      -9.715   8.537  71.684  1.00  0.00    -0.322 A  
HETATM    8  F   UNL     1     -14.260   9.178  70.836  1.00  0.00    -0.336 F  
HETATM    9  C   UNL     1      -8.722   7.736  72.495  1.00  0.00    -0.145 C  
HETATM   10  C   UNL     1     -11.062   8.629  72.066  1.00  0.00    -0.437 A  
HETATM   11  C   UNL     1     -13.402   9.594  71.807  1.00  0.00    -0.419 C  
HETATM   12  C   UNL     1     -11.953   9.481  71.388  1.00  0.00    -0.464 A  
HETATM   13  F   UNL     1      -7.487   7.672  71.924  1.00  0.00    -0.073 F  
HETATM   14  F   UNL     1      -8.533   8.272  73.729  1.00  0.00    -0.267 F  
HETATM   15  C   UNL     1     -11.462  10.283  70.345  1.00  0.00    -0.415 A  
HETATM   16  F   UNL     1      -9.115   6.451  72.691  1.00  0.00    -0.136 F  
ENDBRANCH   2   3
BRANCH   2  17
HETATM   17  O   UNL     1     -10.326  11.577  67.973  1.00  0.00    -0.180 OA 
BRANCH  17  18
HETATM   18  C   UNL     1     -11.058  12.817  68.135  1.00  0.00    -0.256 C  
HETATM   19  N   UNL     1      -9.381  14.296  66.960  1.00  0.00    -0.231 NA 
HETATM   20  C   UNL     1     -10.802  13.857  66.958  1.00  0.00    -0.285 C  
HETATM   21  O   UNL     1     -10.763  13.445  69.395  1.00  0.00    -0.059 OA 
HETATM   22  C   UNL     1      -9.390  13.852  69.438  1.00  0.00     0.667 C  
HETATM   23  C   UNL     1      -9.050  14.827  68.304  1.00  0.00    -0.183 C  
BRANCH  19  24
HETATM   24  C   UNL     1      -8.930  15.197  65.885  1.00  0.00     0.097 C  
BRANCH  24  25
HETATM   25  C   UNL     1      -8.191  16.434  66.362  1.00  0.00    -0.331 C  
HETATM   26  O   UNL     1      -9.655  20.112  67.423  1.00  0.00    -0.368 OA 
HETATM   27  O   UNL     1      -7.954  19.757  69.161  1.00  0.00    -0.254 OA 
HETATM   28  N   UNL     1      -7.043  16.374  66.989  1.00  0.00    -0.205 NA 
HETATM   29  O   UNL     1      -7.353  21.177  67.088  1.00  0.00    -0.400 OA 
HETATM   30  C   UNL     1      -6.775  17.670  67.371  1.00  0.00    -0.160 C  
HETATM   31  O   UNL     1      -5.923  18.015  68.179  1.00  0.00    -0.167 OA 
HETATM   32  P   UNL     1      -8.058  19.961  67.577  1.00  0.00    -0.313 P  
HETATM   33  N   UNL     1      -7.729  18.500  66.843  1.00  0.00    -0.222 N  
HETATM   34  N   UNL     1      -8.680  17.704  66.170  1.00  0.00    -0.487 NA 
ENDBRANCH  24  25
ENDBRANCH  19  24
BRANCH  20  35
HETATM   35  C   UNL     1     -11.336  13.284  65.647  1.00  0.00    -0.325 A  
HETATM   36  C   UNL     1     -13.146  13.116  64.017  1.00  0.00     0.506 A  
HETATM   37  F   UNL     1     -13.061  11.423  62.375  1.00  0.00     0.242 F  
HETATM   38  C   UNL     1     -12.572  13.732  65.132  1.00  0.00    -0.471 A  
HETATM   39  C   UNL     1     -11.267  11.597  63.893  1.00  0.00    -0.479 A  
HETATM   40  C   UNL     1     -10.685  12.223  65.000  1.00  0.00    -0.336 A  
HETATM   41  C   UNL     1     -12.492  12.042  63.417  1.00  0.00    -0.509 A  
ENDBRANCH  20  35
ENDBRANCH  17  18
ENDBRANCH   2  17
TORSDOF 6
ENDMDL
MODEL      202
REMARK 921   NORMALIZED FREE ENERGY PREDICTED BY IDOCK:   -5.53 KCAL/MOL
REMARK 922        TOTAL FREE ENERGY PREDICTED BY IDOCK:   -8.38 KCAL/MOL
REMARK 923 INTER-LIGAND FREE ENERGY PREDICTED BY IDOCK:   -7.22 KCAL/MOL
REMARK 924 INTRA-LIGAND FREE ENERGY PREDICTED BY IDOCK:   -1.15 KCAL/MOL
REMARK 927      BINDING AFFINITY PREDICTED BY RF-SCORE:    0.00 PKD
ROOT
HETATM    1  C   UNL     1      -9.831  14.178  65.351  1.00  0.00    -0.233 C  
HETATM    2  C   UNL     1     -10.269  13.613  66.696  1.00  0.00    -0.276 C  
ENDROOT
BRANCH   2   3
HETATM    3  C   UNL     1     -10.458  14.687  67.747  1.00  0.00    -0.246 A  
HETATM    4  F   UNL     1     -13.410  14.482  70.833  1.00  0.00    -0.397 F  
HETATM    5  F   UNL     1     -12.740  16.373  71.665  1.00  0.00    -0.406 F  
HETATM    6  C   UNL     1     -10.126  16.003  67.398  1.00  0.00    -0.258 A  
HETATM    7  C   UNL     1     -10.568  17.082  68.160  1.00  0.00    -0.369 A  
HETATM    8  F   UNL     1     -11.558  14.574  71.971  1.00  0.00    -0.348 F  
HETATM    9  C   UNL     1     -10.404  18.487  67.628  1.00  0.00    -0.410 C  
HETATM   10  C   UNL     1     -11.268  16.831  69.350  1.00  0.00     0.034 A  
HETATM   11  C   UNL     1     -12.301  15.240  71.046  1.00  0.00    -0.367 C  
HETATM   12  C   UNL     1     -11.534  15.515  69.772  1.00  0.00    -0.339 A  
HETATM   13  F   UNL     1      -9.612  18.556  66.522  1.00  0.00    -0.285 F  
HETATM   14  F   UNL     1     -11.596  19.029  67.265  1.00  0.00    -0.139 F  
HETATM   15  C   UNL     1     -11.130  14.446  68.956  1.00  0.00    -0.282 A  
HETATM   16  F   UNL     1      -9.858  19.336  68.537  1.00  0.00    -0.371 F  
ENDBRANCH   2   3
BRANCH   2  17
HETATM   17  O   UNL     1      -9.341  12.615  67.153  1.00  0.00    -0.197 OA 
BRANCH  17  18
HETATM   18  C   UNL     1      -7.959  12.917  66.840  1.00  0.00     0.079 C  
HETATM   19  N   UNL     1      -6.934  11.164  68.341  1.00  0.00    -0.069 NA 
HETATM   20  C   UNL     1      -7.000  11.651  66.938  1.00  0.00    -0.123 C  
HETATM   21  O   UNL     1      -7.444  13.968  67.676  1.00  0.00    -0.146 OA 
HETATM   22  C   UNL     1      -7.397  13.537  69.042  1.00  0.00     0.004 C  
HETATM   23  C   UNL     1      -6.523  12.289  69.215  1.00  0.00    -0.109 C  
BRANCH  19  24
HETATM   24  C   UNL     1      -6.161   9.941  68.617  1.00  0.00    -0.041 C  
BRANCH  24  25
HETATM   25  C   UNL     1      -6.987   8.668  68.675  1.00  0.00    -0.064 C  
HETATM   26  O   UNL     1      -5.768   4.755  68.689  1.00  0.00    -0.015 OA 
HETATM   27  O   UNL     1      -7.561   4.701  70.370  1.00  0.00    -0.052 OA 
HETATM   28  N   UNL     1      -8.170   8.617  69.235  1.00  0.00    -0.112 NA 
HETATM   29  O   UNL     1      -8.090   3.980  67.946  1.00  0.00    -0.088 OA 
HETATM   30  C   UNL     1      -8.522   7.286  69.209  1.00  0.00    -0.133 C  
HETATM   31  O   UNL     1      -9.440   6.778  69.839  1.00  0.00    -0.156 OA 
HETATM   32  P   UNL     1      -7.363   4.957  68.802  1.00  0.00    -0.062 P  
HETATM   33  N   UNL     1      -7.575   6.585  68.510  1.00  0.00    -0.095 N  
HETATM   34  N   UNL     1      -6.545   7.479  68.145  1.00  0.00    -0.049 NA 
ENDBRANCH  24  25
ENDBRANCH  19  24
BRANCH  20  35
HETATM   35  C   UNL     1      -7.402  10.625  65.879  1.00  0.00    -0.128 A  
HETATM   36  C   UNL     1      -6.850   9.377  63.855  1.00  0.00    -0.096 A  
HETATM   37  F   UNL     1      -8.564   8.236  62.703  1.00  0.00    -0.180 F  
HETATM   38  C   UNL     1      -6.462  10.198  64.917  1.00  0.00    -0.129 A  
HETATM   39  C   UNL     1      -9.120   9.378  64.689  1.00  0.00    -0.228 A  
HETATM   40  C   UNL     1      -8.730  10.187  65.760  1.00  0.00    -0.166 A  
HETATM   41  C   UNL     1      -8.182   8.987  63.744  1.00  0.00    -0.173 A  
ENDBRANCH  20  35
ENDBRANCH  17  18
ENDBRANCH   2  17
TORSDOF 6
ENDMDL
MODEL      203
REMARK 921   NORMALIZED FREE ENERGY PREDICTED BY IDOCK:   -5.43 KCAL/MOL
REMARK 922        TOTAL FREE ENERGY PREDICTED BY IDOCK:   -8.24 KCAL/MOL
REMARK 923 INTER-LIGAND FREE ENERGY PREDICTED BY IDOCK:   -6.79 KCAL/MOL
REMARK 924 INTRA-LIGAND FREE ENERGY PREDICTED BY IDOCK:   -1.45 KCAL/MOL
REMARK 927      BINDING AFFINITY PREDICTED BY RF-SCORE:    0.00 PKD
ROOT
HETATM    1  C   UNL     1      -8.656   8.407  72.665  1.00  0.00    -0.241 C  
HETATM    2  C   UNL     1      -8.494   8.568  71.159  1.00  0.00    -0.156 C  
ENDROOT
BRANCH   2   3
HETATM    3  C   UNL     1      -9.735   9.129  70.496  1.00  0.00    -0.287 A  
HETATM    4  F   UNL     1      -9.649  12.265  67.590  1.00  0.00    -0.177 F  
HETATM    5  F   UNL     1     -11.807  12.174  67.359  1.00  0.00    -0.390 F  
HETATM    6  C   UNL     1     -10.932   9.093  71.222  1.00  0.00    -0.400 A  
HETATM    7  C   UNL     1     -12.027   9.867  70.842  1.00  0.00    -0.434 A  
HETATM    8  F   UNL     1     -10.556  10.629  66.478  1.00  0.00    -0.280 F  
HETATM    9  C   UNL     1     -13.210   9.993  71.775  1.00  0.00    -0.437 C  
HETATM   10  C   UNL     1     -11.953  10.612  69.655  1.00  0.00    -0.340 A  
HETATM   11  C   UNL     1     -10.704  11.406  67.586  1.00  0.00    -0.216 C  
HETATM   12  C   UNL     1     -10.793  10.593  68.858  1.00  0.00    -0.272 A  
HETATM   13  F   UNL     1     -13.165   9.125  72.824  1.00  0.00    -0.485 F  
HETATM   14  F   UNL     1     -13.285  11.234  72.324  1.00  0.00    -0.590 F  
HETATM   15  C   UNL     1      -9.683   9.851  69.293  1.00  0.00    -0.218 A  
HETATM   16  F   UNL     1     -14.398   9.776  71.154  1.00  0.00    -0.094 F  
ENDBRANCH   2   3
BRANCH   2  17
HETATM   17  O   UNL     1      -8.118   7.320  70.554  1.00  0.00    -0.106 OA 
BRANCH  17  18
HETATM   18  C   UNL     1      -6.757   6.917  70.845  1.00  0.00    -0.054 C  
HETATM   19  N   UNL     1      -5.990   6.740  68.446  1.00  0.00    -0.024 NA 
HETATM   20  C   UNL     1      -5.709   7.400  69.749  1.00  0.00    -0.023 C  
HETATM   21  O   UNL     1      -6.650   5.493  71.009  1.00  0.00    -0.040 OA 
HETATM   22  C   UNL     1      -6.944   4.828  69.775  1.00  0.00    -0.053 C  
HETATM   23  C   UNL     1      -6.002   5.272  68.650  1.00  0.00    -0.021 C  
BRANCH  19  24
HETATM   24  C   UNL     1      -5.175   7.128  67.281  1.00  0.00    -0.013 C  
BRANCH  24  25
HETATM   25  C   UNL     1      -5.973   7.515  66.050  1.00  0.00    -0.038 C  
HETATM   26  O   UNL     1      -8.106  10.929  65.279  1.00  0.00    -0.077 OA 
HETATM   27  O   UNL     1      -7.008  10.555  63.112  1.00  0.00    -0.101 OA 
HETATM   28  N   UNL     1      -5.697   7.056  64.854  1.00  0.00    -0.032 NA 
HETATM   29  O   UNL     1      -9.437   9.739  63.445  1.00  0.00    -0.211 OA 
HETATM   30  C   UNL     1      -6.540   7.737  64.005  1.00  0.00    -0.057 C  
HETATM   31  O   UNL     1      -6.444   7.780  62.786  1.00  0.00    -0.073 OA 
HETATM   32  P   UNL     1      -8.091   9.865  64.068  1.00  0.00    -0.169 P  
HETATM   33  N   UNL     1      -7.397   8.508  64.746  1.00  0.00    -0.088 N  
HETATM   34  N   UNL     1      -7.041   8.379  66.105  1.00  0.00    -0.075 NA 
ENDBRANCH  24  25
ENDBRANCH  19  24
BRANCH  20  35
HETATM   35  C   UNL     1      -5.647   8.926  69.740  1.00  0.00    -0.029 A  
HETATM   36  C   UNL     1      -5.241  11.014  70.939  1.00  0.00    -0.113 A  
HETATM   37  F   UNL     1      -5.916  13.052  69.962  1.00  0.00    -0.110 F  
HETATM   38  C   UNL     1      -5.167   9.619  70.872  1.00  0.00    -0.045 A  
HETATM   39  C   UNL     1      -6.266  11.062  68.749  1.00  0.00    -0.044 A  
HETATM   40  C   UNL     1      -6.178   9.668  68.674  1.00  0.00    -0.043 A  
HETATM   41  C   UNL     1      -5.806  11.720  69.880  1.00  0.00    -0.135 A  
ENDBRANCH  20  35
ENDBRANCH  17  18
ENDBRANCH   2  17
TORSDOF 6
ENDMDL
MODEL      204
REMARK 921   NORMALIZED FREE ENERGY PREDICTED BY IDOCK:   -5.40 KCAL/MOL
REMARK 922        TOTAL FREE ENERGY PREDICTED BY IDOCK:   -8.20 KCAL/MOL
REMARK 923 INTER-LIGAND FREE ENERGY PREDICTED BY IDOCK:   -6.56 KCAL/MOL
REMARK 924 INTRA-LIGAND FREE ENERGY PREDICTED BY IDOCK:   -1.64 KCAL/MOL
REMARK 927      BINDING AFFINITY PREDICTED BY RF-SCORE:    0.00 PKD
ROOT
HETATM    1  C   UNL     1      -8.065  10.368  69.699  1.00  0.00    -0.116 C  
HETATM    2  C   UNL     1      -7.444  11.031  68.476  1.00  0.00    -0.106 C  
ENDROOT
BRANCH   2   3
HETATM    3  C   UNL     1      -7.888  12.469  68.304  1.00  0.00    -0.144 A  
HETATM    4  F   UNL     1      -9.869  13.928  64.806  1.00  0.00    -0.345 F  
HETATM    5  F   UNL     1     -10.031  15.915  65.669  1.00  0.00    -0.307 F  
HETATM    6  C   UNL     1      -7.151  13.460  68.965  1.00  0.00    -0.053 A  
HETATM    7  C   UNL     1      -7.271  14.802  68.610  1.00  0.00    -0.119 A  
HETATM    8  F   UNL     1     -11.335  14.320  66.366  1.00  0.00    -0.312 F  
HETATM    9  C   UNL     1      -6.292  15.810  69.167  1.00  0.00    -0.134 C  
HETATM   10  C   UNL     1      -8.222  15.167  67.645  1.00  0.00    -0.178 A  
HETATM   11  C   UNL     1     -10.058  14.588  65.981  1.00  0.00    -0.318 C  
HETATM   12  C   UNL     1      -9.042  14.200  67.032  1.00  0.00    -0.255 A  
HETATM   13  F   UNL     1      -5.511  15.310  70.165  1.00  0.00    -0.108 F  
HETATM   14  F   UNL     1      -5.434  16.256  68.213  1.00  0.00    -0.095 F  
HETATM   15  C   UNL     1      -8.860  12.848  67.364  1.00  0.00    -0.199 A  
HETATM   16  F   UNL     1      -6.901  16.910  69.679  1.00  0.00    -0.239 F  
ENDBRANCH   2   3
BRANCH   2  17
HETATM   17  O   UNL     1      -7.726  10.270  67.289  1.00  0.00    -0.095 OA 
BRANCH  17  18
HETATM   18  C   UNL     1      -6.771  10.481  66.221  1.00  0.00    -0.123 C  
HETATM   19  N   UNL     1      -7.093   8.240  65.101  1.00  0.00    -0.073 NA 
HETATM   20  C   UNL     1      -7.146   9.710  64.880  1.00  0.00    -0.114 C  
HETATM   21  O   UNL     1      -5.439  10.115  66.621  1.00  0.00    -0.043 OA 
HETATM   22  C   UNL     1      -5.365   8.707  66.871  1.00  0.00    -0.036 C  
HETATM   23  C   UNL     1      -5.755   7.888  65.634  1.00  0.00    -0.037 C  
BRANCH  19  24
HETATM   24  C   UNL     1      -7.496   7.356  63.994  1.00  0.00    -0.100 C  
BRANCH  24  25
HETATM   25  C   UNL     1      -8.234   6.101  64.420  1.00  0.00    -0.063 C  
HETATM   26  O   UNL     1      -7.475   2.179  63.504  1.00  0.00    -0.051 OA 
HETATM   27  O   UNL     1      -8.039   2.009  65.890  1.00  0.00    -0.080 OA 
HETATM   28  N   UNL     1      -8.911   6.023  65.538  1.00  0.00    -0.119 NA 
HETATM   29  O   UNL     1      -9.866   1.521  64.130  1.00  0.00    -0.133 OA 
HETATM   30  C   UNL     1      -9.306   4.707  65.628  1.00  0.00    -0.160 C  
HETATM   31  O   UNL     1      -9.755   4.162  66.628  1.00  0.00    -0.199 OA 
HETATM   32  P   UNL     1      -8.724   2.401  64.497  1.00  0.00    -0.112 P  
HETATM   33  N   UNL     1      -8.953   4.053  64.477  1.00  0.00    -0.130 N  
HETATM   34  N   UNL     1      -8.240   4.955  63.659  1.00  0.00    -0.112 NA 
ENDBRANCH  24  25
ENDBRANCH  19  24
BRANCH  20  35
HETATM   35  C   UNL     1      -8.453  10.268  64.320  1.00  0.00    -0.181 A  
HETATM   36  C   UNL     1      -9.619  11.546  62.597  1.00  0.00    -0.074 A  
HETATM   37  F   UNL     1     -11.846  12.226  62.978  1.00  0.00    -0.446 F  
HETATM   38  C   UNL     1      -8.468  10.901  63.059  1.00  0.00    -0.093 A  
HETATM   39  C   UNL     1     -10.772  10.939  64.635  1.00  0.00    -0.254 A  
HETATM   40  C   UNL     1      -9.627  10.279  65.090  1.00  0.00    -0.337 A  
HETATM   41  C   UNL     1     -10.757  11.571  63.400  1.00  0.00    -0.373 A  
ENDBRANCH  20  35
ENDBRANCH  17  18
ENDBRANCH   2  17
TORSDOF 6
ENDMDL
MODEL      205
REMARK 921   NORMALIZED FREE ENERGY PREDICTED BY IDOCK:   -5.40 KCAL/MOL
REMARK 922        TOTAL FREE ENERGY PREDICTED BY IDOCK:   -8.19 KCAL/MOL
REMARK 923 INTER-LIGAND FREE ENERGY PREDICTED BY IDOCK:   -8.96 KCAL/MOL
REMARK 924 INTRA-LIGAND FREE ENERGY PREDICTED BY IDOCK:    0.77 KCAL/MOL
REMARK 927      BINDING AFFINITY PREDICTED BY RF-SCORE:    0.00 PKD
ROOT
HETATM    1  C   UNL     1      -8.009  10.863  68.632  1.00  0.00    -0.140 C  
HETATM    2  C   UNL     1      -9.442  11.130  69.074  1.00  0.00    -0.058 C  
ENDROOT
BRANCH   2   3
HETATM    3  C   UNL     1     -10.046   9.966  69.831  1.00  0.00    -0.297 A  
HETATM    4  F   UNL     1     -10.032   5.943  68.382  1.00  0.00    -0.131 F  
HETATM    5  F   UNL     1     -11.032   5.242  70.178  1.00  0.00    -0.348 F  
HETATM    6  C   UNL     1     -11.127  10.234  70.681  1.00  0.00    -0.358 A  
HETATM    7  C   UNL     1     -11.944   9.208  71.150  1.00  0.00    -0.374 A  
HETATM    8  F   UNL     1      -8.923   5.766  70.246  1.00  0.00    -0.132 F  
HETATM    9  C   UNL     1     -13.236   9.549  71.859  1.00  0.00    -0.439 C  
HETATM   10  C   UNL     1     -11.610   7.880  70.844  1.00  0.00    -0.286 A  
HETATM   11  C   UNL     1     -10.121   6.148  69.724  1.00  0.00    -0.181 C  
HETATM   12  C   UNL     1     -10.476   7.577  70.068  1.00  0.00    -0.231 A  
HETATM   13  F   UNL     1     -13.349  10.871  72.166  1.00  0.00    -0.555 F  
HETATM   14  F   UNL     1     -14.320   9.251  71.096  1.00  0.00    -0.341 F  
HETATM   15  C   UNL     1      -9.702   8.632  69.558  1.00  0.00    -0.179 A  
HETATM   16  F   UNL     1     -13.391   8.874  73.027  1.00  0.00    -0.445 F  
ENDBRANCH   2   3
BRANCH   2  17
HETATM   17  O   UNL     1     -10.263  11.480  67.947  1.00  0.00    -0.177 OA 
BRANCH  17  18
HETATM   18  C   UNL     1     -11.065  12.668  68.156  1.00  0.00    -0.249 C  
HETATM   19  N   UNL     1      -9.473  14.287  67.050  1.00  0.00    -0.244 NA 
HETATM   20  C   UNL     1     -10.866  13.768  67.023  1.00  0.00    -0.284 C  
HETATM   21  O   UNL     1     -10.810  13.260  69.441  1.00  0.00    -0.098 OA 
HETATM   22  C   UNL     1      -9.462  13.743  69.507  1.00  0.00     0.940 C  
HETATM   23  C   UNL     1      -9.176  14.781  68.416  1.00  0.00    -0.189 C  
BRANCH  19  24
HETATM   24  C   UNL     1      -9.072  15.255  66.014  1.00  0.00    -0.209 C  
BRANCH  24  25
HETATM   25  C   UNL     1      -8.770  16.649  66.532  1.00  0.00    -0.282 C  
HETATM   26  O   UNL     1      -5.180  18.343  67.551  1.00  0.00    -0.143 OA 
HETATM   27  O   UNL     1      -6.262  20.202  66.360  1.00  0.00    -0.173 OA 
HETATM   28  N   UNL     1      -9.525  17.684  66.260  1.00  0.00    -0.424 NA 
HETATM   29  O   UNL     1      -6.366  20.134  68.941  1.00  0.00    -0.297 OA 
HETATM   30  C   UNL     1      -8.853  18.766  66.783  1.00  0.00    -0.305 C  
HETATM   31  O   UNL     1      -9.094  19.942  66.543  1.00  0.00    -0.350 OA 
HETATM   32  P   UNL     1      -6.446  19.331  67.691  1.00  0.00    -0.214 P  
HETATM   33  N   UNL     1      -7.757  18.322  67.475  1.00  0.00    -0.221 N  
HETATM   34  N   UNL     1      -7.679  16.921  67.323  1.00  0.00    -0.161 NA 
ENDBRANCH  24  25
ENDBRANCH  19  24
BRANCH  20  35
HETATM   35  C   UNL     1     -11.363  13.220  65.687  1.00  0.00    -0.325 A  
HETATM   36  C   UNL     1     -13.028  13.243  63.900  1.00  0.00     0.375 A  
HETATM   37  F   UNL     1     -13.055  11.481  62.331  1.00  0.00     0.158 F  
HETATM   38  C   UNL     1     -12.467  13.820  65.044  1.00  0.00    -0.449 A  
HETATM   39  C   UNL     1     -11.396  11.461  64.004  1.00  0.00    -0.291 A  
HETATM   40  C   UNL     1     -10.825  12.045  65.139  1.00  0.00    -0.347 A  
HETATM   41  C   UNL     1     -12.493  12.058  63.401  1.00  0.00    -0.509 A  
ENDBRANCH  20  35
ENDBRANCH  17  18
ENDBRANCH   2  17
TORSDOF 6
ENDMDL
MODEL      206
REMARK 921   NORMALIZED FREE ENERGY PREDICTED BY IDOCK:   -5.39 KCAL/MOL
REMARK 922        TOTAL FREE ENERGY PREDICTED BY IDOCK:   -8.18 KCAL/MOL
REMARK 923 INTER-LIGAND FREE ENERGY PREDICTED BY IDOCK:   -6.61 KCAL/MOL
REMARK 924 INTRA-LIGAND FREE ENERGY PREDICTED BY IDOCK:   -1.57 KCAL/MOL
REMARK 927      BINDING AFFINITY PREDICTED BY RF-SCORE:    0.00 PKD
ROOT
HETATM    1  C   UNL     1     -10.641   5.860  65.963  1.00  0.00     0.219 C  
HETATM    2  C   UNL     1     -10.537   6.379  67.391  1.00  0.00    -0.295 C  
ENDROOT
BRANCH   2   3
HETATM    3  C   UNL     1     -10.419   7.888  67.457  1.00  0.00    -0.332 A  
HETATM    4  F   UNL     1     -12.807  10.337  70.023  1.00  0.00    -0.283 F  
HETATM    5  F   UNL     1     -11.791  12.130  69.336  1.00  0.00    -0.306 F  
HETATM    6  C   UNL     1     -10.002   8.558  66.299  1.00  0.00    -0.251 A  
HETATM    7  C   UNL     1     -10.180   9.933  66.160  1.00  0.00    -0.277 A  
HETATM    8  F   UNL     1     -10.789  10.776  70.711  1.00  0.00    -0.214 F  
HETATM    9  C   UNL     1      -9.948  10.582  64.815  1.00  0.00    -0.345 C  
HETATM   10  C   UNL     1     -10.692  10.663  67.243  1.00  0.00    -0.338 A  
HETATM   11  C   UNL     1     -11.598  10.810  69.616  1.00  0.00    -0.316 C  
HETATM   12  C   UNL     1     -11.032  10.028  68.452  1.00  0.00    -0.266 A  
HETATM   13  F   UNL     1      -9.353   9.754  63.912  1.00  0.00    -0.286 F  
HETATM   14  F   UNL     1     -11.114  10.980  64.242  1.00  0.00    -0.413 F  
HETATM   15  C   UNL     1     -10.898   8.633  68.546  1.00  0.00     0.003 A  
HETATM   16  F   UNL     1      -9.161  11.686  64.891  1.00  0.00    -0.145 F  
ENDBRANCH   2   3
BRANCH   2  17
HETATM   17  O   UNL     1      -9.440   5.756  68.079  1.00  0.00    -0.108 OA 
BRANCH  17  18
HETATM   18  C   UNL     1      -9.720   4.405  68.521  1.00  0.00    -0.113 C  
HETATM   19  N   UNL     1      -7.574   4.074  69.810  1.00  0.00    -0.052 NA 
HETATM   20  C   UNL     1      -9.056   4.052  69.924  1.00  0.00    -0.117 C  
HETATM   21  O   UNL     1      -9.310   3.433  67.544  1.00  0.00    -0.183 OA 
HETATM   22  C   UNL     1      -7.886   3.452  67.392  1.00  0.00    -0.078 C  
HETATM   23  C   UNL     1      -7.167   3.162  68.714  1.00  0.00    -0.049 C  
BRANCH  19  24
HETATM   24  C   UNL     1      -6.780   3.856  71.032  1.00  0.00    -0.031 C  
BRANCH  24  25
HETATM   25  C   UNL     1      -6.280   5.124  71.699  1.00  0.00    -0.030 C  
HETATM   26  O   UNL     1      -7.718   8.955  71.449  1.00  0.00    -0.172 OA 
HETATM   27  O   UNL     1      -7.210   8.792  73.849  1.00  0.00    -0.379 OA 
HETATM   28  N   UNL     1      -5.636   5.118  72.839  1.00  0.00    -0.017 NA 
HETATM   29  O   UNL     1      -5.486   9.896  72.273  1.00  0.00    -0.244 OA 
HETATM   30  C   UNL     1      -5.481   6.445  73.171  1.00  0.00    -0.037 C  
HETATM   31  O   UNL     1      -5.145   6.873  74.268  1.00  0.00    -0.041 OA 
HETATM   32  P   UNL     1      -6.455   8.779  72.437  1.00  0.00     0.105 P  
HETATM   33  N   UNL     1      -5.937   7.223  72.139  1.00  0.00    -0.037 N  
HETATM   34  N   UNL     1      -6.472   6.371  71.150  1.00  0.00    -0.048 NA 
ENDBRANCH  24  25
ENDBRANCH  19  24
BRANCH  20  35
HETATM   35  C   UNL     1      -9.669   4.930  71.013  1.00  0.00    -0.252 A  
HETATM   36  C   UNL     1     -10.915   5.111  73.105  1.00  0.00    -0.368 A  
HETATM   37  F   UNL     1     -11.775   7.210  73.754  1.00  0.00     0.377 F  
HETATM   38  C   UNL     1     -10.220   4.338  72.170  1.00  0.00    -0.234 A  
HETATM   39  C   UNL     1     -10.523   7.084  71.762  1.00  0.00    -0.223 A  
HETATM   40  C   UNL     1      -9.814   6.315  70.834  1.00  0.00    -0.207 A  
HETATM   41  C   UNL     1     -11.073   6.476  72.881  1.00  0.00    -0.223 A  
ENDBRANCH  20  35
ENDBRANCH  17  18
ENDBRANCH   2  17
TORSDOF 6
ENDMDL
MODEL      207
REMARK 921   NORMALIZED FREE ENERGY PREDICTED BY IDOCK:   -5.38 KCAL/MOL
REMARK 922        TOTAL FREE ENERGY PREDICTED BY IDOCK:   -8.17 KCAL/MOL
REMARK 923 INTER-LIGAND FREE ENERGY PREDICTED BY IDOCK:   -7.33 KCAL/MOL
REMARK 924 INTRA-LIGAND FREE ENERGY PREDICTED BY IDOCK:   -0.84 KCAL/MOL
REMARK 927      BINDING AFFINITY PREDICTED BY RF-SCORE:    0.00 PKD
ROOT
HETATM    1  C   UNL     1      -6.965   7.355  64.803  1.00  0.00    -0.051 C  
HETATM    2  C   UNL     1      -7.393   6.993  66.219  1.00  0.00    -0.076 C  
ENDROOT
BRANCH   2   3
HETATM    3  C   UNL     1      -7.811   5.542  66.349  1.00  0.00    -0.100 A  
HETATM    4  F   UNL     1     -10.404   3.575  63.575  1.00  0.00    -0.152 F  
HETATM    5  F   UNL     1     -10.241   1.708  64.674  1.00  0.00     0.041 F  
HETATM    6  C   UNL     1      -7.881   4.999  67.638  1.00  0.00    -0.095 A  
HETATM    7  C   UNL     1      -8.561   3.807  67.880  1.00  0.00    -0.113 A  
HETATM    8  F   UNL     1      -8.587   2.385  63.435  1.00  0.00    -0.082 F  
HETATM    9  C   UNL     1      -8.827   3.377  69.305  1.00  0.00    -0.102 C  
HETATM   10  C   UNL     1      -9.093   3.097  66.794  1.00  0.00    -0.184 A  
HETATM   11  C   UNL     1      -9.540   2.817  64.304  1.00  0.00    -0.152 C  
HETATM   12  C   UNL     1      -8.955   3.574  65.477  1.00  0.00    -0.141 A  
HETATM   13  F   UNL     1      -8.152   4.119  70.227  1.00  0.00    -0.056 F  
HETATM   14  F   UNL     1     -10.142   3.493  69.626  1.00  0.00    -0.161 F  
HETATM   15  C   UNL     1      -8.318   4.807  65.265  1.00  0.00    -0.127 A  
HETATM   16  F   UNL     1      -8.488   2.084  69.538  1.00  0.00    -0.062 F  
ENDBRANCH   2   3
BRANCH   2  17
HETATM   17  O   UNL     1      -8.444   7.864  66.670  1.00  0.00    -0.123 OA 
BRANCH  17  18
HETATM   18  C   UNL     1      -7.991   8.908  67.566  1.00  0.00    -0.101 C  
HETATM   19  N   UNL     1     -10.117  10.271  67.515  1.00  0.00    -0.189 NA 
HETATM   20  C   UNL     1      -9.168   9.562  68.415  1.00  0.00    -0.130 C  
HETATM   21  O   UNL     1      -7.284   9.942  66.861  1.00  0.00    -0.089 OA 
HETATM   22  C   UNL     1      -8.167  10.624  65.963  1.00  0.00    -0.158 C  
HETATM   23  C   UNL     1      -9.357  11.249  66.700  1.00  0.00    -0.180 C  
BRANCH  19  24
HETATM   24  C   UNL     1     -11.324  10.869  68.111  1.00  0.00    -0.315 C  
BRANCH  24  25
HETATM   25  C   UNL     1     -11.121  12.251  68.705  1.00  0.00    -0.249 C  
HETATM   26  O   UNL     1      -9.503  15.615  67.012  1.00  0.00    -0.216 OA 
HETATM   27  O   UNL     1     -11.416  16.566  68.227  1.00  0.00    -0.283 OA 
HETATM   28  N   UNL     1     -11.877  12.729  69.661  1.00  0.00    -0.325 NA 
HETATM   29  O   UNL     1      -9.076  16.629  69.322  1.00  0.00    -0.198 OA 
HETATM   30  C   UNL     1     -11.471  14.035  69.822  1.00  0.00    -0.230 C  
HETATM   31  O   UNL     1     -12.073  14.899  70.444  1.00  0.00    -0.288 OA 
HETATM   32  P   UNL     1     -10.032  15.817  68.521  1.00  0.00    -0.221 P  
HETATM   33  N   UNL     1     -10.379  14.266  69.027  1.00  0.00    -0.212 N  
HETATM   34  N   UNL     1     -10.126  13.098  68.275  1.00  0.00    -0.243 NA 
ENDBRANCH  24  25
ENDBRANCH  19  24
BRANCH  20  35
HETATM   35  C   UNL     1      -9.769   8.512  69.347  1.00  0.00    -0.177 A  
HETATM   36  C   UNL     1     -11.048   6.452  69.636  1.00  0.00    -0.465 A  
HETATM   37  F   UNL     1     -11.840   5.881  71.784  1.00  0.00    -0.331 F  
HETATM   38  C   UNL     1     -10.364   7.350  68.810  1.00  0.00    -0.209 A  
HETATM   39  C   UNL     1     -10.554   7.843  71.552  1.00  0.00    -0.262 A  
HETATM   40  C   UNL     1      -9.857   8.733  70.730  1.00  0.00    -0.255 A  
HETATM   41  C   UNL     1     -11.149   6.718  70.999  1.00  0.00    -0.273 A  
ENDBRANCH  20  35
ENDBRANCH  17  18
ENDBRANCH   2  17
TORSDOF 6
ENDMDL
MODEL      208
REMARK 921   NORMALIZED FREE ENERGY PREDICTED BY IDOCK:   -5.30 KCAL/MOL
REMARK 922        TOTAL FREE ENERGY PREDICTED BY IDOCK:   -8.06 KCAL/MOL
REMARK 923 INTER-LIGAND FREE ENERGY PREDICTED BY IDOCK:   -7.64 KCAL/MOL
REMARK 924 INTRA-LIGAND FREE ENERGY PREDICTED BY IDOCK:   -0.43 KCAL/MOL
REMARK 927      BINDING AFFINITY PREDICTED BY RF-SCORE:    0.00 PKD
ROOT
HETATM    1  C   UNL     1     -11.320  11.262  68.949  1.00  0.00    -0.340 C  
HETATM    2  C   UNL     1      -9.995  11.269  68.198  1.00  0.00    -0.181 C  
ENDROOT
BRANCH   2   3
HETATM    3  C   UNL     1      -9.974  12.268  67.060  1.00  0.00    -0.220 A  
HETATM    4  F   UNL     1      -9.643  16.493  67.632  1.00  0.00    -0.226 F  
HETATM    5  F   UNL     1      -9.666  16.833  65.486  1.00  0.00    -0.237 F  
HETATM    6  C   UNL     1     -10.658  11.930  65.886  1.00  0.00    -0.306 A  
HETATM    7  C   UNL     1     -10.972  12.897  64.933  1.00  0.00    -0.327 A  
HETATM    8  F   UNL     1      -7.877  16.048  66.441  1.00  0.00    -0.285 F  
HETATM    9  C   UNL     1     -11.917  12.552  63.803  1.00  0.00    -0.517 C  
HETATM   10  C   UNL     1     -10.502  14.206  65.114  1.00  0.00    -0.422 A  
HETATM   11  C   UNL     1      -9.235  15.966  66.446  1.00  0.00    -0.309 C  
HETATM   12  C   UNL     1      -9.732  14.552  66.240  1.00  0.00    -0.330 A  
HETATM   13  F   UNL     1     -12.189  11.220  63.717  1.00  0.00    -0.294 F  
HETATM   14  F   UNL     1     -13.119  13.168  63.949  1.00  0.00    -0.072 F  
HETATM   15  C   UNL     1      -9.479  13.573  67.215  1.00  0.00    -0.230 A  
HETATM   16  F   UNL     1     -11.442  12.921  62.586  1.00  0.00    -0.066 F  
ENDBRANCH   2   3
BRANCH   2  17
HETATM   17  O   UNL     1      -9.677   9.951  67.719  1.00  0.00    -0.146 OA 
BRANCH  17  18
HETATM   18  C   UNL     1      -8.282   9.778  67.372  1.00  0.00    -0.114 C  
HETATM   19  N   UNL     1      -7.722   8.166  69.234  1.00  0.00    -0.102 NA 
HETATM   20  C   UNL     1      -7.711   8.342  67.757  1.00  0.00    -0.103 C  
HETATM   21  O   UNL     1      -7.457  10.792  67.971  1.00  0.00    -0.087 OA 
HETATM   22  C   UNL     1      -7.471  10.665  69.398  1.00  0.00    -0.135 C  
HETATM   23  C   UNL     1      -6.974   9.287  69.851  1.00  0.00    -0.061 C  
BRANCH  19  24
HETATM   24  C   UNL     1      -7.309   6.861  69.780  1.00  0.00    -0.085 C  
BRANCH  24  25
HETATM   25  C   UNL     1      -8.126   6.384  70.967  1.00  0.00    -0.121 C  
HETATM   26  O   UNL     1      -9.609   2.653  71.793  1.00  0.00    -0.124 OA 
HETATM   27  O   UNL     1      -8.811   3.350  74.011  1.00  0.00    -0.087 OA 
HETATM   28  N   UNL     1      -8.059   6.949  72.146  1.00  0.00    -0.098 NA 
HETATM   29  O   UNL     1     -11.311   3.640  73.428  1.00  0.00    -0.211 OA 
HETATM   30  C   UNL     1      -8.826   6.155  72.969  1.00  0.00    -0.124 C  
HETATM   31  O   UNL     1      -8.837   6.195  74.192  1.00  0.00    -0.122 OA 
HETATM   32  P   UNL     1      -9.915   3.758  72.926  1.00  0.00    -0.160 P  
HETATM   33  N   UNL     1      -9.442   5.191  72.216  1.00  0.00    -0.138 N  
HETATM   34  N   UNL     1      -8.994   5.320  70.884  1.00  0.00    -0.135 NA 
ENDBRANCH  24  25
ENDBRANCH  19  24
BRANCH  20  35
HETATM   35  C   UNL     1      -8.430   7.272  66.938  1.00  0.00    -0.119 A  
HETATM   36  C   UNL     1     -10.287   5.704  66.708  1.00  0.00    -0.316 A  
HETATM   37  F   UNL     1     -10.186   4.038  65.040  1.00  0.00    -0.188 F  
HETATM   38  C   UNL     1      -9.685   6.784  67.360  1.00  0.00    -0.164 A  
HETATM   39  C   UNL     1      -8.406   5.575  65.193  1.00  0.00    -0.146 A  
HETATM   40  C   UNL     1      -7.810   6.665  65.834  1.00  0.00    -0.102 A  
HETATM   41  C   UNL     1      -9.631   5.100  65.638  1.00  0.00    -0.087 A  
ENDBRANCH  20  35
ENDBRANCH  17  18
ENDBRANCH   2  17
TORSDOF 6
ENDMDL
MODEL      209
REMARK 921   NORMALIZED FREE ENERGY PREDICTED BY IDOCK:   -5.29 KCAL/MOL
REMARK 922        TOTAL FREE ENERGY PREDICTED BY IDOCK:   -8.05 KCAL/MOL
REMARK 923 INTER-LIGAND FREE ENERGY PREDICTED BY IDOCK:   -6.90 KCAL/MOL
REMARK 924 INTRA-LIGAND FREE ENERGY PREDICTED BY IDOCK:   -1.15 KCAL/MOL
REMARK 927      BINDING AFFINITY PREDICTED BY RF-SCORE:    0.00 PKD
ROOT
HETATM    1  C   UNL     1      -8.549   9.525  64.651  1.00  0.00    -0.207 C  
HETATM    2  C   UNL     1      -9.618   8.956  65.575  1.00  0.00    -0.018 C  
ENDROOT
BRANCH   2   3
HETATM    3  C   UNL     1     -10.445  10.034  66.244  1.00  0.00    -0.172 A  
HETATM    4  F   UNL     1      -9.866  14.217  65.571  1.00  0.00    -0.320 F  
HETATM    5  F   UNL     1     -11.509  14.707  66.904  1.00  0.00    -0.324 F  
HETATM    6  C   UNL     1     -10.973   9.755  67.512  1.00  0.00    -0.205 A  
HETATM    7  C   UNL     1     -11.451  10.775  68.332  1.00  0.00    -0.358 A  
HETATM    8  F   UNL     1     -11.921  13.923  64.918  1.00  0.00    -0.336 F  
HETATM    9  C   UNL     1     -11.784  10.475  69.776  1.00  0.00    -0.281 C  
HETATM   10  C   UNL     1     -11.495  12.084  67.830  1.00  0.00    -0.396 A  
HETATM   11  C   UNL     1     -11.089  13.790  65.987  1.00  0.00    -0.291 C  
HETATM   12  C   UNL     1     -11.057  12.377  66.525  1.00  0.00    -0.346 A  
HETATM   13  F   UNL     1     -11.790   9.144  70.063  1.00  0.00    -0.132 F  
HETATM   14  F   UNL     1     -10.882  11.034  70.624  1.00  0.00    -0.110 F  
HETATM   15  C   UNL     1     -10.524  11.342  65.741  1.00  0.00    -0.310 A  
HETATM   16  F   UNL     1     -13.002  10.948  70.145  1.00  0.00    -0.320 F  
ENDBRANCH   2   3
BRANCH   2  17
HETATM   17  O   UNL     1      -9.028   8.088  66.558  1.00  0.00    -0.140 OA 
BRANCH  17  18
HETATM   18  C   UNL     1      -7.603   7.897  66.387  1.00  0.00    -0.091 C  
HETATM   19  N   UNL     1      -7.230   6.592  68.517  1.00  0.00    -0.083 NA 
HETATM   20  C   UNL     1      -7.066   6.548  67.039  1.00  0.00    -0.073 C  
HETATM   21  O   UNL     1      -6.853   9.007  66.909  1.00  0.00    -0.075 OA 
HETATM   22  C   UNL     1      -7.017   9.093  68.329  1.00  0.00    -0.076 C  
HETATM   23  C   UNL     1      -6.560   7.810  69.033  1.00  0.00    -0.048 C  
BRANCH  19  24
HETATM   24  C   UNL     1      -6.868   5.393  69.292  1.00  0.00    -0.054 C  
BRANCH  24  25
HETATM   25  C   UNL     1      -7.344   5.401  70.733  1.00  0.00    -0.078 C  
HETATM   26  O   UNL     1     -11.158   5.280  72.231  1.00  0.00    -0.221 OA 
HETATM   27  O   UNL     1      -9.993   3.755  73.768  1.00  0.00    -0.107 OA 
HETATM   28  N   UNL     1      -6.618   4.943  71.721  1.00  0.00    -0.030 NA 
HETATM   29  O   UNL     1     -10.356   6.213  74.474  1.00  0.00    -0.305 OA 
HETATM   30  C   UNL     1      -7.439   4.996  72.825  1.00  0.00    -0.095 C  
HETATM   31  O   UNL     1      -7.231   4.444  73.898  1.00  0.00    -0.065 OA 
HETATM   32  P   UNL     1     -10.001   5.301  73.354  1.00  0.00    -0.190 P  
HETATM   33  N   UNL     1      -8.613   5.612  72.482  1.00  0.00    -0.124 N  
HETATM   34  N   UNL     1      -8.576   5.891  71.099  1.00  0.00    -0.128 NA 
ENDBRANCH  24  25
ENDBRANCH  19  24
BRANCH  20  35
HETATM   35  C   UNL     1      -7.686   5.352  66.320  1.00  0.00    -0.099 A  
HETATM   36  C   UNL     1      -7.831   3.950  64.326  1.00  0.00    -0.085 A  
HETATM   37  F   UNL     1      -9.634   2.444  64.108  1.00  0.00    -0.125 F  
HETATM   38  C   UNL     1      -7.184   4.945  65.066  1.00  0.00    -0.064 A  
HETATM   39  C   UNL     1      -9.490   3.736  66.074  1.00  0.00    -0.178 A  
HETATM   40  C   UNL     1      -8.835   4.719  66.821  1.00  0.00    -0.110 A  
HETATM   41  C   UNL     1      -8.989   3.366  64.834  1.00  0.00    -0.133 A  
ENDBRANCH  20  35
ENDBRANCH  17  18
ENDBRANCH   2  17
TORSDOF 6
ENDMDL
MODEL      210
REMARK 921   NORMALIZED FREE ENERGY PREDICTED BY IDOCK:   -5.28 KCAL/MOL
REMARK 922        TOTAL FREE ENERGY PREDICTED BY IDOCK:   -8.03 KCAL/MOL
REMARK 923 INTER-LIGAND FREE ENERGY PREDICTED BY IDOCK:   -7.73 KCAL/MOL
REMARK 924 INTRA-LIGAND FREE ENERGY PREDICTED BY IDOCK:   -0.30 KCAL/MOL
REMARK 927      BINDING AFFINITY PREDICTED BY RF-SCORE:    0.00 PKD
ROOT
HETATM    1  C   UNL     1      -8.784  12.404  66.140  1.00  0.00     0.192 C  
HETATM    2  C   UNL     1     -10.175  12.231  66.736  1.00  0.00    -0.211 C  
ENDROOT
BRANCH   2   3
HETATM    3  C   UNL     1     -10.659  13.471  67.458  1.00  0.00    -0.247 A  
HETATM    4  F   UNL     1      -8.312  17.019  67.894  1.00  0.00    -0.188 F  
HETATM    5  F   UNL     1      -9.927  18.014  68.953  1.00  0.00    -0.333 F  
HETATM    6  C   UNL     1     -11.583  13.299  68.497  1.00  0.00    -0.368 A  
HETATM    7  C   UNL     1     -11.827  14.315  69.418  1.00  0.00    -0.372 A  
HETATM    8  F   UNL     1     -10.046  17.744  66.798  1.00  0.00    -0.291 F  
HETATM    9  C   UNL     1     -12.637  14.018  70.660  1.00  0.00    -0.344 C  
HETATM   10  C   UNL     1     -11.208  15.561  69.234  1.00  0.00    -0.312 A  
HETATM   11  C   UNL     1      -9.667  17.127  67.951  1.00  0.00    -0.270 C  
HETATM   12  C   UNL     1     -10.347  15.790  68.144  1.00  0.00    -0.242 A  
HETATM   13  F   UNL     1     -13.248  12.801  70.626  1.00  0.00    -0.059 F  
HETATM   14  F   UNL     1     -11.861  14.013  71.775  1.00  0.00    -0.284 F  
HETATM   15  C   UNL     1     -10.072  14.732  67.264  1.00  0.00    -0.236 A  
HETATM   16  F   UNL     1     -13.619  14.928  70.880  1.00  0.00    -0.406 F  
ENDBRANCH   2   3
BRANCH   2  17
HETATM   17  O   UNL     1     -10.214  11.090  67.609  1.00  0.00    -0.174 OA 
BRANCH  17  18
HETATM   18  C   UNL     1     -10.841   9.925  67.020  1.00  0.00    -0.116 C  
HETATM   19  N   UNL     1      -9.052   8.270  67.681  1.00  0.00    -0.131 NA 
HETATM   20  C   UNL     1     -10.504   8.572  67.788  1.00  0.00    -0.223 C  
HETATM   21  O   UNL     1     -10.493   9.782  65.632  1.00  0.00    -0.106 OA 
HETATM   22  C   UNL     1      -9.092   9.519  65.496  1.00  0.00    -0.212 C  
HETATM   23  C   UNL     1      -8.675   8.249  66.247  1.00  0.00    -0.151 C  
BRANCH  19  24
HETATM   24  C   UNL     1      -8.531   7.098  68.405  1.00  0.00    -0.124 C  
BRANCH  24  25
HETATM   25  C   UNL     1      -8.086   7.378  69.829  1.00  0.00    -0.127 C  
HETATM   26  O   UNL     1      -6.704   4.795  72.696  1.00  0.00    -0.048 OA 
HETATM   27  O   UNL     1      -5.187   6.704  73.004  1.00  0.00    -0.035 OA 
HETATM   28  N   UNL     1      -7.597   8.533  70.204  1.00  0.00    -0.065 NA 
HETATM   29  O   UNL     1      -7.249   6.479  74.543  1.00  0.00    -0.098 OA 
HETATM   30  C   UNL     1      -7.190   8.346  71.506  1.00  0.00    -0.088 C  
HETATM   31  O   UNL     1      -6.469   9.100  72.144  1.00  0.00    -0.263 OA 
HETATM   32  P   UNL     1      -6.738   6.341  73.152  1.00  0.00    -0.075 P  
HETATM   33  N   UNL     1      -7.569   7.096  71.919  1.00  0.00    -0.086 N  
HETATM   34  N   UNL     1      -8.165   6.433  70.825  1.00  0.00    -0.123 NA 
ENDBRANCH  24  25
ENDBRANCH  19  24
BRANCH  20  35
HETATM   35  C   UNL     1     -11.086   8.629  69.199  1.00  0.00     0.158 A  
HETATM   36  C   UNL     1     -11.478   9.885  71.256  1.00  0.00    -0.435 A  
HETATM   37  F   UNL     1     -12.192   8.735  73.188  1.00  0.00    -0.217 F  
HETATM   38  C   UNL     1     -11.087   9.846  69.914  1.00  0.00    -0.318 A  
HETATM   39  C   UNL     1     -11.885   7.501  71.203  1.00  0.00    -0.324 A  
HETATM   40  C   UNL     1     -11.509   7.464  69.857  1.00  0.00    -0.026 A  
HETATM   41  C   UNL     1     -11.859   8.706  71.891  1.00  0.00    -0.351 A  
ENDBRANCH  20  35
ENDBRANCH  17  18
ENDBRANCH   2  17
TORSDOF 6
ENDMDL
MODEL      211
REMARK 921   NORMALIZED FREE ENERGY PREDICTED BY IDOCK:   -5.25 KCAL/MOL
REMARK 922        TOTAL FREE ENERGY PREDICTED BY IDOCK:   -7.99 KCAL/MOL
REMARK 923 INTER-LIGAND FREE ENERGY PREDICTED BY IDOCK:   -7.50 KCAL/MOL
REMARK 924 INTRA-LIGAND FREE ENERGY PREDICTED BY IDOCK:   -0.49 KCAL/MOL
REMARK 927      BINDING AFFINITY PREDICTED BY RF-SCORE:    0.00 PKD
ROOT
HETATM    1  C   UNL     1     -10.399   7.852  66.785  1.00  0.00    -0.357 C  
HETATM    2  C   UNL     1     -10.618   8.932  67.837  1.00  0.00    -0.183 C  
ENDROOT
BRANCH   2   3
HETATM    3  C   UNL     1     -11.064  10.249  67.237  1.00  0.00    -0.215 A  
HETATM    4  F   UNL     1     -10.162  11.446  63.232  1.00  0.00    -0.314 F  
HETATM    5  F   UNL     1     -11.265  13.300  63.487  1.00  0.00    -0.378 F  
HETATM    6  C   UNL     1     -11.230  11.336  68.105  1.00  0.00    -0.351 A  
HETATM    7  C   UNL     1     -11.310  12.639  67.618  1.00  0.00    -0.362 A  
HETATM    8  F   UNL     1     -12.338  11.427  63.230  1.00  0.00    -0.525 F  
HETATM    9  C   UNL     1     -11.242  13.800  68.584  1.00  0.00    -0.278 C  
HETATM   10  C   UNL     1     -11.325  12.846  66.231  1.00  0.00    -0.364 A  
HETATM   11  C   UNL     1     -11.256  11.983  63.838  1.00  0.00    -0.417 C  
HETATM   12  C   UNL     1     -11.254  11.763  65.335  1.00  0.00    -0.310 A  
HETATM   13  F   UNL     1     -11.339  13.423  69.889  1.00  0.00    -0.283 F  
HETATM   14  F   UNL     1     -10.066  14.473  68.478  1.00  0.00    -0.214 F  
HETATM   15  C   UNL     1     -11.114  10.464  65.850  1.00  0.00     0.381 A  
HETATM   16  F   UNL     1     -12.226  14.714  68.381  1.00  0.00    -0.330 F  
ENDBRANCH   2   3
BRANCH   2  17
HETATM   17  O   UNL     1      -9.433   9.114  68.631  1.00  0.00    -0.142 OA 
BRANCH  17  18
HETATM   18  C   UNL     1      -8.388   8.152  68.347  1.00  0.00    -0.126 C  
HETATM   19  N   UNL     1      -6.447   9.652  68.947  1.00  0.00    -0.046 NA 
HETATM   20  C   UNL     1      -7.092   8.347  69.251  1.00  0.00    -0.062 C  
HETATM   21  O   UNL     1      -8.007   8.176  66.961  1.00  0.00    -0.102 OA 
HETATM   22  C   UNL     1      -7.409   9.435  66.632  1.00  0.00    -0.090 C  
HETATM   23  C   UNL     1      -6.172   9.720  67.492  1.00  0.00    -0.059 C  
BRANCH  19  24
HETATM   24  C   UNL     1      -5.276  10.051  69.748  1.00  0.00    -0.037 C  
BRANCH  24  25
HETATM   25  C   UNL     1      -5.277  11.503  70.192  1.00  0.00    -0.084 C  
HETATM   26  O   UNL     1      -6.501  14.856  68.179  1.00  0.00    -0.108 OA 
HETATM   27  O   UNL     1      -7.384  15.303  70.429  1.00  0.00     0.165 OA 
HETATM   28  N   UNL     1      -5.362  11.858  71.450  1.00  0.00    -0.360 NA 
HETATM   29  O   UNL     1      -5.126  16.350  69.736  1.00  0.00    -0.123 OA 
HETATM   30  C   UNL     1      -5.470  13.231  71.428  1.00  0.00    -0.160 C  
HETATM   31  O   UNL     1      -5.807  13.936  72.370  1.00  0.00    -0.422 OA 
HETATM   32  P   UNL     1      -5.980  15.133  69.679  1.00  0.00    -0.135 P  
HETATM   33  N   UNL     1      -5.318  13.673  70.141  1.00  0.00    -0.098 N  
HETATM   34  N   UNL     1      -5.188  12.546  69.301  1.00  0.00    -0.068 NA 
ENDBRANCH  24  25
ENDBRANCH  19  24
BRANCH  20  35
HETATM   35  C   UNL     1      -7.446   8.086  70.713  1.00  0.00    -0.072 A  
HETATM   36  C   UNL     1      -7.370   6.609  72.656  1.00  0.00    -0.088 A  
HETATM   37  F   UNL     1      -8.762   7.068  74.505  1.00  0.00    -0.175 F  
HETATM   38  C   UNL     1      -6.939   6.943  71.368  1.00  0.00    -0.066 A  
HETATM   39  C   UNL     1      -8.813   8.550  72.673  1.00  0.00    -0.225 A  
HETATM   40  C   UNL     1      -8.372   8.893  71.392  1.00  0.00    -0.195 A  
HETATM   41  C   UNL     1      -8.317   7.410  73.289  1.00  0.00    -0.119 A  
ENDBRANCH  20  35
ENDBRANCH  17  18
ENDBRANCH   2  17
TORSDOF 6
ENDMDL
MODEL      212
REMARK 921   NORMALIZED FREE ENERGY PREDICTED BY IDOCK:   -5.23 KCAL/MOL
REMARK 922        TOTAL FREE ENERGY PREDICTED BY IDOCK:   -7.97 KCAL/MOL
REMARK 923 INTER-LIGAND FREE ENERGY PREDICTED BY IDOCK:   -6.54 KCAL/MOL
REMARK 924 INTRA-LIGAND FREE ENERGY PREDICTED BY IDOCK:   -1.43 KCAL/MOL
REMARK 927      BINDING AFFINITY PREDICTED BY RF-SCORE:    0.00 PKD
ROOT
HETATM    1  C   UNL     1     -10.195  12.151  66.625  1.00  0.00    -0.223 C  
HETATM    2  C   UNL     1     -10.493  10.941  67.501  1.00  0.00    -0.215 C  
ENDROOT
BRANCH   2   3
HETATM    3  C   UNL     1     -11.337  11.290  68.710  1.00  0.00    -0.335 A  
HETATM    4  F   UNL     1     -10.839  14.879  70.982  1.00  0.00    -0.253 F  
HETATM    5  F   UNL     1     -12.484  14.334  72.291  1.00  0.00    -0.372 F  
HETATM    6  C   UNL     1     -11.852  10.233  69.470  1.00  0.00    -0.148 A  
HETATM    7  C   UNL     1     -12.345  10.445  70.756  1.00  0.00    -0.463 A  
HETATM    8  F   UNL     1     -12.892  15.056  70.281  1.00  0.00    -0.371 F  
HETATM    9  C   UNL     1     -12.665   9.258  71.637  1.00  0.00    -0.364 C  
HETATM   10  C   UNL     1     -12.416  11.757  71.248  1.00  0.00    -0.351 A  
HETATM   11  C   UNL     1     -12.052  14.263  71.000  1.00  0.00    -0.344 C  
HETATM   12  C   UNL     1     -11.991  12.849  70.468  1.00  0.00    -0.282 A  
HETATM   13  F   UNL     1     -12.644   8.070  70.970  1.00  0.00    -0.297 F  
HETATM   14  F   UNL     1     -11.769   9.130  72.650  1.00  0.00    -0.288 F  
HETATM   15  C   UNL     1     -11.443  12.602  69.199  1.00  0.00    -0.359 A  
HETATM   16  F   UNL     1     -13.890   9.345  72.216  1.00  0.00    -0.425 F  
ENDBRANCH   2   3
BRANCH   2  17
HETATM   17  O   UNL     1      -9.274  10.296  67.906  1.00  0.00    -0.137 OA 
BRANCH  17  18
HETATM   18  C   UNL     1      -8.082  10.892  67.338  1.00  0.00    -0.114 C  
HETATM   19  N   UNL     1      -6.450   9.190  68.242  1.00  0.00    -0.055 NA 
HETATM   20  C   UNL     1      -6.949   9.828  66.995  1.00  0.00    -0.085 C  
HETATM   21  O   UNL     1      -7.536  11.907  68.197  1.00  0.00    -0.086 OA 
HETATM   22  C   UNL     1      -7.074  11.324  69.422  1.00  0.00    -0.090 C  
HETATM   23  C   UNL     1      -6.005  10.253  69.175  1.00  0.00    -0.037 C  
BRANCH  19  24
HETATM   24  C   UNL     1      -5.455   8.111  68.120  1.00  0.00    -0.034 C  
BRANCH  24  25
HETATM   25  C   UNL     1      -5.809   6.834  68.861  1.00  0.00    -0.018 C  
HETATM   26  O   UNL     1      -5.583   5.982  72.864  1.00  0.00    -0.034 OA 
HETATM   27  O   UNL     1      -7.734   4.947  72.278  1.00  0.00    -0.087 OA 
HETATM   28  N   UNL     1      -6.706   5.987  68.423  1.00  0.00    -0.062 NA 
HETATM   29  O   UNL     1      -5.617   3.470  72.378  1.00  0.00    -0.007 OA 
HETATM   30  C   UNL     1      -6.836   5.052  69.425  1.00  0.00    -0.053 C  
HETATM   31  O   UNL     1      -7.735   4.227  69.520  1.00  0.00    -0.054 OA 
HETATM   32  P   UNL     1      -6.173   4.785  71.959  1.00  0.00    -0.027 P  
HETATM   33  N   UNL     1      -5.905   5.303  70.397  1.00  0.00    -0.016 N  
HETATM   34  N   UNL     1      -5.210   6.481  70.047  1.00  0.00    -0.014 NA 
ENDBRANCH  24  25
ENDBRANCH  19  24
BRANCH  20  35
HETATM   35  C   UNL     1      -7.447   8.888  65.900  1.00  0.00    -0.093 A  
HETATM   36  C   UNL     1      -8.683   6.880  65.265  1.00  0.00     0.068 A  
HETATM   37  F   UNL     1      -8.439   6.022  63.080  1.00  0.00    -0.103 F  
HETATM   38  C   UNL     1      -8.334   7.837  66.222  1.00  0.00    -0.131 A  
HETATM   39  C   UNL     1      -7.282   7.997  63.640  1.00  0.00    -0.093 A  
HETATM   40  C   UNL     1      -6.944   8.964  64.592  1.00  0.00    -0.084 A  
HETATM   41  C   UNL     1      -8.139   6.962  63.985  1.00  0.00    -0.008 A  
ENDBRANCH  20  35
ENDBRANCH  17  18
ENDBRANCH   2  17
TORSDOF 6
ENDMDL
MODEL      213
REMARK 921   NORMALIZED FREE ENERGY PREDICTED BY IDOCK:   -5.19 KCAL/MOL
REMARK 922        TOTAL FREE ENERGY PREDICTED BY IDOCK:   -7.91 KCAL/MOL
REMARK 923 INTER-LIGAND FREE ENERGY PREDICTED BY IDOCK:   -5.76 KCAL/MOL
REMARK 924 INTRA-LIGAND FREE ENERGY PREDICTED BY IDOCK:   -2.15 KCAL/MOL
REMARK 927      BINDING AFFINITY PREDICTED BY RF-SCORE:    0.00 PKD
ROOT
HETATM    1  C   UNL     1     -11.575   7.868  72.354  1.00  0.00    -0.436 C  
HETATM    2  C   UNL     1     -10.144   7.904  71.835  1.00  0.00    -0.194 C  
ENDROOT
BRANCH   2   3
HETATM    3  C   UNL     1      -9.941   8.950  70.757  1.00  0.00    -0.282 A  
HETATM    4  F   UNL     1      -6.143  10.686  69.837  1.00  0.00    -0.047 F  
HETATM    5  F   UNL     1      -7.021  11.882  68.251  1.00  0.00    -0.063 F  
HETATM    6  C   UNL     1     -11.013   9.803  70.469  1.00  0.00    -0.384 A  
HETATM    7  C   UNL     1     -10.821  10.982  69.752  1.00  0.00    -0.205 A  
HETATM    8  F   UNL     1      -6.695   9.754  67.950  1.00  0.00    -0.062 F  
HETATM    9  C   UNL     1     -11.941  11.995  69.669  1.00  0.00    -0.293 C  
HETATM   10  C   UNL     1      -9.550  11.257  69.226  1.00  0.00     0.144 A  
HETATM   11  C   UNL     1      -7.100  10.671  68.870  1.00  0.00    -0.078 C  
HETATM   12  C   UNL     1      -8.476  10.370  69.422  1.00  0.00    -0.145 A  
HETATM   13  F   UNL     1     -13.131  11.523  70.136  1.00  0.00    -0.031 F  
HETATM   14  F   UNL     1     -11.668  13.105  70.404  1.00  0.00    -0.355 F  
HETATM   15  C   UNL     1      -8.681   9.218  70.199  1.00  0.00    -0.224 A  
HETATM   16  F   UNL     1     -12.175  12.421  68.401  1.00  0.00    -0.350 F  
ENDBRANCH   2   3
BRANCH   2  17
HETATM   17  O   UNL     1      -9.742   6.607  71.362  1.00  0.00    -0.172 OA 
BRANCH  17  18
HETATM   18  C   UNL     1      -8.627   6.040  72.092  1.00  0.00    -0.128 C  
HETATM   19  N   UNL     1      -8.707   3.759  71.013  1.00  0.00    -0.076 NA 
HETATM   20  C   UNL     1      -7.833   4.934  71.268  1.00  0.00    -0.092 C  
HETATM   21  O   UNL     1      -9.045   5.485  73.351  1.00  0.00    -0.129 OA 
HETATM   22  C   UNL     1      -9.914   4.367  73.136  1.00  0.00    -0.145 C  
HETATM   23  C   UNL     1      -9.235   3.269  72.309  1.00  0.00    -0.105 C  
BRANCH  19  24
HETATM   24  C   UNL     1      -8.174   2.663  70.185  1.00  0.00    -0.041 C  
BRANCH  24  25
HETATM   25  C   UNL     1      -8.415   2.818  68.695  1.00  0.00    -0.068 C  
HETATM   26  O   UNL     1     -10.810   5.474  66.692  1.00  0.00    -0.288 OA 
HETATM   27  O   UNL     1      -8.810   5.465  65.263  1.00  0.00    -0.157 OA 
HETATM   28  N   UNL     1      -7.527   2.475  67.795  1.00  0.00    -0.056 NA 
HETATM   29  O   UNL     1     -10.819   3.974  64.619  1.00  0.00    -0.256 OA 
HETATM   30  C   UNL     1      -8.054   2.894  66.593  1.00  0.00    -0.081 C  
HETATM   31  O   UNL     1      -7.443   2.979  65.536  1.00  0.00    -0.070 OA 
HETATM   32  P   UNL     1      -9.976   4.477  65.738  1.00  0.00    -0.223 P  
HETATM   33  N   UNL     1      -9.321   3.372  66.801  1.00  0.00    -0.182 N  
HETATM   34  N   UNL     1      -9.584   3.333  68.187  1.00  0.00    -0.143 NA 
ENDBRANCH  24  25
ENDBRANCH  19  24
BRANCH  20  35
HETATM   35  C   UNL     1      -7.183   5.578  70.045  1.00  0.00    -0.068 A  
HETATM   36  C   UNL     1      -7.425   6.693  67.886  1.00  0.00    -0.098 A  
HETATM   37  F   UNL     1      -5.539   6.905  66.483  1.00  0.00    -0.019 F  
HETATM   38  C   UNL     1      -7.983   6.229  69.081  1.00  0.00    -0.110 A  
HETATM   39  C   UNL     1      -5.257   5.881  68.587  1.00  0.00    -0.007 A  
HETATM   40  C   UNL     1      -5.811   5.430  69.789  1.00  0.00    -0.017 A  
HETATM   41  C   UNL     1      -6.067   6.499  67.645  1.00  0.00    -0.027 A  
ENDBRANCH  20  35
ENDBRANCH  17  18
ENDBRANCH   2  17
TORSDOF 6
ENDMDL
MODEL      214
REMARK 921   NORMALIZED FREE ENERGY PREDICTED BY IDOCK:   -5.17 KCAL/MOL
REMARK 922        TOTAL FREE ENERGY PREDICTED BY IDOCK:   -7.89 KCAL/MOL
REMARK 923 INTER-LIGAND FREE ENERGY PREDICTED BY IDOCK:   -6.03 KCAL/MOL
REMARK 924 INTRA-LIGAND FREE ENERGY PREDICTED BY IDOCK:   -1.86 KCAL/MOL
REMARK 927      BINDING AFFINITY PREDICTED BY RF-SCORE:    0.00 PKD
ROOT
HETATM    1  C   UNL     1      -9.637   4.095  69.272  1.00  0.00    -0.256 C  
HETATM    2  C   UNL     1      -9.138   5.418  68.704  1.00  0.00    -0.115 C  
ENDROOT
BRANCH   2   3
HETATM    3  C   UNL     1      -8.749   5.316  67.244  1.00  0.00    -0.107 A  
HETATM    4  F   UNL     1      -8.802   8.634  64.548  1.00  0.00    -0.180 F  
HETATM    5  F   UNL     1      -8.068   7.389  62.926  1.00  0.00    -0.132 F  
HETATM    6  C   UNL     1      -8.955   4.089  66.601  1.00  0.00    -0.134 A  
HETATM    7  C   UNL     1      -8.943   3.995  65.211  1.00  0.00    -0.132 A  
HETATM    8  F   UNL     1      -6.711   8.032  64.499  1.00  0.00    -0.057 F  
HETATM    9  C   UNL     1      -9.408   2.719  64.546  1.00  0.00    -0.142 C  
HETATM   10  C   UNL     1      -8.617   5.132  64.456  1.00  0.00    -0.130 A  
HETATM   11  C   UNL     1      -7.977   7.588  64.272  1.00  0.00    -0.109 C  
HETATM   12  C   UNL     1      -8.314   6.356  65.082  1.00  0.00    -0.109 A  
HETATM   13  F   UNL     1      -9.581   1.688  65.419  1.00  0.00    -0.073 F  
HETATM   14  F   UNL     1     -10.605   2.885  63.924  1.00  0.00    -0.184 F  
HETATM   15  C   UNL     1      -8.391   6.439  66.481  1.00  0.00    -0.115 A  
HETATM   16  F   UNL     1      -8.543   2.271  63.599  1.00  0.00    -0.082 F  
ENDBRANCH   2   3
BRANCH   2  17
HETATM   17  O   UNL     1      -8.042   5.923  69.485  1.00  0.00    -0.102 OA 
BRANCH  17  18
HETATM   18  C   UNL     1      -8.312   5.969  70.908  1.00  0.00    -0.126 C  
HETATM   19  N   UNL     1      -6.618   7.758  71.463  1.00  0.00    -0.044 NA 
HETATM   20  C   UNL     1      -8.060   7.404  71.550  1.00  0.00    -0.100 C  
HETATM   21  O   UNL     1      -7.545   4.987  71.625  1.00  0.00    -0.096 OA 
HETATM   22  C   UNL     1      -6.147   5.287  71.534  1.00  0.00    -0.029 C  
HETATM   23  C   UNL     1      -5.825   6.676  72.095  1.00  0.00    -0.038 C  
BRANCH  19  24
HETATM   24  C   UNL     1      -6.201   9.092  71.929  1.00  0.00    -0.048 C  
BRANCH  24  25
HETATM   25  C   UNL     1      -5.983  10.110  70.825  1.00  0.00    -0.093 C  
HETATM   26  O   UNL     1      -6.811   9.846  66.820  1.00  0.00    -0.081 OA 
HETATM   27  O   UNL     1      -7.534  12.145  67.305  1.00  0.00    -0.142 OA 
HETATM   28  N   UNL     1      -5.969  11.401  71.046  1.00  0.00    -0.355 NA 
HETATM   29  O   UNL     1      -5.182  11.753  66.310  1.00  0.00    -0.325 OA 
HETATM   30  C   UNL     1      -5.887  11.977  69.798  1.00  0.00    -0.125 C  
HETATM   31  O   UNL     1      -6.086  13.157  69.541  1.00  0.00    -0.100 OA 
HETATM   32  P   UNL     1      -6.197  11.264  67.282  1.00  0.00    -0.107 P  
HETATM   33  N   UNL     1      -5.726  10.993  68.859  1.00  0.00    -0.040 N  
HETATM   34  N   UNL     1      -5.787   9.745  69.514  1.00  0.00    -0.033 NA 
ENDBRANCH  24  25
ENDBRANCH  19  24
BRANCH  20  35
HETATM   35  C   UNL     1      -9.045   8.408  70.955  1.00  0.00    -0.201 A  
HETATM   36  C   UNL     1     -11.162   9.614  71.115  1.00  0.00    -0.454 A  
HETATM   37  F   UNL     1     -11.994  10.736  69.214  1.00  0.00    -0.327 F  
HETATM   38  C   UNL     1     -10.175   8.813  71.697  1.00  0.00    -0.394 A  
HETATM   39  C   UNL     1      -9.916   9.637  69.042  1.00  0.00    -0.189 A  
HETATM   40  C   UNL     1      -8.921   8.849  69.628  1.00  0.00    -0.147 A  
HETATM   41  C   UNL     1     -11.029  10.005  69.785  1.00  0.00    -0.276 A  
ENDBRANCH  20  35
ENDBRANCH  17  18
ENDBRANCH   2  17
TORSDOF 6
ENDMDL
MODEL      215
REMARK 921   NORMALIZED FREE ENERGY PREDICTED BY IDOCK:   -5.10 KCAL/MOL
REMARK 922        TOTAL FREE ENERGY PREDICTED BY IDOCK:   -7.79 KCAL/MOL
REMARK 923 INTER-LIGAND FREE ENERGY PREDICTED BY IDOCK:   -7.98 KCAL/MOL
REMARK 924 INTRA-LIGAND FREE ENERGY PREDICTED BY IDOCK:    0.19 KCAL/MOL
REMARK 927      BINDING AFFINITY PREDICTED BY RF-SCORE:    0.00 PKD
ROOT
HETATM    1  C   UNL     1     -10.419  11.033  69.384  1.00  0.00    -0.177 C  
HETATM    2  C   UNL     1      -9.637  11.250  68.095  1.00  0.00    -0.186 C  
ENDROOT
BRANCH   2   3
HETATM    3  C   UNL     1     -10.223  12.350  67.235  1.00  0.00    -0.224 A  
HETATM    4  F   UNL     1     -11.556  11.752  63.216  1.00  0.00    -0.469 F  
HETATM    5  F   UNL     1     -12.175  13.828  63.062  1.00  0.00    -0.485 F  
HETATM    6  C   UNL     1      -9.794  13.661  67.476  1.00  0.00    -0.227 A  
HETATM    7  C   UNL     1     -10.013  14.673  66.544  1.00  0.00    -0.292 A  
HETATM    8  F   UNL     1     -13.372  12.422  64.210  1.00  0.00    -0.365 F  
HETATM    9  C   UNL     1      -9.330  16.010  66.719  1.00  0.00    -0.238 C  
HETATM   10  C   UNL     1     -10.767  14.386  65.395  1.00  0.00    -0.359 A  
HETATM   11  C   UNL     1     -12.089  12.780  63.930  1.00  0.00    -0.486 C  
HETATM   12  C   UNL     1     -11.289  13.098  65.173  1.00  0.00    -0.322 A  
HETATM   13  F   UNL     1      -8.730  16.154  67.934  1.00  0.00    -0.169 F  
HETATM   14  F   UNL     1      -8.350  16.197  65.797  1.00  0.00    -0.299 F  
HETATM   15  C   UNL     1     -11.004  12.082  66.099  1.00  0.00    -0.343 A  
HETATM   16  F   UNL     1     -10.182  17.060  66.592  1.00  0.00    -0.274 F  
ENDBRANCH   2   3
BRANCH   2  17
HETATM   17  O   UNL     1      -9.539  10.024  67.349  1.00  0.00    -0.150 OA 
BRANCH  17  18
HETATM   18  C   UNL     1      -8.225   9.788  66.787  1.00  0.00    -0.120 C  
HETATM   19  N   UNL     1      -7.272   8.575  68.786  1.00  0.00    -0.077 NA 
HETATM   20  C   UNL     1      -7.540   8.457  67.328  1.00  0.00    -0.097 C  
HETATM   21  O   UNL     1      -7.344  10.901  67.013  1.00  0.00    -0.105 OA 
HETATM   22  C   UNL     1      -7.091  11.057  68.414  1.00  0.00    -0.074 C  
HETATM   23  C   UNL     1      -6.467   9.797  69.024  1.00  0.00    -0.045 C  
BRANCH  19  24
HETATM   24  C   UNL     1      -6.716   7.404  69.487  1.00  0.00    -0.041 C  
BRANCH  24  25
HETATM   25  C   UNL     1      -7.753   6.419  69.996  1.00  0.00    -0.102 C  
HETATM   26  O   UNL     1      -7.280   2.563  71.304  1.00  0.00    -0.032 OA 
HETATM   27  O   UNL     1      -8.886   3.431  72.951  1.00  0.00    -0.084 OA 
HETATM   28  N   UNL     1      -8.867   6.798  70.571  1.00  0.00    -0.151 NA 
HETATM   29  O   UNL     1      -9.766   2.083  70.930  1.00  0.00    -0.132 OA 
HETATM   30  C   UNL     1      -9.459   5.634  71.008  1.00  0.00    -0.166 C  
HETATM   31  O   UNL     1     -10.391   5.559  71.798  1.00  0.00    -0.202 OA 
HETATM   32  P   UNL     1      -8.794   3.114  71.385  1.00  0.00    -0.099 P  
HETATM   33  N   UNL     1      -8.728   4.564  70.563  1.00  0.00    -0.091 N  
HETATM   34  N   UNL     1      -7.591   5.058  69.889  1.00  0.00    -0.059 NA 
ENDBRANCH  24  25
ENDBRANCH  19  24
BRANCH  20  35
HETATM   35  C   UNL     1      -8.355   7.246  66.881  1.00  0.00    -0.118 A  
HETATM   36  C   UNL     1      -8.583   5.290  65.436  1.00  0.00    -0.149 A  
HETATM   37  F   UNL     1     -10.683   4.228  65.261  1.00  0.00    -0.271 F  
HETATM   38  C   UNL     1      -7.802   6.320  65.970  1.00  0.00    -0.106 A  
HETATM   39  C   UNL     1     -10.482   6.074  66.713  1.00  0.00    -0.329 A  
HETATM   40  C   UNL     1      -9.698   7.094  67.259  1.00  0.00    -0.198 A  
HETATM   41  C   UNL     1      -9.923   5.188  65.803  1.00  0.00    -0.068 A  
ENDBRANCH  20  35
ENDBRANCH  17  18
ENDBRANCH   2  17
TORSDOF 6
ENDMDL
MODEL      216
REMARK 921   NORMALIZED FREE ENERGY PREDICTED BY IDOCK:   -5.09 KCAL/MOL
REMARK 922        TOTAL FREE ENERGY PREDICTED BY IDOCK:   -7.78 KCAL/MOL
REMARK 923 INTER-LIGAND FREE ENERGY PREDICTED BY IDOCK:   -6.86 KCAL/MOL
REMARK 924 INTRA-LIGAND FREE ENERGY PREDICTED BY IDOCK:   -0.92 KCAL/MOL
REMARK 927      BINDING AFFINITY PREDICTED BY RF-SCORE:    0.00 PKD
ROOT
HETATM    1  C   UNL     1      -5.865   7.861  67.588  1.00  0.00    -0.041 C  
HETATM    2  C   UNL     1      -7.297   7.476  67.239  1.00  0.00    -0.098 C  
ENDROOT
BRANCH   2   3
HETATM    3  C   UNL     1      -7.406   6.065  66.696  1.00  0.00    -0.078 A  
HETATM    4  F   UNL     1     -10.918   4.526  64.804  1.00  0.00    -0.233 F  
HETATM    5  F   UNL     1      -9.945   2.618  64.443  1.00  0.00    -0.151 F  
HETATM    6  C   UNL     1      -6.642   5.069  67.318  1.00  0.00    -0.053 A  
HETATM    7  C   UNL     1      -6.920   3.719  67.116  1.00  0.00    -0.058 A  
HETATM    8  F   UNL     1      -9.427   4.346  63.229  1.00  0.00    -0.145 F  
HETATM    9  C   UNL     1      -6.244   2.681  67.983  1.00  0.00    -0.028 C  
HETATM   10  C   UNL     1      -7.915   3.362  66.194  1.00  0.00    -0.092 A  
HETATM   11  C   UNL     1      -9.718   3.961  64.501  1.00  0.00    -0.183 C  
HETATM   12  C   UNL     1      -8.634   4.342  65.485  1.00  0.00    -0.121 A  
HETATM   13  F   UNL     1      -5.234   3.188  68.744  1.00  0.00    -0.009 F  
HETATM   14  F   UNL     1      -7.116   2.112  68.855  1.00  0.00    -0.041 F  
HETATM   15  C   UNL     1      -8.376   5.696  65.751  1.00  0.00    -0.132 A  
HETATM   16  F   UNL     1      -5.702   1.665  67.264  1.00  0.00    -0.016 F  
ENDBRANCH   2   3
BRANCH   2  17
HETATM   17  O   UNL     1      -7.864   8.418  66.312  1.00  0.00    -0.094 OA 
BRANCH  17  18
HETATM   18  C   UNL     1      -7.788   9.793  66.761  1.00  0.00    -0.102 C  
HETATM   19  N   UNL     1     -10.107  10.464  66.019  1.00  0.00    -0.240 NA 
HETATM   20  C   UNL     1      -9.199  10.392  67.194  1.00  0.00    -0.143 C  
HETATM   21  O   UNL     1      -7.198  10.644  65.763  1.00  0.00    -0.144 OA 
HETATM   22  C   UNL     1      -8.039  10.709  64.606  1.00  0.00     0.015 C  
HETATM   23  C   UNL     1      -9.437  11.238  64.947  1.00  0.00    -0.196 C  
BRANCH  19  24
HETATM   24  C   UNL     1     -11.493  10.913  66.239  1.00  0.00     0.536 C  
BRANCH  24  25
HETATM   25  C   UNL     1     -11.714  12.403  66.054  1.00  0.00    -0.410 C  
HETATM   26  O   UNL     1      -9.180  15.538  66.794  1.00  0.00    -0.215 OA 
HETATM   27  O   UNL     1     -10.181  16.229  64.658  1.00  0.00    -0.255 OA 
HETATM   28  N   UNL     1     -12.545  12.890  65.166  1.00  0.00    -0.608 NA 
HETATM   29  O   UNL     1     -11.147  17.173  66.861  1.00  0.00     0.040 OA 
HETATM   30  C   UNL     1     -12.360  14.254  65.212  1.00  0.00    -0.424 C  
HETATM   31  O   UNL     1     -12.765  15.058  64.383  1.00  0.00    -0.529 OA 
HETATM   32  P   UNL     1     -10.608  15.966  66.178  1.00  0.00    -0.242 P  
HETATM   33  N   UNL     1     -11.497  14.556  66.232  1.00  0.00    -0.353 N  
HETATM   34  N   UNL     1     -11.054  13.346  66.806  1.00  0.00    -0.288 NA 
ENDBRANCH  24  25
ENDBRANCH  19  24
BRANCH  20  35
HETATM   35  C   UNL     1      -9.720   9.635  68.413  1.00  0.00    -0.163 A  
HETATM   36  C   UNL     1     -10.641   7.588  69.374  1.00  0.00    -0.225 A  
HETATM   37  F   UNL     1     -11.594   7.656  71.531  1.00  0.00    -0.257 F  
HETATM   38  C   UNL     1     -10.024   8.261  68.314  1.00  0.00    -0.217 A  
HETATM   39  C   UNL     1     -10.657   9.636  70.661  1.00  0.00    -0.386 A  
HETATM   40  C   UNL     1     -10.027  10.306  69.608  1.00  0.00    -0.240 A  
HETATM   41  C   UNL     1     -10.965   8.289  70.533  1.00  0.00    -0.242 A  
ENDBRANCH  20  35
ENDBRANCH  17  18
ENDBRANCH   2  17
TORSDOF 6
ENDMDL
MODEL      217
REMARK 921   NORMALIZED FREE ENERGY PREDICTED BY IDOCK:   -5.08 KCAL/MOL
REMARK 922        TOTAL FREE ENERGY PREDICTED BY IDOCK:   -7.77 KCAL/MOL
REMARK 923 INTER-LIGAND FREE ENERGY PREDICTED BY IDOCK:   -5.61 KCAL/MOL
REMARK 924 INTRA-LIGAND FREE ENERGY PREDICTED BY IDOCK:   -2.16 KCAL/MOL
REMARK 927      BINDING AFFINITY PREDICTED BY RF-SCORE:    0.00 PKD
ROOT
HETATM    1  C   UNL     1      -8.890   7.674  73.379  1.00  0.00    -0.269 C  
HETATM    2  C   UNL     1      -8.391   7.797  71.945  1.00  0.00    -0.113 C  
ENDROOT
BRANCH   2   3
HETATM    3  C   UNL     1      -9.365   8.535  71.049  1.00  0.00    -0.231 A  
HETATM    4  F   UNL     1     -13.339   9.576  72.234  1.00  0.00    -0.426 F  
HETATM    5  F   UNL     1     -13.703  10.549  70.326  1.00  0.00    -0.107 F  
HETATM    6  C   UNL     1      -9.239   8.356  69.666  1.00  0.00    -0.160 A  
HETATM    7  C   UNL     1     -10.268   8.714  68.798  1.00  0.00    -0.224 A  
HETATM    8  F   UNL     1     -12.456  11.521  71.818  1.00  0.00    -0.361 F  
HETATM    9  C   UNL     1     -10.204   8.287  67.349  1.00  0.00    -0.258 C  
HETATM   10  C   UNL     1     -11.401   9.357  69.318  1.00  0.00     0.118 A  
HETATM   11  C   UNL     1     -12.739  10.313  71.260  1.00  0.00    -0.421 C  
HETATM   12  C   UNL     1     -11.512   9.633  70.694  1.00  0.00    -0.376 A  
HETATM   13  F   UNL     1      -8.995   7.772  66.992  1.00  0.00    -0.119 F  
HETATM   14  F   UNL     1     -11.116   7.320  67.070  1.00  0.00    -0.414 F  
HETATM   15  C   UNL     1     -10.488   9.209  71.555  1.00  0.00    -0.422 A  
HETATM   16  F   UNL     1     -10.450   9.307  66.487  1.00  0.00    -0.325 F  
ENDBRANCH   2   3
BRANCH   2  17
HETATM   17  O   UNL     1      -8.086   6.501  71.401  1.00  0.00    -0.110 OA 
BRANCH  17  18
HETATM   18  C   UNL     1      -6.741   6.048  71.691  1.00  0.00    -0.059 C  
HETATM   19  N   UNL     1      -6.467   4.624  69.623  1.00  0.00    -0.031 NA 
HETATM   20  C   UNL     1      -5.880   5.759  70.384  1.00  0.00    -0.024 C  
HETATM   21  O   UNL     1      -6.745   4.877  72.525  1.00  0.00    -0.052 OA 
HETATM   22  C   UNL     1      -7.333   3.773  71.827  1.00  0.00    -0.055 C  
HETATM   23  C   UNL     1      -6.584   3.456  70.528  1.00  0.00    -0.032 C  
BRANCH  19  24
HETATM   24  C   UNL     1      -5.855   4.263  68.333  1.00  0.00    -0.026 C  
BRANCH  24  25
HETATM   25  C   UNL     1      -6.830   3.746  67.291  1.00  0.00    -0.051 C  
HETATM   26  O   UNL     1      -8.889   5.785  64.392  1.00  0.00     0.059 OA 
HETATM   27  O   UNL     1      -8.196   3.775  63.159  1.00  0.00    -0.082 OA 
HETATM   28  N   UNL     1      -6.786   2.523  66.825  1.00  0.00    -0.043 NA 
HETATM   29  O   UNL     1     -10.570   3.869  64.172  1.00  0.00    -0.257 OA 
HETATM   30  C   UNL     1      -7.726   2.487  65.819  1.00  0.00    -0.077 C  
HETATM   31  O   UNL     1      -7.837   1.608  64.975  1.00  0.00    -0.069 OA 
HETATM   32  P   UNL     1      -9.134   4.191  64.387  1.00  0.00    -0.154 P  
HETATM   33  N   UNL     1      -8.404   3.678  65.796  1.00  0.00    -0.104 N  
HETATM   34  N   UNL     1      -7.829   4.530  66.763  1.00  0.00    -0.098 NA 
ENDBRANCH  24  25
ENDBRANCH  19  24
BRANCH  20  35
HETATM   35  C   UNL     1      -5.671   7.061  69.613  1.00  0.00    -0.022 A  
HETATM   36  C   UNL     1      -5.235   9.463  69.635  1.00  0.00    -0.034 A  
HETATM   37  F   UNL     1      -5.572  10.712  67.661  1.00  0.00    -0.043 F  
HETATM   38  C   UNL     1      -5.286   8.233  70.298  1.00  0.00    -0.022 A  
HETATM   39  C   UNL     1      -5.941   8.385  67.588  1.00  0.00    -0.047 A  
HETATM   40  C   UNL     1      -5.978   7.152  68.246  1.00  0.00    -0.030 A  
HETATM   41  C   UNL     1      -5.579   9.528  68.287  1.00  0.00    -0.037 A  
ENDBRANCH  20  35
ENDBRANCH  17  18
ENDBRANCH   2  17
TORSDOF 6
ENDMDL
MODEL      218
REMARK 921   NORMALIZED FREE ENERGY PREDICTED BY IDOCK:   -5.04 KCAL/MOL
REMARK 922        TOTAL FREE ENERGY PREDICTED BY IDOCK:   -7.71 KCAL/MOL
REMARK 923 INTER-LIGAND FREE ENERGY PREDICTED BY IDOCK:   -8.82 KCAL/MOL
REMARK 924 INTRA-LIGAND FREE ENERGY PREDICTED BY IDOCK:    1.11 KCAL/MOL
REMARK 927      BINDING AFFINITY PREDICTED BY RF-SCORE:    0.00 PKD
ROOT
HETATM    1  C   UNL     1     -11.243  10.935  66.636  1.00  0.00    -0.060 C  
HETATM    2  C   UNL     1     -10.277  10.711  67.792  1.00  0.00    -0.180 C  
ENDROOT
BRANCH   2   3
HETATM    3  C   UNL     1     -10.263   9.273  68.270  1.00  0.00    -0.236 A  
HETATM    4  F   UNL     1     -11.055   5.930  65.724  1.00  0.00     0.102 F  
HETATM    5  F   UNL     1     -10.725   4.544  67.364  1.00  0.00    -0.041 F  
HETATM    6  C   UNL     1     -10.599   9.030  69.607  1.00  0.00    -0.230 A  
HETATM    7  C   UNL     1     -10.933   7.750  70.044  1.00  0.00    -0.218 A  
HETATM    8  F   UNL     1      -9.031   5.519  66.411  1.00  0.00    -0.119 F  
HETATM    9  C   UNL     1     -11.524   7.562  71.423  1.00  0.00    -0.265 C  
HETATM   10  C   UNL     1     -10.829   6.678  69.144  1.00  0.00    -0.329 A  
HETATM   11  C   UNL     1     -10.305   5.731  66.842  1.00  0.00    -0.251 C  
HETATM   12  C   UNL     1     -10.404   6.881  67.818  1.00  0.00    -0.253 A  
HETATM   13  F   UNL     1     -11.453   8.682  72.196  1.00  0.00    -0.364 F  
HETATM   14  F   UNL     1     -12.841   7.235  71.364  1.00  0.00    -0.356 F  
HETATM   15  C   UNL     1     -10.130   8.189  67.387  1.00  0.00    -0.298 A  
HETATM   16  F   UNL     1     -10.914   6.576  72.129  1.00  0.00    -0.241 F  
ENDBRANCH   2   3
BRANCH   2  17
HETATM   17  O   UNL     1     -10.573  11.602  68.880  1.00  0.00    -0.211 OA 
BRANCH  17  18
HETATM   18  C   UNL     1      -9.618  12.681  69.027  1.00  0.00     0.389 C  
HETATM   19  N   UNL     1     -10.798  14.316  67.506  1.00  0.00    -0.276 NA 
HETATM   20  C   UNL     1     -10.274  14.125  68.884  1.00  0.00    -0.175 C  
HETATM   21  O   UNL     1      -8.533  12.559  68.091  1.00  0.00    -0.168 OA 
HETATM   22  C   UNL     1      -9.015  12.710  66.750  1.00  0.00    -0.197 C  
HETATM   23  C   UNL     1      -9.702  14.064  66.541  1.00  0.00    -0.295 C  
BRANCH  19  24
HETATM   24  C   UNL     1     -11.522  15.564  67.205  1.00  0.00    -0.102 C  
BRANCH  24  25
HETATM   25  C   UNL     1     -10.776  16.834  67.574  1.00  0.00    -0.275 C  
HETATM   26  O   UNL     1      -9.023  19.637  65.151  1.00  0.00     0.342 OA 
HETATM   27  O   UNL     1     -10.087  21.068  66.843  1.00  0.00    -0.050 OA 
HETATM   28  N   UNL     1     -11.008  17.495  68.681  1.00  0.00    -0.064 NA 
HETATM   29  O   UNL     1      -7.584  20.481  67.091  1.00  0.00    -0.309 OA 
HETATM   30  C   UNL     1     -10.247  18.638  68.582  1.00  0.00    -0.313 C  
HETATM   31  O   UNL     1     -10.354  19.631  69.290  1.00  0.00    -0.255 OA 
HETATM   32  P   UNL     1      -8.932  19.967  66.727  1.00  0.00    -0.372 P  
HETATM   33  N   UNL     1      -9.473  18.567  67.453  1.00  0.00    -0.281 N  
HETATM   34  N   UNL     1      -9.806  17.379  66.766  1.00  0.00    -0.283 NA 
ENDBRANCH  24  25
ENDBRANCH  19  24
BRANCH  20  35
HETATM   35  C   UNL     1     -11.262  14.351  70.027  1.00  0.00    -0.193 A  
HETATM   36  C   UNL     1     -11.823  15.473  72.121  1.00  0.00    -0.551 A  
HETATM   37  F   UNL     1     -13.637  14.677  73.403  1.00  0.00    -0.455 F  
HETATM   38  C   UNL     1     -11.011  15.351  70.990  1.00  0.00    -0.309 A  
HETATM   39  C   UNL     1     -13.162  13.610  71.356  1.00  0.00    -0.358 A  
HETATM   40  C   UNL     1     -12.360  13.497  70.217  1.00  0.00    -0.370 A  
HETATM   41  C   UNL     1     -12.884  14.588  72.300  1.00  0.00    -0.349 A  
ENDBRANCH  20  35
ENDBRANCH  17  18
ENDBRANCH   2  17
TORSDOF 6
ENDMDL
MODEL      219
REMARK 921   NORMALIZED FREE ENERGY PREDICTED BY IDOCK:   -5.01 KCAL/MOL
REMARK 922        TOTAL FREE ENERGY PREDICTED BY IDOCK:   -7.66 KCAL/MOL
REMARK 923 INTER-LIGAND FREE ENERGY PREDICTED BY IDOCK:   -7.35 KCAL/MOL
REMARK 924 INTRA-LIGAND FREE ENERGY PREDICTED BY IDOCK:   -0.32 KCAL/MOL
REMARK 927      BINDING AFFINITY PREDICTED BY RF-SCORE:    0.00 PKD
ROOT
HETATM    1  C   UNL     1     -10.542  13.511  67.930  1.00  0.00    -0.255 C  
HETATM    2  C   UNL     1     -11.042  12.091  68.161  1.00  0.00    -0.245 C  
ENDROOT
BRANCH   2   3
HETATM    3  C   UNL     1     -11.937  11.979  69.378  1.00  0.00    -0.334 A  
HETATM    4  F   UNL     1     -12.011  14.868  72.531  1.00  0.00    -0.399 F  
HETATM    5  F   UNL     1     -13.561  13.759  73.573  1.00  0.00     0.135 F  
HETATM    6  C   UNL     1     -12.288  10.694  69.810  1.00  0.00    -0.263 A  
HETATM    7  C   UNL     1     -12.817  10.482  71.082  1.00  0.00    -0.513 A  
HETATM    8  F   UNL     1     -14.062  14.922  71.805  1.00  0.00    -0.407 F  
HETATM    9  C   UNL     1     -12.955   9.070  71.606  1.00  0.00    -0.361 C  
HETATM   10  C   UNL     1     -13.091  11.591  71.896  1.00  0.00    -0.492 A  
HETATM   11  C   UNL     1     -13.115  14.098  72.331  1.00  0.00    -0.434 C  
HETATM   12  C   UNL     1     -12.834  12.901  71.450  1.00  0.00    -0.377 A  
HETATM   13  F   UNL     1     -12.748   8.119  70.653  1.00  0.00    -0.062 F  
HETATM   14  F   UNL     1     -12.057   8.810  72.591  1.00  0.00    -0.429 F  
HETATM   15  C   UNL     1     -12.247  13.084  70.188  1.00  0.00    -0.342 A  
HETATM   16  F   UNL     1     -14.183   8.820  72.130  1.00  0.00    -0.419 F  
ENDBRANCH   2   3
BRANCH   2  17
HETATM   17  O   UNL     1      -9.938  11.175  68.260  1.00  0.00    -0.174 OA 
BRANCH  17  18
HETATM   18  C   UNL     1     -10.335   9.782  68.259  1.00  0.00    -0.198 C  
HETATM   19  N   UNL     1      -8.175   8.869  67.321  1.00  0.00    -0.104 NA 
HETATM   20  C   UNL     1      -9.115   8.780  68.470  1.00  0.00    -0.138 C  
HETATM   21  O   UNL     1     -11.034   9.431  67.053  1.00  0.00    -0.118 OA 
HETATM   22  C   UNL     1     -10.158   9.536  65.923  1.00  0.00    -0.214 C  
HETATM   23  C   UNL     1      -8.930   8.630  66.068  1.00  0.00    -0.184 C  
BRANCH  19  24
HETATM   24  C   UNL     1      -6.934   8.077  67.377  1.00  0.00    -0.075 C  
BRANCH  24  25
HETATM   25  C   UNL     1      -7.143   6.574  67.419  1.00  0.00    -0.080 C  
HETATM   26  O   UNL     1      -7.252   3.858  64.351  1.00  0.00    -0.056 OA 
HETATM   27  O   UNL     1      -5.945   2.627  66.030  1.00  0.00    -0.022 OA 
HETATM   28  N   UNL     1      -6.819   5.843  68.457  1.00  0.00    -0.067 NA 
HETATM   29  O   UNL     1      -8.479   2.168  65.829  1.00  0.00    -0.090 OA 
HETATM   30  C   UNL     1      -7.028   4.542  68.059  1.00  0.00    -0.056 C  
HETATM   31  O   UNL     1      -6.627   3.543  68.641  1.00  0.00    -0.039 OA 
HETATM   32  P   UNL     1      -7.420   3.213  65.819  1.00  0.00    -0.074 P  
HETATM   33  N   UNL     1      -7.600   4.539  66.814  1.00  0.00    -0.085 N  
HETATM   34  N   UNL     1      -7.686   5.875  66.367  1.00  0.00    -0.098 NA 
ENDBRANCH  24  25
ENDBRANCH  19  24
BRANCH  20  35
HETATM   35  C   UNL     1      -8.517   8.991  69.859  1.00  0.00    -0.139 A  
HETATM   36  C   UNL     1      -6.551   9.356  71.261  1.00  0.00    -0.023 A  
HETATM   37  F   UNL     1      -6.739   9.087  73.598  1.00  0.00    -0.059 F  
HETATM   38  C   UNL     1      -7.148   9.306  69.997  1.00  0.00    -0.070 A  
HETATM   39  C   UNL     1      -8.671   8.790  72.280  1.00  0.00    -0.081 A  
HETATM   40  C   UNL     1      -9.272   8.755  71.018  1.00  0.00    -0.278 A  
HETATM   41  C   UNL     1      -7.319   9.081  72.390  1.00  0.00     0.374 A  
ENDBRANCH  20  35
ENDBRANCH  17  18
ENDBRANCH   2  17
TORSDOF 6
ENDMDL
MODEL      220
REMARK 921   NORMALIZED FREE ENERGY PREDICTED BY IDOCK:   -5.01 KCAL/MOL
REMARK 922        TOTAL FREE ENERGY PREDICTED BY IDOCK:   -7.66 KCAL/MOL
REMARK 923 INTER-LIGAND FREE ENERGY PREDICTED BY IDOCK:   -7.56 KCAL/MOL
REMARK 924 INTRA-LIGAND FREE ENERGY PREDICTED BY IDOCK:   -0.10 KCAL/MOL
REMARK 927      BINDING AFFINITY PREDICTED BY RF-SCORE:    0.00 PKD
ROOT
HETATM    1  C   UNL     1      -8.467   9.001  64.609  1.00  0.00    -0.194 C  
HETATM    2  C   UNL     1      -8.015   8.827  66.053  1.00  0.00    -0.107 C  
ENDROOT
BRANCH   2   3
HETATM    3  C   UNL     1      -8.060   7.383  66.508  1.00  0.00    -0.117 A  
HETATM    4  F   UNL     1     -11.051   4.599  65.247  1.00  0.00    -0.332 F  
HETATM    5  F   UNL     1     -10.126   3.009  66.402  1.00  0.00     0.133 F  
HETATM    6  C   UNL     1      -7.538   7.084  67.773  1.00  0.00    -0.111 A  
HETATM    7  C   UNL     1      -7.829   5.876  68.404  1.00  0.00    -0.105 A  
HETATM    8  F   UNL     1      -9.219   3.663  64.537  1.00  0.00    -0.120 F  
HETATM    9  C   UNL     1      -7.456   5.685  69.857  1.00  0.00    -0.071 C  
HETATM   10  C   UNL     1      -8.573   4.910  67.710  1.00  0.00    -0.103 A  
HETATM   11  C   UNL     1      -9.847   4.116  65.656  1.00  0.00    -0.205 C  
HETATM   12  C   UNL     1      -9.032   5.149  66.401  1.00  0.00    -0.125 A  
HETATM   13  F   UNL     1      -6.648   6.670  70.340  1.00  0.00    -0.042 F  
HETATM   14  F   UNL     1      -8.553   5.678  70.659  1.00  0.00    -0.120 F  
HETATM   15  C   UNL     1      -8.775   6.396  65.810  1.00  0.00    -0.135 A  
HETATM   16  F   UNL     1      -6.806   4.516  70.086  1.00  0.00    -0.033 F  
ENDBRANCH   2   3
BRANCH   2  17
HETATM   17  O   UNL     1      -8.794   9.657  66.931  1.00  0.00    -0.130 OA 
BRANCH  17  18
HETATM   18  C   UNL     1      -8.028  10.243  68.012  1.00  0.00    -0.101 C  
HETATM   19  N   UNL     1      -9.041  12.551  67.864  1.00  0.00    -0.191 NA 
HETATM   20  C   UNL     1      -8.805  11.402  68.777  1.00  0.00    -0.072 C  
HETATM   21  O   UNL     1      -6.761  10.744  67.552  1.00  0.00    -0.070 OA 
HETATM   22  C   UNL     1      -6.959  11.835  66.644  1.00  0.00     0.027 C  
HETATM   23  C   UNL     1      -7.741  12.982  67.296  1.00  0.00    -0.105 C  
BRANCH  19  24
HETATM   24  C   UNL     1      -9.826  13.691  68.370  1.00  0.00    -0.223 C  
BRANCH  24  25
HETATM   25  C   UNL     1      -9.185  15.049  68.154  1.00  0.00    -0.183 C  
HETATM   26  O   UNL     1     -10.783  18.478  66.576  1.00  0.00    -0.358 OA 
HETATM   27  O   UNL     1      -9.489  19.379  68.461  1.00  0.00    -0.351 OA 
HETATM   28  N   UNL     1      -8.194  15.489  68.889  1.00  0.00    -0.183 NA 
HETATM   29  O   UNL     1      -8.446  19.403  66.098  1.00  0.00    -0.332 OA 
HETATM   30  C   UNL     1      -7.993  16.788  68.479  1.00  0.00    -0.235 C  
HETATM   31  O   UNL     1      -7.324  17.627  69.068  1.00  0.00    -0.254 OA 
HETATM   32  P   UNL     1      -9.255  18.621  67.071  1.00  0.00    -0.309 P  
HETATM   33  N   UNL     1      -8.802  17.051  67.405  1.00  0.00    -0.202 N  
HETATM   34  N   UNL     1      -9.604  15.914  67.170  1.00  0.00    -0.216 NA 
ENDBRANCH  24  25
ENDBRANCH  19  24
BRANCH  20  35
HETATM   35  C   UNL     1     -10.033  10.819  69.472  1.00  0.00    -0.087 A  
HETATM   36  C   UNL     1     -12.411  10.978  70.007  1.00  0.00    -0.377 A  
HETATM   37  F   UNL     1     -13.303   9.597  71.700  1.00  0.00    -0.377 F  
HETATM   38  C   UNL     1     -11.302  11.403  69.268  1.00  0.00    -0.355 A  
HETATM   39  C   UNL     1     -11.019   9.373  71.165  1.00  0.00    -0.430 A  
HETATM   40  C   UNL     1      -9.913   9.787  70.415  1.00  0.00    -0.294 A  
HETATM   41  C   UNL     1     -12.252   9.975  70.962  1.00  0.00    -0.365 A  
ENDBRANCH  20  35
ENDBRANCH  17  18
ENDBRANCH   2  17
TORSDOF 6
ENDMDL
MODEL      221
REMARK 921   NORMALIZED FREE ENERGY PREDICTED BY IDOCK:   -4.99 KCAL/MOL
REMARK 922        TOTAL FREE ENERGY PREDICTED BY IDOCK:   -7.64 KCAL/MOL
REMARK 923 INTER-LIGAND FREE ENERGY PREDICTED BY IDOCK:   -6.13 KCAL/MOL
REMARK 924 INTRA-LIGAND FREE ENERGY PREDICTED BY IDOCK:   -1.51 KCAL/MOL
REMARK 927      BINDING AFFINITY PREDICTED BY RF-SCORE:    0.00 PKD
ROOT
HETATM    1  C   UNL     1     -10.522  11.411  64.700  1.00  0.00    -0.373 C  
HETATM    2  C   UNL     1     -11.132  11.424  66.095  1.00  0.00    -0.198 C  
ENDROOT
BRANCH   2   3
HETATM    3  C   UNL     1     -11.439  12.824  66.586  1.00  0.00    -0.404 A  
HETATM    4  F   UNL     1      -9.109  16.255  65.544  1.00  0.00    -0.269 F  
HETATM    5  F   UNL     1     -10.423  17.553  66.687  1.00  0.00    -0.315 F  
HETATM    6  C   UNL     1     -12.071  12.953  67.829  1.00  0.00    -0.218 A  
HETATM    7  C   UNL     1     -12.092  14.173  68.502  1.00  0.00    -0.312 A  
HETATM    8  F   UNL     1     -11.072  16.775  64.763  1.00  0.00    -0.443 F  
HETATM    9  C   UNL     1     -12.563  14.224  69.938  1.00  0.00    -0.165 C  
HETATM   10  C   UNL     1     -11.558  15.305  67.870  1.00  0.00    -0.301 A  
HETATM   11  C   UNL     1     -10.408  16.438  65.902  1.00  0.00    -0.362 C  
HETATM   12  C   UNL     1     -10.999  15.222  66.581  1.00  0.00    -0.297 A  
HETATM   13  F   UNL     1     -13.145  13.065  70.356  1.00  0.00    -0.062 F  
HETATM   14  F   UNL     1     -11.533  14.452  70.795  1.00  0.00    -0.318 F  
HETATM   15  C   UNL     1     -10.937  13.970  65.948  1.00  0.00    -0.286 A  
HETATM   16  F   UNL     1     -13.473  15.206  70.160  1.00  0.00    -0.143 F  
ENDBRANCH   2   3
BRANCH   2  17
HETATM   17  O   UNL     1     -10.279  10.738  67.027  1.00  0.00    -0.200 OA 
BRANCH  17  18
HETATM   18  C   UNL     1      -8.963  11.329  67.158  1.00  0.00    -0.155 C  
HETATM   19  N   UNL     1      -7.897   9.392  68.377  1.00  0.00    -0.090 NA 
HETATM   20  C   UNL     1      -7.789  10.255  67.171  1.00  0.00    -0.110 C  
HETATM   21  O   UNL     1      -8.867  12.152  68.333  1.00  0.00    -0.181 OA 
HETATM   22  C   UNL     1      -8.998  11.349  69.513  1.00  0.00     0.781 C  
HETATM   23  C   UNL     1      -7.924  10.257  69.581  1.00  0.00    -0.154 C  
BRANCH  19  24
HETATM   24  C   UNL     1      -6.945   8.277  68.521  1.00  0.00    -0.069 C  
BRANCH  24  25
HETATM   25  C   UNL     1      -7.574   6.952  68.912  1.00  0.00    -0.105 C  
HETATM   26  O   UNL     1      -7.684   3.402  66.865  1.00  0.00    -0.078 OA 
HETATM   27  O   UNL     1      -7.235   2.619  69.151  1.00  0.00    -0.044 OA 
HETATM   28  N   UNL     1      -7.736   6.585  70.159  1.00  0.00    -0.100 NA 
HETATM   29  O   UNL     1      -9.665   2.599  68.272  1.00  0.00    -0.130 OA 
HETATM   30  C   UNL     1      -8.200   5.290  70.095  1.00  0.00    -0.091 C  
HETATM   31  O   UNL     1      -8.254   4.504  71.031  1.00  0.00    -0.085 OA 
HETATM   32  P   UNL     1      -8.385   3.357  68.317  1.00  0.00    -0.089 P  
HETATM   33  N   UNL     1      -8.422   4.957  68.785  1.00  0.00    -0.086 N  
HETATM   34  N   UNL     1      -8.014   6.042  67.979  1.00  0.00    -0.108 NA 
ENDBRANCH  24  25
ENDBRANCH  19  24
BRANCH  20  35
HETATM   35  C   UNL     1      -7.738   9.539  65.824  1.00  0.00    -0.100 A  
HETATM   36  C   UNL     1      -8.505   7.721  64.385  1.00  0.00     0.128 A  
HETATM   37  F   UNL     1      -7.324   7.249  62.398  1.00  0.00    -0.072 F  
HETATM   38  C   UNL     1      -8.634   8.483  65.551  1.00  0.00    -0.204 A  
HETATM   39  C   UNL     1      -6.594   9.051  63.730  1.00  0.00    -0.089 A  
HETATM   40  C   UNL     1      -6.731   9.824  64.887  1.00  0.00    -0.112 A  
HETATM   41  C   UNL     1      -7.474   8.005  63.493  1.00  0.00    -0.122 A  
ENDBRANCH  20  35
ENDBRANCH  17  18
ENDBRANCH   2  17
TORSDOF 6
ENDMDL
MODEL      222
REMARK 921   NORMALIZED FREE ENERGY PREDICTED BY IDOCK:   -4.97 KCAL/MOL
REMARK 922        TOTAL FREE ENERGY PREDICTED BY IDOCK:   -7.62 KCAL/MOL
REMARK 923 INTER-LIGAND FREE ENERGY PREDICTED BY IDOCK:   -6.32 KCAL/MOL
REMARK 924 INTRA-LIGAND FREE ENERGY PREDICTED BY IDOCK:   -1.30 KCAL/MOL
REMARK 927      BINDING AFFINITY PREDICTED BY RF-SCORE:    0.00 PKD
ROOT
HETATM    1  C   UNL     1     -12.573  11.564  69.736  1.00  0.00    -0.006 C  
HETATM    2  C   UNL     1     -11.069  11.323  69.697  1.00  0.00    -0.206 C  
ENDROOT
BRANCH   2   3
HETATM    3  C   UNL     1     -10.401  11.997  68.517  1.00  0.00    -0.228 A  
HETATM    4  F   UNL     1     -11.922  11.823  64.524  1.00  0.00    -0.372 F  
HETATM    5  F   UNL     1     -10.304  13.079  63.802  1.00  0.00    -0.412 F  
HETATM    6  C   UNL     1      -9.010  12.158  68.562  1.00  0.00    -0.082 A  
HETATM    7  C   UNL     1      -8.282  12.454  67.412  1.00  0.00    -0.180 A  
HETATM    8  F   UNL     1     -11.939  13.960  64.932  1.00  0.00    -0.336 F  
HETATM    9  C   UNL     1      -6.773  12.380  67.445  1.00  0.00    -0.152 C  
HETATM   10  C   UNL     1      -8.974  12.693  66.214  1.00  0.00     0.018 A  
HETATM   11  C   UNL     1     -11.126  12.871  64.869  1.00  0.00    -0.297 C  
HETATM   12  C   UNL     1     -10.379  12.629  66.162  1.00  0.00    -0.273 A  
HETATM   13  F   UNL     1      -6.267  12.245  68.703  1.00  0.00    -0.058 F  
HETATM   14  F   UNL     1      -6.307  11.315  66.741  1.00  0.00    -0.088 F  
HETATM   15  C   UNL     1     -11.085  12.271  67.321  1.00  0.00    -0.326 A  
HETATM   16  F   UNL     1      -6.178  13.480  66.915  1.00  0.00     0.171 F  
ENDBRANCH   2   3
BRANCH   2  17
HETATM   17  O   UNL     1     -10.781   9.915  69.704  1.00  0.00    -0.221 OA 
BRANCH  17  18
HETATM   18  C   UNL     1     -10.614   9.360  71.032  1.00  0.00    -0.330 C  
HETATM   19  N   UNL     1     -11.206   6.981  70.425  1.00  0.00    -0.285 NA 
HETATM   20  C   UNL     1     -10.148   7.838  71.024  1.00  0.00    -0.185 C  
HETATM   21  O   UNL     1     -11.816   9.484  71.812  1.00  0.00    -0.377 OA 
HETATM   22  C   UNL     1     -12.863   8.691  71.241  1.00  0.00    -0.192 C  
HETATM   23  C   UNL     1     -12.474   7.210  71.158  1.00  0.00    -0.359 C  
BRANCH  19  24
HETATM   24  C   UNL     1     -10.921   5.546  70.252  1.00  0.00    -0.136 C  
BRANCH  24  25
HETATM   25  C   UNL     1     -10.319   5.177  68.908  1.00  0.00    -0.116 C  
HETATM   26  O   UNL     1      -8.955   7.599  65.896  1.00  0.00    -0.166 OA 
HETATM   27  O   UNL     1      -7.223   5.855  65.925  1.00  0.00    -0.072 OA 
HETATM   28  N   UNL     1      -9.678   4.053  68.704  1.00  0.00    -0.117 NA 
HETATM   29  O   UNL     1      -9.146   5.686  64.208  1.00  0.00     0.221 OA 
HETATM   30  C   UNL     1      -9.174   4.154  67.427  1.00  0.00    -0.157 C  
HETATM   31  O   UNL     1      -8.321   3.426  66.936  1.00  0.00    -0.096 OA 
HETATM   32  P   UNL     1      -8.784   6.021  65.612  1.00  0.00    -0.050 P  
HETATM   33  N   UNL     1      -9.642   5.304  66.849  1.00  0.00    -0.135 N  
HETATM   34  N   UNL     1     -10.404   6.002  67.811  1.00  0.00    -0.179 NA 
ENDBRANCH  24  25
ENDBRANCH  19  24
BRANCH  20  35
HETATM   35  C   UNL     1      -8.756   7.735  70.406  1.00  0.00    -0.139 A  
HETATM   36  C   UNL     1      -7.162   8.451  68.700  1.00  0.00    -0.080 A  
HETATM   37  F   UNL     1      -5.196   7.191  68.361  1.00  0.00    -0.016 F  
HETATM   38  C   UNL     1      -8.373   8.623  69.378  1.00  0.00    -0.114 A  
HETATM   39  C   UNL     1      -6.682   6.508  70.059  1.00  0.00    -0.049 A  
HETATM   40  C   UNL     1      -7.885   6.690  70.749  1.00  0.00    -0.105 A  
HETATM   41  C   UNL     1      -6.335   7.382  69.039  1.00  0.00    -0.039 A  
ENDBRANCH  20  35
ENDBRANCH  17  18
ENDBRANCH   2  17
TORSDOF 6
ENDMDL
MODEL      223
REMARK 921   NORMALIZED FREE ENERGY PREDICTED BY IDOCK:   -4.93 KCAL/MOL
REMARK 922        TOTAL FREE ENERGY PREDICTED BY IDOCK:   -7.56 KCAL/MOL
REMARK 923 INTER-LIGAND FREE ENERGY PREDICTED BY IDOCK:   -7.40 KCAL/MOL
REMARK 924 INTRA-LIGAND FREE ENERGY PREDICTED BY IDOCK:   -0.16 KCAL/MOL
REMARK 927      BINDING AFFINITY PREDICTED BY RF-SCORE:    0.00 PKD
ROOT
HETATM    1  C   UNL     1      -9.369  14.485  69.434  1.00  0.00     0.183 C  
HETATM    2  C   UNL     1      -8.587  14.799  68.164  1.00  0.00    -0.159 C  
ENDROOT
BRANCH   2   3
HETATM    3  C   UNL     1      -8.320  16.280  67.995  1.00  0.00    -0.165 A  
HETATM    4  F   UNL     1     -11.375  19.267  68.160  1.00  0.00    -0.080 F  
HETATM    5  F   UNL     1      -9.914  20.846  67.864  1.00  0.00    -0.502 F  
HETATM    6  C   UNL     1      -7.234  16.657  67.194  1.00  0.00    -0.219 A  
HETATM    7  C   UNL     1      -7.110  17.960  66.717  1.00  0.00    -0.230 A  
HETATM    8  F   UNL     1     -10.064  19.856  69.794  1.00  0.00    -0.465 F  
HETATM    9  C   UNL     1      -6.071  18.273  65.664  1.00  0.00    -0.241 C  
HETATM   10  C   UNL     1      -8.038  18.926  67.134  1.00  0.00    -0.277 A  
HETATM   11  C   UNL     1     -10.097  19.631  68.452  1.00  0.00    -0.449 C  
HETATM   12  C   UNL     1      -9.086  18.595  68.013  1.00  0.00    -0.327 A  
HETATM   13  F   UNL     1      -5.191  17.254  65.457  1.00  0.00    -0.124 F  
HETATM   14  F   UNL     1      -6.640  18.524  64.456  1.00  0.00    -0.072 F  
HETATM   15  C   UNL     1      -9.223  17.262  68.433  1.00  0.00    -0.268 A  
HETATM   16  F   UNL     1      -5.322  19.363  65.970  1.00  0.00    -0.153 F  
ENDBRANCH   2   3
BRANCH   2  17
HETATM   17  O   UNL     1      -9.263  14.272  67.010  1.00  0.00    -0.218 OA 
BRANCH  17  18
HETATM   18  C   UNL     1     -10.517  13.616  67.317  1.00  0.00    -0.260 C  
HETATM   19  N   UNL     1     -10.432  11.939  65.430  1.00  0.00    -0.259 NA 
HETATM   20  C   UNL     1     -10.539  12.078  66.907  1.00  0.00    -0.229 C  
HETATM   21  O   UNL     1     -11.630  14.286  66.701  1.00  0.00    -0.352 OA 
HETATM   22  C   UNL     1     -11.538  14.194  65.275  1.00  0.00    -0.341 C  
HETATM   23  C   UNL     1     -11.510  12.737  64.799  1.00  0.00    -0.317 C  
BRANCH  19  24
HETATM   24  C   UNL     1     -10.348  10.581  64.865  1.00  0.00    -0.237 C  
BRANCH  24  25
HETATM   25  C   UNL     1      -8.944  10.010  64.791  1.00  0.00    -0.212 C  
HETATM   26  O   UNL     1      -7.670   6.357  63.439  1.00  0.00    -0.091 OA 
HETATM   27  O   UNL     1      -5.943   7.838  62.507  1.00  0.00    -0.066 OA 
HETATM   28  N   UNL     1      -7.879  10.763  64.673  1.00  0.00     0.102 NA 
HETATM   29  O   UNL     1      -5.470   6.596  64.723  1.00  0.00    -0.025 OA 
HETATM   30  C   UNL     1      -6.834   9.883  64.502  1.00  0.00    -0.124 C  
HETATM   31  O   UNL     1      -5.708  10.176  64.121  1.00  0.00    -0.109 OA 
HETATM   32  P   UNL     1      -6.486   7.337  63.927  1.00  0.00    -0.045 P  
HETATM   33  N   UNL     1      -7.297   8.602  64.650  1.00  0.00    -0.092 N  
HETATM   34  N   UNL     1      -8.694   8.659  64.843  1.00  0.00    -0.139 NA 
ENDBRANCH  24  25
ENDBRANCH  19  24
BRANCH  20  35
HETATM   35  C   UNL     1      -9.511  11.314  67.739  1.00  0.00    -0.173 A  
HETATM   36  C   UNL     1      -7.242  11.143  68.626  1.00  0.00    -0.098 A  
HETATM   37  F   UNL     1      -6.523   9.099  69.559  1.00  0.00    -0.041 F  
HETATM   38  C   UNL     1      -8.246  11.885  67.995  1.00  0.00    -0.157 A  
HETATM   39  C   UNL     1      -8.739   9.248  68.771  1.00  0.00    -0.132 A  
HETATM   40  C   UNL     1      -9.748   9.994  68.154  1.00  0.00    -0.156 A  
HETATM   41  C   UNL     1      -7.496   9.824  68.994  1.00  0.00    -0.080 A  
ENDBRANCH  20  35
ENDBRANCH  17  18
ENDBRANCH   2  17
TORSDOF 6
ENDMDL
MODEL      224
REMARK 921   NORMALIZED FREE ENERGY PREDICTED BY IDOCK:   -4.92 KCAL/MOL
REMARK 922        TOTAL FREE ENERGY PREDICTED BY IDOCK:   -7.55 KCAL/MOL
REMARK 923 INTER-LIGAND FREE ENERGY PREDICTED BY IDOCK:   -8.07 KCAL/MOL
REMARK 924 INTRA-LIGAND FREE ENERGY PREDICTED BY IDOCK:    0.52 KCAL/MOL
REMARK 927      BINDING AFFINITY PREDICTED BY RF-SCORE:    0.00 PKD
ROOT
HETATM    1  C   UNL     1     -11.195   9.708  70.114  1.00  0.00    -0.302 C  
HETATM    2  C   UNL     1      -9.963   8.973  69.602  1.00  0.00    -0.192 C  
ENDROOT
BRANCH   2   3
HETATM    3  C   UNL     1      -9.453   7.937  70.582  1.00  0.00    -0.162 A  
HETATM    4  F   UNL     1     -11.984   5.140  72.597  1.00  0.00    -0.278 F  
HETATM    5  F   UNL     1     -10.277   4.237  73.589  1.00  0.00    -0.155 F  
HETATM    6  C   UNL     1      -8.296   8.245  71.310  1.00  0.00    -0.156 A  
HETATM    7  C   UNL     1      -7.947   7.520  72.447  1.00  0.00    -0.118 A  
HETATM    8  F   UNL     1     -10.645   3.834  71.485  1.00  0.00    -0.076 F  
HETATM    9  C   UNL     1      -6.839   8.025  73.343  1.00  0.00    -0.101 C  
HETATM   10  C   UNL     1      -8.718   6.402  72.802  1.00  0.00    -0.125 A  
HETATM   11  C   UNL     1     -10.674   4.820  72.423  1.00  0.00    -0.149 C  
HETATM   12  C   UNL     1      -9.832   6.015  72.035  1.00  0.00    -0.177 A  
HETATM   13  F   UNL     1      -6.130   9.052  72.796  1.00  0.00    -0.093 F  
HETATM   14  F   UNL     1      -7.322   8.494  74.523  1.00  0.00    -0.212 F  
HETATM   15  C   UNL     1     -10.197   6.797  70.927  1.00  0.00    -0.215 A  
HETATM   16  F   UNL     1      -5.932   7.064  73.654  1.00  0.00    -0.056 F  
ENDBRANCH   2   3
BRANCH   2  17
HETATM   17  O   UNL     1      -8.921   9.904  69.263  1.00  0.00    -0.154 OA 
BRANCH  17  18
HETATM   18  C   UNL     1      -8.532   9.860  67.869  1.00  0.00    -0.121 C  
HETATM   19  N   UNL     1     -10.052  11.719  67.088  1.00  0.00    -0.202 NA 
HETATM   20  C   UNL     1      -8.635  11.273  67.142  1.00  0.00    -0.147 C  
HETATM   21  O   UNL     1      -9.300   8.892  67.134  1.00  0.00    -0.138 OA 
HETATM   22  C   UNL     1     -10.678   9.281  67.090  1.00  0.00    -0.152 C  
HETATM   23  C   UNL     1     -10.860  10.658  66.440  1.00  0.00    -0.062 C  
BRANCH  19  24
HETATM   24  C   UNL     1     -10.340  13.051  66.527  1.00  0.00    -0.274 C  
BRANCH  24  25
HETATM   25  C   UNL     1     -10.952  14.034  67.507  1.00  0.00    -0.277 C  
HETATM   26  O   UNL     1     -12.709  13.351  71.147  1.00  0.00    -0.348 OA 
HETATM   27  O   UNL     1     -11.390  15.369  71.626  1.00  0.00    -0.385 OA 
HETATM   28  N   UNL     1     -10.571  15.284  67.587  1.00  0.00    -0.264 NA 
HETATM   29  O   UNL     1     -13.896  15.615  71.051  1.00  0.00    -0.567 OA 
HETATM   30  C   UNL     1     -11.250  15.799  68.668  1.00  0.00    -0.351 C  
HETATM   31  O   UNL     1     -11.005  16.859  69.228  1.00  0.00    -0.264 OA 
HETATM   32  P   UNL     1     -12.630  14.905  70.726  1.00  0.00    -0.398 P  
HETATM   33  N   UNL     1     -12.128  14.857  69.136  1.00  0.00    -0.267 N  
HETATM   34  N   UNL     1     -11.950  13.676  68.383  1.00  0.00    -0.367 NA 
ENDBRANCH  24  25
ENDBRANCH  19  24
BRANCH  20  35
HETATM   35  C   UNL     1      -7.638  12.243  67.772  1.00  0.00    -0.131 A  
HETATM   36  C   UNL     1      -6.222  12.859  69.663  1.00  0.00    -0.114 A  
HETATM   37  F   UNL     1      -5.318  15.036  69.763  1.00  0.00    -0.094 F  
HETATM   38  C   UNL     1      -7.020  11.922  69.000  1.00  0.00    -0.098 A  
HETATM   39  C   UNL     1      -6.628  14.455  67.892  1.00  0.00    -0.179 A  
HETATM   40  C   UNL     1      -7.414  13.514  67.220  1.00  0.00    -0.056 A  
HETATM   41  C   UNL     1      -6.047  14.124  69.108  1.00  0.00    -0.097 A  
ENDBRANCH  20  35
ENDBRANCH  17  18
ENDBRANCH   2  17
TORSDOF 6
ENDMDL
MODEL      225
REMARK 921   NORMALIZED FREE ENERGY PREDICTED BY IDOCK:   -4.89 KCAL/MOL
REMARK 922        TOTAL FREE ENERGY PREDICTED BY IDOCK:   -7.51 KCAL/MOL
REMARK 923 INTER-LIGAND FREE ENERGY PREDICTED BY IDOCK:   -5.43 KCAL/MOL
REMARK 924 INTRA-LIGAND FREE ENERGY PREDICTED BY IDOCK:   -2.08 KCAL/MOL
REMARK 927      BINDING AFFINITY PREDICTED BY RF-SCORE:    0.00 PKD
ROOT
HETATM    1  C   UNL     1     -13.488   7.764  72.150  1.00  0.00    -0.138 C  
HETATM    2  C   UNL     1     -12.081   8.347  72.132  1.00  0.00    -0.373 C  
ENDROOT
BRANCH   2   3
HETATM    3  C   UNL     1     -11.959   9.549  71.218  1.00  0.00    -0.445 A  
HETATM    4  F   UNL     1      -8.359  10.597  69.161  1.00  0.00    -0.132 F  
HETATM    5  F   UNL     1      -9.335  12.294  68.221  1.00  0.00    -0.188 F  
HETATM    6  C   UNL     1     -12.773  10.656  71.488  1.00  0.00    -0.549 A  
HETATM    7  C   UNL     1     -12.503  11.901  70.925  1.00  0.00    -0.397 A  
HETATM    8  F   UNL     1      -9.753  10.279  67.521  1.00  0.00    -0.172 F  
HETATM    9  C   UNL     1     -13.245  13.121  71.423  1.00  0.00    -0.207 C  
HETATM   10  C   UNL     1     -11.458  12.014  69.996  1.00  0.00    -0.183 A  
HETATM   11  C   UNL     1      -9.546  11.017  68.645  1.00  0.00    -0.195 C  
HETATM   12  C   UNL     1     -10.683  10.896  69.636  1.00  0.00    -0.232 A  
HETATM   13  F   UNL     1     -14.292  12.819  72.240  1.00  0.00    -0.322 F  
HETATM   14  F   UNL     1     -12.436  13.941  72.144  1.00  0.00    -0.352 F  
HETATM   15  C   UNL     1     -10.937   9.665  70.261  1.00  0.00    -0.337 A  
HETATM   16  F   UNL     1     -13.757  13.875  70.416  1.00  0.00     0.055 F  
ENDBRANCH   2   3
BRANCH   2  17
HETATM   17  O   UNL     1     -11.119   7.340  71.773  1.00  0.00    -0.230 OA 
BRANCH  17  18
HETATM   18  C   UNL     1     -10.690   6.521  72.888  1.00  0.00    -0.251 C  
HETATM   19  N   UNL     1      -9.204   4.976  71.553  1.00  0.00    -0.143 NA 
HETATM   20  C   UNL     1      -9.228   5.920  72.701  1.00  0.00    -0.137 C  
HETATM   21  O   UNL     1     -11.614   5.449  73.144  1.00  0.00    -0.270 OA 
HETATM   22  C   UNL     1     -11.634   4.537  72.039  1.00  0.00     1.139 C  
HETATM   23  C   UNL     1     -10.247   3.944  71.765  1.00  0.00    -0.046 C  
BRANCH  19  24
HETATM   24  C   UNL     1      -7.912   4.382  71.168  1.00  0.00    -0.081 C  
BRANCH  24  25
HETATM   25  C   UNL     1      -7.528   4.586  69.714  1.00  0.00    -0.051 C  
HETATM   26  O   UNL     1      -7.807   7.942  67.378  1.00  0.00    -0.116 OA 
HETATM   27  O   UNL     1      -5.608   7.074  66.704  1.00  0.00    -0.021 OA 
HETATM   28  N   UNL     1      -6.591   3.885  69.125  1.00  0.00    -0.039 NA 
HETATM   29  O   UNL     1      -7.672   6.528  65.249  1.00  0.00    -0.089 OA 
HETATM   30  C   UNL     1      -6.449   4.454  67.878  1.00  0.00    -0.038 C  
HETATM   31  O   UNL     1      -5.523   4.253  67.104  1.00  0.00    -0.012 OA 
HETATM   32  P   UNL     1      -7.154   6.667  66.638  1.00  0.00    -0.070 P  
HETATM   33  N   UNL     1      -7.409   5.416  67.712  1.00  0.00    -0.072 N  
HETATM   34  N   UNL     1      -8.138   5.524  68.915  1.00  0.00    -0.095 NA 
ENDBRANCH  24  25
ENDBRANCH  19  24
BRANCH  20  35
HETATM   35  C   UNL     1      -8.210   7.058  72.668  1.00  0.00    -0.117 A  
HETATM   36  C   UNL     1      -6.962   8.718  71.384  1.00  0.00    -0.093 A  
HETATM   37  F   UNL     1      -5.129   9.811  72.390  1.00  0.00    -0.069 F  
HETATM   38  C   UNL     1      -7.991   7.775  71.473  1.00  0.00    -0.097 A  
HETATM   39  C   UNL     1      -6.351   8.262  73.679  1.00  0.00    -0.128 A  
HETATM   40  C   UNL     1      -7.389   7.331  73.774  1.00  0.00    -0.104 A  
HETATM   41  C   UNL     1      -6.141   8.940  72.487  1.00  0.00    -0.031 A  
ENDBRANCH  20  35
ENDBRANCH  17  18
ENDBRANCH   2  17
TORSDOF 6
ENDMDL
MODEL      226
REMARK 921   NORMALIZED FREE ENERGY PREDICTED BY IDOCK:   -4.81 KCAL/MOL
REMARK 922        TOTAL FREE ENERGY PREDICTED BY IDOCK:   -7.40 KCAL/MOL
REMARK 923 INTER-LIGAND FREE ENERGY PREDICTED BY IDOCK:   -8.29 KCAL/MOL
REMARK 924 INTRA-LIGAND FREE ENERGY PREDICTED BY IDOCK:    0.89 KCAL/MOL
REMARK 927      BINDING AFFINITY PREDICTED BY RF-SCORE:    0.00 PKD
ROOT
HETATM    1  C   UNL     1      -9.831   9.193  66.450  1.00  0.00    -0.350 C  
HETATM    2  C   UNL     1     -10.350   9.994  67.637  1.00  0.00    -0.224 C  
ENDROOT
BRANCH   2   3
HETATM    3  C   UNL     1     -11.130  11.222  67.216  1.00  0.00    -0.367 A  
HETATM    4  F   UNL     1     -11.317  12.634  63.183  1.00  0.00    -0.517 F  
HETATM    5  F   UNL     1     -12.638  14.258  63.763  1.00  0.00    -0.438 F  
HETATM    6  C   UNL     1     -11.289  12.246  68.158  1.00  0.00    -0.349 A  
HETATM    7  C   UNL     1     -11.690  13.523  67.772  1.00  0.00    -0.394 A  
HETATM    8  F   UNL     1     -13.408  12.229  63.629  1.00  0.00    -0.340 F  
HETATM    9  C   UNL     1     -11.617  14.660  68.766  1.00  0.00    -0.317 C  
HETATM   10  C   UNL     1     -12.036  13.749  66.431  1.00  0.00    -0.473 A  
HETATM   11  C   UNL     1     -12.331  12.957  64.031  1.00  0.00    -0.380 C  
HETATM   12  C   UNL     1     -11.974  12.713  65.480  1.00  0.00    -0.509 A  
HETATM   13  F   UNL     1     -11.368  14.247  70.040  1.00  0.00    -0.284 F  
HETATM   14  F   UNL     1     -10.621  15.532  68.457  1.00  0.00    -0.226 F  
HETATM   15  C   UNL     1     -11.510  11.451  65.883  1.00  0.00     0.027 A  
HETATM   16  F   UNL     1     -12.761  15.388  68.821  1.00  0.00     0.030 F  
ENDBRANCH   2   3
BRANCH   2  17
HETATM   17  O   UNL     1      -9.270  10.358  68.513  1.00  0.00    -0.134 OA 
BRANCH  17  18
HETATM   18  C   UNL     1      -7.959  10.029  67.992  1.00  0.00    -0.101 C  
HETATM   19  N   UNL     1      -6.711  11.890  69.157  1.00  0.00    -0.101 NA 
HETATM   20  C   UNL     1      -6.773  10.414  68.981  1.00  0.00    -0.061 C  
HETATM   21  O   UNL     1      -7.729  10.644  66.713  1.00  0.00    -0.116 OA 
HETATM   22  C   UNL     1      -7.693  12.070  66.847  1.00  0.00    -0.078 C  
HETATM   23  C   UNL     1      -6.600  12.523  67.821  1.00  0.00    -0.121 C  
BRANCH  19  24
HETATM   24  C   UNL     1      -5.728  12.435  70.110  1.00  0.00    -0.157 C  
BRANCH  24  25
HETATM   25  C   UNL     1      -5.491  13.929  69.992  1.00  0.00    -0.106 C  
HETATM   26  O   UNL     1      -7.066  16.628  67.339  1.00  0.00    -0.135 OA 
HETATM   27  O   UNL     1      -7.158  17.910  69.434  1.00  0.00    -0.167 OA 
HETATM   28  N   UNL     1      -5.150  14.675  71.013  1.00  0.00    -0.121 NA 
HETATM   29  O   UNL     1      -5.173  18.279  67.823  1.00  0.00    -0.152 OA 
HETATM   30  C   UNL     1      -5.168  15.966  70.536  1.00  0.00    -0.169 C  
HETATM   31  O   UNL     1      -5.141  16.981  71.221  1.00  0.00    -0.363 OA 
HETATM   32  P   UNL     1      -6.079  17.272  68.439  1.00  0.00    -0.158 P  
HETATM   33  N   UNL     1      -5.403  15.944  69.187  1.00  0.00    -0.108 N  
HETATM   34  N   UNL     1      -5.622  14.604  68.801  1.00  0.00    -0.084 NA 
ENDBRANCH  24  25
ENDBRANCH  19  24
BRANCH  20  35
HETATM   35  C   UNL     1      -6.882   9.580  70.256  1.00  0.00    -0.092 A  
HETATM   36  C   UNL     1      -8.265   8.647  72.038  1.00  0.00    -0.149 A  
HETATM   37  F   UNL     1      -7.221   7.753  73.956  1.00  0.00    -0.112 F  
HETATM   38  C   UNL     1      -8.150   9.280  70.797  1.00  0.00    -0.194 A  
HETATM   39  C   UNL     1      -5.854   8.587  72.227  1.00  0.00    -0.061 A  
HETATM   40  C   UNL     1      -5.738   9.206  70.979  1.00  0.00    -0.047 A  
HETATM   41  C   UNL     1      -7.112   8.321  72.748  1.00  0.00    -0.098 A  
ENDBRANCH  20  35
ENDBRANCH  17  18
ENDBRANCH   2  17
TORSDOF 6
ENDMDL
MODEL      227
REMARK 921   NORMALIZED FREE ENERGY PREDICTED BY IDOCK:   -4.76 KCAL/MOL
REMARK 922        TOTAL FREE ENERGY PREDICTED BY IDOCK:   -7.33 KCAL/MOL
REMARK 923 INTER-LIGAND FREE ENERGY PREDICTED BY IDOCK:   -6.47 KCAL/MOL
REMARK 924 INTRA-LIGAND FREE ENERGY PREDICTED BY IDOCK:   -0.86 KCAL/MOL
REMARK 927      BINDING AFFINITY PREDICTED BY RF-SCORE:    0.00 PKD
ROOT
HETATM    1  C   UNL     1      -9.839  10.898  69.093  1.00  0.00    -0.164 C  
HETATM    2  C   UNL     1      -8.753  11.360  68.130  1.00  0.00    -0.154 C  
ENDROOT
BRANCH   2   3
HETATM    3  C   UNL     1      -9.239  12.425  67.169  1.00  0.00    -0.199 A  
HETATM    4  F   UNL     1      -9.901  16.497  68.295  1.00  0.00    -0.223 F  
HETATM    5  F   UNL     1     -10.475  17.014  66.265  1.00  0.00    -0.305 F  
HETATM    6  C   UNL     1     -10.050  12.017  66.103  1.00  0.00    -0.252 A  
HETATM    7  C   UNL     1     -10.803  12.939  65.378  1.00  0.00    -0.307 A  
HETATM    8  F   UNL     1      -8.381  16.686  66.750  1.00  0.00    -0.187 F  
HETATM    9  C   UNL     1     -11.846  12.446  64.401  1.00  0.00    -0.389 C  
HETATM   10  C   UNL     1     -10.661  14.305  65.663  1.00  0.00    -0.328 A  
HETATM   11  C   UNL     1      -9.637  16.220  66.989  1.00  0.00    -0.231 C  
HETATM   12  C   UNL     1      -9.782  14.749  66.669  1.00  0.00    -0.281 A  
HETATM   13  F   UNL     1     -11.776  11.105  64.168  1.00  0.00    -0.257 F  
HETATM   14  F   UNL     1     -13.106  12.678  64.855  1.00  0.00    -0.539 F  
HETATM   15  C   UNL     1      -9.079  13.797  67.424  1.00  0.00    -0.221 A  
HETATM   16  F   UNL     1     -11.759  13.046  63.187  1.00  0.00    -0.548 F  
ENDBRANCH   2   3
BRANCH   2  17
HETATM   17  O   UNL     1      -8.205  10.243  67.410  1.00  0.00    -0.114 OA 
BRANCH  17  18
HETATM   18  C   UNL     1      -6.806  10.399  67.067  1.00  0.00    -0.085 C  
HETATM   19  N   UNL     1      -5.957   8.455  68.437  1.00  0.00    -0.041 NA 
HETATM   20  C   UNL     1      -6.002   9.025  67.064  1.00  0.00    -0.057 C  
HETATM   21  O   UNL     1      -6.148  11.332  67.941  1.00  0.00    -0.049 OA 
HETATM   22  C   UNL     1      -6.116  10.821  69.279  1.00  0.00    -0.045 C  
HETATM   23  C   UNL     1      -5.392   9.471  69.356  1.00  0.00    -0.035 C  
BRANCH  19  24
HETATM   24  C   UNL     1      -5.327   7.135  68.620  1.00  0.00    -0.018 C  
BRANCH  24  25
HETATM   25  C   UNL     1      -6.145   6.149  69.432  1.00  0.00    -0.029 C  
HETATM   26  O   UNL     1      -9.679   6.700  71.433  1.00  0.00    -0.172 OA 
HETATM   27  O   UNL     1     -10.050   4.496  70.411  1.00  0.00    -0.224 OA 
HETATM   28  N   UNL     1      -6.123   4.858  69.210  1.00  0.00    -0.024 NA 
HETATM   29  O   UNL     1      -9.248   4.623  72.863  1.00  0.00    -0.123 OA 
HETATM   30  C   UNL     1      -7.085   4.334  70.044  1.00  0.00    -0.042 C  
HETATM   31  O   UNL     1      -7.547   3.202  69.979  1.00  0.00    -0.044 OA 
HETATM   32  P   UNL     1      -9.105   5.195  71.497  1.00  0.00    -0.148 P  
HETATM   33  N   UNL     1      -7.576   5.330  70.846  1.00  0.00    -0.085 N  
HETATM   34  N   UNL     1      -6.969   6.545  70.460  1.00  0.00    -0.062 NA 
ENDBRANCH  24  25
ENDBRANCH  19  24
BRANCH  20  35
HETATM   35  C   UNL     1      -6.550   8.117  65.966  1.00  0.00    -0.046 A  
HETATM   36  C   UNL     1      -8.048   6.309  65.295  1.00  0.00    -0.132 A  
HETATM   37  F   UNL     1      -7.751   5.292  63.187  1.00  0.00    -0.059 F  
HETATM   38  C   UNL     1      -7.631   7.251  66.240  1.00  0.00    -0.092 A  
HETATM   39  C   UNL     1      -6.329   7.076  63.776  1.00  0.00    -0.043 A  
HETATM   40  C   UNL     1      -5.920   8.029  64.715  1.00  0.00    -0.045 A  
HETATM   41  C   UNL     1      -7.380   6.222  64.076  1.00  0.00    -0.072 A  
ENDBRANCH  20  35
ENDBRANCH  17  18
ENDBRANCH   2  17
TORSDOF 6
ENDMDL
MODEL      228
REMARK 921   NORMALIZED FREE ENERGY PREDICTED BY IDOCK:   -4.75 KCAL/MOL
REMARK 922        TOTAL FREE ENERGY PREDICTED BY IDOCK:   -7.32 KCAL/MOL
REMARK 923 INTER-LIGAND FREE ENERGY PREDICTED BY IDOCK:   -5.52 KCAL/MOL
REMARK 924 INTRA-LIGAND FREE ENERGY PREDICTED BY IDOCK:   -1.80 KCAL/MOL
REMARK 927      BINDING AFFINITY PREDICTED BY RF-SCORE:    0.00 PKD
ROOT
HETATM    1  C   UNL     1      -9.785   4.177  68.873  1.00  0.00    -0.176 C  
HETATM    2  C   UNL     1      -9.253   5.427  68.185  1.00  0.00    -0.111 C  
ENDROOT
BRANCH   2   3
HETATM    3  C   UNL     1      -8.826   5.169  66.754  1.00  0.00    -0.110 A  
HETATM    4  F   UNL     1      -6.139   2.043  65.618  1.00  0.00    -0.019 F  
HETATM    5  F   UNL     1      -6.318   2.586  63.523  1.00  0.00    -0.016 F  
HETATM    6  C   UNL     1      -8.789   6.263  65.880  1.00  0.00    -0.148 A  
HETATM    7  C   UNL     1      -8.106   6.191  64.667  1.00  0.00    -0.126 A  
HETATM    8  F   UNL     1      -7.941   1.529  64.511  1.00  0.00    -0.061 F  
HETATM    9  C   UNL     1      -7.878   7.452  63.864  1.00  0.00    -0.117 C  
HETATM   10  C   UNL     1      -7.538   4.968  64.280  1.00  0.00    -0.074 A  
HETATM   11  C   UNL     1      -7.017   2.512  64.690  1.00  0.00    -0.048 C  
HETATM   12  C   UNL     1      -7.641   3.828  65.098  1.00  0.00    -0.081 A  
HETATM   13  F   UNL     1      -8.586   8.520  64.326  1.00  0.00    -0.168 F  
HETATM   14  F   UNL     1      -6.574   7.832  63.888  1.00  0.00    -0.057 F  
HETATM   15  C   UNL     1      -8.283   3.942  66.342  1.00  0.00    -0.104 A  
HETATM   16  F   UNL     1      -8.214   7.313  62.556  1.00  0.00    -0.132 F  
ENDBRANCH   2   3
BRANCH   2  17
HETATM   17  O   UNL     1      -8.171   5.999  68.939  1.00  0.00    -0.103 OA 
BRANCH  17  18
HETATM   18  C   UNL     1      -8.297   5.817  70.370  1.00  0.00    -0.121 C  
HETATM   19  N   UNL     1      -6.805   7.742  71.038  1.00  0.00    -0.045 NA 
HETATM   20  C   UNL     1      -8.171   7.175  71.191  1.00  0.00    -0.112 C  
HETATM   21  O   UNL     1      -7.338   4.870  70.870  1.00  0.00    -0.060 OA 
HETATM   22  C   UNL     1      -6.008   5.378  70.708  1.00  0.00    -0.021 C  
HETATM   23  C   UNL     1      -5.816   6.713  71.438  1.00  0.00    -0.036 C  
BRANCH  19  24
HETATM   24  C   UNL     1      -6.522   9.048  71.657  1.00  0.00    -0.053 C  
BRANCH  24  25
HETATM   25  C   UNL     1      -6.077  10.127  70.687  1.00  0.00    -0.106 C  
HETATM   26  O   UNL     1      -7.232  10.803  66.813  1.00  0.00    -0.113 OA 
HETATM   27  O   UNL     1      -7.164  13.096  67.696  1.00  0.00    -0.130 OA 
HETATM   28  N   UNL     1      -5.645  11.299  71.081  1.00  0.00    -0.347 NA 
HETATM   29  O   UNL     1      -5.131  12.197  66.380  1.00  0.00    -0.320 OA 
HETATM   30  C   UNL     1      -5.477  12.028  69.925  1.00  0.00    -0.098 C  
HETATM   31  O   UNL     1      -5.315  13.239  69.861  1.00  0.00    -0.084 OA 
HETATM   32  P   UNL     1      -6.175  11.875  67.390  1.00  0.00    -0.152 P  
HETATM   33  N   UNL     1      -5.700  11.214  68.846  1.00  0.00    -0.040 N  
HETATM   34  N   UNL     1      -6.100   9.948  69.324  1.00  0.00    -0.040 NA 
ENDBRANCH  24  25
ENDBRANCH  19  24
BRANCH  20  35
HETATM   35  C   UNL     1      -9.335   8.096  70.833  1.00  0.00    -0.173 A  
HETATM   36  C   UNL     1     -10.332   9.717  69.303  1.00  0.00    -0.223 A  
HETATM   37  F   UNL     1     -12.200  10.972  70.013  1.00  0.00    -0.329 F  
HETATM   38  C   UNL     1      -9.355   8.758  69.587  1.00  0.00    -0.158 A  
HETATM   39  C   UNL     1     -11.302   9.372  71.492  1.00  0.00    -0.464 A  
HETATM   40  C   UNL     1     -10.334   8.402  71.771  1.00  0.00    -0.333 A  
HETATM   41  C   UNL     1     -11.289  10.024  70.268  1.00  0.00    -0.308 A  
ENDBRANCH  20  35
ENDBRANCH  17  18
ENDBRANCH   2  17
TORSDOF 6
ENDMDL
MODEL      229
REMARK 921   NORMALIZED FREE ENERGY PREDICTED BY IDOCK:   -4.67 KCAL/MOL
REMARK 922        TOTAL FREE ENERGY PREDICTED BY IDOCK:   -7.21 KCAL/MOL
REMARK 923 INTER-LIGAND FREE ENERGY PREDICTED BY IDOCK:   -4.72 KCAL/MOL
REMARK 924 INTRA-LIGAND FREE ENERGY PREDICTED BY IDOCK:   -2.49 KCAL/MOL
REMARK 927      BINDING AFFINITY PREDICTED BY RF-SCORE:    0.00 PKD
ROOT
HETATM    1  C   UNL     1     -13.512   6.516  72.375  1.00  0.00     0.363 C  
HETATM    2  C   UNL     1     -12.059   6.858  72.070  1.00  0.00    -0.296 C  
ENDROOT
BRANCH   2   3
HETATM    3  C   UNL     1     -11.899   7.625  70.774  1.00  0.00    -0.227 A  
HETATM    4  F   UNL     1      -9.299   6.398  67.608  1.00  0.00    -0.121 F  
HETATM    5  F   UNL     1      -9.907   8.090  66.389  1.00  0.00    -0.273 F  
HETATM    6  C   UNL     1     -12.094   9.011  70.811  1.00  0.00    -0.169 A  
HETATM    7  C   UNL     1     -11.653   9.828  69.772  1.00  0.00    -0.081 A  
HETATM    8  F   UNL     1     -11.246   6.394  66.635  1.00  0.00    -0.423 F  
HETATM    9  C   UNL     1     -11.657  11.329  69.950  1.00  0.00    -0.334 C  
HETATM   10  C   UNL     1     -11.098   9.231  68.629  1.00  0.00     0.065 A  
HETATM   11  C   UNL     1     -10.365   7.188  67.303  1.00  0.00    -0.272 C  
HETATM   12  C   UNL     1     -10.976   7.833  68.527  1.00  0.00     0.131 A  
HETATM   13  F   UNL     1     -12.325  11.738  71.064  1.00  0.00    -0.434 F  
HETATM   14  F   UNL     1     -10.397  11.823  70.070  1.00  0.00     0.336 F  
HETATM   15  C   UNL     1     -11.373   7.036  69.612  1.00  0.00    -0.181 A  
HETATM   16  F   UNL     1     -12.228  11.983  68.906  1.00  0.00    -0.327 F  
ENDBRANCH   2   3
BRANCH   2  17
HETATM   17  O   UNL     1     -11.251   5.668  72.056  1.00  0.00    -0.257 OA 
BRANCH  17  18
HETATM   18  C   UNL     1     -10.462   5.486  73.257  1.00  0.00    -0.225 C  
HETATM   19  N   UNL     1      -8.699   4.005  72.219  1.00  0.00    -0.105 NA 
HETATM   20  C   UNL     1      -8.912   5.274  72.965  1.00  0.00    -0.119 C  
HETATM   21  O   UNL     1     -10.949   4.389  74.049  1.00  0.00    -0.263 OA 
HETATM   22  C   UNL     1     -10.784   3.154  73.342  1.00  0.00    -0.201 C  
HETATM   23  C   UNL     1      -9.316   2.895  72.984  1.00  0.00    -0.090 C  
BRANCH  19  24
HETATM   24  C   UNL     1      -7.331   3.678  71.780  1.00  0.00    -0.051 C  
BRANCH  24  25
HETATM   25  C   UNL     1      -7.246   2.977  70.436  1.00  0.00    -0.037 C  
HETATM   26  O   UNL     1      -9.086   3.887  66.889  1.00  0.00    -0.128 OA 
HETATM   27  O   UNL     1      -6.830   3.291  66.116  1.00  0.00    -0.050 OA 
HETATM   28  N   UNL     1      -6.198   2.286  70.064  1.00  0.00    -0.024 NA 
HETATM   29  O   UNL     1      -8.699   1.510  66.025  1.00  0.00    -0.107 OA 
HETATM   30  C   UNL     1      -6.447   1.935  68.756  1.00  0.00    -0.029 C  
HETATM   31  O   UNL     1      -5.624   1.490  67.967  1.00  0.00    -0.017 OA 
HETATM   32  P   UNL     1      -8.098   2.614  66.820  1.00  0.00    -0.087 P  
HETATM   33  N   UNL     1      -7.715   2.329  68.418  1.00  0.00    -0.054 N  
HETATM   34  N   UNL     1      -8.267   3.023  69.516  1.00  0.00    -0.050 NA 
ENDBRANCH  24  25
ENDBRANCH  19  24
BRANCH  20  35
HETATM   35  C   UNL     1      -8.334   6.539  72.335  1.00  0.00    -0.108 A  
HETATM   36  C   UNL     1      -7.629   7.752  70.336  1.00  0.00    -0.087 A  
HETATM   37  F   UNL     1      -6.342   9.715  70.575  1.00  0.00    -0.051 F  
HETATM   38  C   UNL     1      -8.286   6.670  70.930  1.00  0.00    -0.125 A  
HETATM   39  C   UNL     1      -7.060   8.605  72.527  1.00  0.00    -0.012 A  
HETATM   40  C   UNL     1      -7.730   7.532  73.122  1.00  0.00    -0.123 A  
HETATM   41  C   UNL     1      -7.008   8.701  71.143  1.00  0.00    -0.078 A  
ENDBRANCH  20  35
ENDBRANCH  17  18
ENDBRANCH   2  17
TORSDOF 6
ENDMDL
MODEL      230
REMARK 921   NORMALIZED FREE ENERGY PREDICTED BY IDOCK:   -4.57 KCAL/MOL
REMARK 922        TOTAL FREE ENERGY PREDICTED BY IDOCK:   -7.08 KCAL/MOL
REMARK 923 INTER-LIGAND FREE ENERGY PREDICTED BY IDOCK:   -6.64 KCAL/MOL
REMARK 924 INTRA-LIGAND FREE ENERGY PREDICTED BY IDOCK:   -0.44 KCAL/MOL
REMARK 927      BINDING AFFINITY PREDICTED BY RF-SCORE:    0.00 PKD
ROOT
HETATM    1  C   UNL     1     -10.537   7.452  67.839  1.00  0.00    -0.255 C  
HETATM    2  C   UNL     1      -9.380   8.129  68.563  1.00  0.00    -0.138 C  
ENDROOT
BRANCH   2   3
HETATM    3  C   UNL     1      -9.031   7.446  69.869  1.00  0.00    -0.141 A  
HETATM    4  F   UNL     1      -5.526   8.353  72.146  1.00  0.00    -0.035 F  
HETATM    5  F   UNL     1      -6.091   6.918  73.675  1.00  0.00    -0.059 F  
HETATM    6  C   UNL     1      -9.472   6.130  70.053  1.00  0.00    -0.172 A  
HETATM    7  C   UNL     1      -8.931   5.322  71.050  1.00  0.00    -0.159 A  
HETATM    8  F   UNL     1      -7.123   8.827  73.546  1.00  0.00    -0.124 F  
HETATM    9  C   UNL     1      -9.248   3.843  71.067  1.00  0.00    -0.130 C  
HETATM   10  C   UNL     1      -8.003   5.877  71.944  1.00  0.00    -0.107 A  
HETATM   11  C   UNL     1      -6.600   7.823  72.792  1.00  0.00    -0.068 C  
HETATM   12  C   UNL     1      -7.611   7.225  71.839  1.00  0.00    -0.085 A  
HETATM   13  F   UNL     1     -10.243   3.496  70.203  1.00  0.00    -0.094 F  
HETATM   14  F   UNL     1      -8.171   3.095  70.712  1.00  0.00    -0.051 F  
HETATM   15  C   UNL     1      -8.127   8.001  70.789  1.00  0.00    -0.101 A  
HETATM   16  F   UNL     1      -9.637   3.400  72.290  1.00  0.00    -0.151 F  
ENDBRANCH   2   3
BRANCH   2  17
HETATM   17  O   UNL     1      -9.664   9.521  68.782  1.00  0.00    -0.154 OA 
BRANCH  17  18
HETATM   18  C   UNL     1     -10.176  10.203  67.610  1.00  0.00    -0.203 C  
HETATM   19  N   UNL     1      -8.750  12.274  67.837  1.00  0.00    -0.169 NA 
HETATM   20  C   UNL     1      -9.107  11.159  66.920  1.00  0.00    -0.159 C  
HETATM   21  O   UNL     1     -11.362  10.958  67.914  1.00  0.00    -0.307 OA 
HETATM   22  C   UNL     1     -11.053  12.024  68.820  1.00  0.00    -0.249 C  
HETATM   23  C   UNL     1      -9.994  12.971  68.244  1.00  0.00    -0.235 C  
BRANCH  19  24
HETATM   24  C   UNL     1      -7.705  13.219  67.406  1.00  0.00    -0.140 C  
BRANCH  24  25
HETATM   25  C   UNL     1      -8.144  14.671  67.357  1.00  0.00    -0.196 C  
HETATM   26  O   UNL     1      -6.289  18.018  68.827  1.00  0.00    -0.202 OA 
HETATM   27  O   UNL     1      -7.094  18.836  66.654  1.00  0.00    -0.202 OA 
HETATM   28  N   UNL     1      -8.917  15.146  66.412  1.00  0.00    -0.292 NA 
HETATM   29  O   UNL     1      -8.491  19.319  68.773  1.00  0.00    -0.361 OA 
HETATM   30  C   UNL     1      -8.968  16.503  66.638  1.00  0.00    -0.255 C  
HETATM   31  O   UNL     1      -9.386  17.343  65.853  1.00  0.00    -0.508 OA 
HETATM   32  P   UNL     1      -7.671  18.309  68.051  1.00  0.00    -0.274 P  
HETATM   33  N   UNL     1      -8.313  16.789  67.807  1.00  0.00    -0.186 N  
HETATM   34  N   UNL     1      -7.756  15.591  68.304  1.00  0.00    -0.114 NA 
ENDBRANCH  24  25
ENDBRANCH  19  24
BRANCH  20  35
HETATM   35  C   UNL     1      -7.949  10.322  66.382  1.00  0.00    -0.121 A  
HETATM   36  C   UNL     1      -6.768   9.361  64.473  1.00  0.00    -0.089 A  
HETATM   37  F   UNL     1      -5.144   7.690  64.847  1.00  0.00    -0.027 F  
HETATM   38  C   UNL     1      -7.727  10.237  64.990  1.00  0.00    -0.129 A  
HETATM   39  C   UNL     1      -6.219   8.642  66.716  1.00  0.00    -0.059 A  
HETATM   40  C   UNL     1      -7.167   9.528  67.236  1.00  0.00    -0.087 A  
HETATM   41  C   UNL     1      -6.033   8.560  65.343  1.00  0.00    -0.048 A  
ENDBRANCH  20  35
ENDBRANCH  17  18
ENDBRANCH   2  17
TORSDOF 6
ENDMDL
MODEL      231
REMARK 921   NORMALIZED FREE ENERGY PREDICTED BY IDOCK:   -4.56 KCAL/MOL
REMARK 922        TOTAL FREE ENERGY PREDICTED BY IDOCK:   -7.06 KCAL/MOL
REMARK 923 INTER-LIGAND FREE ENERGY PREDICTED BY IDOCK:   -6.59 KCAL/MOL
REMARK 924 INTRA-LIGAND FREE ENERGY PREDICTED BY IDOCK:   -0.47 KCAL/MOL
REMARK 927      BINDING AFFINITY PREDICTED BY RF-SCORE:    0.00 PKD
ROOT
HETATM    1  C   UNL     1      -9.377  10.034  63.954  1.00  0.00    -0.315 C  
HETATM    2  C   UNL     1      -8.202   9.730  64.874  1.00  0.00    -0.142 C  
ENDROOT
BRANCH   2   3
HETATM    3  C   UNL     1      -8.273   8.340  65.472  1.00  0.00    -0.138 A  
HETATM    4  F   UNL     1      -8.017   7.557  69.668  1.00  0.00    -0.112 F  
HETATM    5  F   UNL     1      -8.272   5.426  69.334  1.00  0.00    -0.091 F  
HETATM    6  C   UNL     1      -7.814   7.272  64.691  1.00  0.00    -0.123 A  
HETATM    7  C   UNL     1      -7.533   6.032  65.261  1.00  0.00    -0.083 A  
HETATM    8  F   UNL     1      -9.980   6.762  69.168  1.00  0.00    -0.152 F  
HETATM    9  C   UNL     1      -6.813   4.983  64.445  1.00  0.00    -0.048 C  
HETATM   10  C   UNL     1      -7.815   5.831  66.621  1.00  0.00    -0.101 A  
HETATM   11  C   UNL     1      -8.655   6.652  68.878  1.00  0.00    -0.126 C  
HETATM   12  C   UNL     1      -8.364   6.860  67.408  1.00  0.00    -0.122 A  
HETATM   13  F   UNL     1      -6.714   5.300  63.124  1.00  0.00    -0.025 F  
HETATM   14  F   UNL     1      -5.538   4.798  64.879  1.00  0.00    -0.012 F  
HETATM   15  C   UNL     1      -8.583   8.118  66.824  1.00  0.00    -0.136 A  
HETATM   16  F   UNL     1      -7.416   3.767  64.499  1.00  0.00    -0.066 F  
ENDBRANCH   2   3
BRANCH   2  17
HETATM   17  O   UNL     1      -8.100  10.721  65.911  1.00  0.00    -0.158 OA 
BRANCH  17  18
HETATM   18  C   UNL     1      -7.267  10.316  67.025  1.00  0.00    -0.091 C  
HETATM   19  N   UNL     1      -7.173  12.575  68.149  1.00  0.00    -0.096 NA 
HETATM   20  C   UNL     1      -7.543  11.149  68.352  1.00  0.00    -0.110 C  
HETATM   21  O   UNL     1      -5.869  10.395  66.697  1.00  0.00    -0.054 OA 
HETATM   22  C   UNL     1      -5.490  11.757  66.466  1.00  0.00     0.008 C  
HETATM   23  C   UNL     1      -5.765  12.640  67.689  1.00  0.00    -0.136 C  
BRANCH  19  24
HETATM   24  C   UNL     1      -7.440  13.525  69.243  1.00  0.00     0.221 C  
BRANCH  24  25
HETATM   25  C   UNL     1      -7.453  14.984  68.828  1.00  0.00    -0.133 C  
HETATM   26  O   UNL     1     -10.363  17.131  66.898  1.00  0.00    -0.313 OA 
HETATM   27  O   UNL     1      -9.623  18.749  68.594  1.00  0.00    -0.353 OA 
HETATM   28  N   UNL     1      -6.766  15.906  69.456  1.00  0.00    -0.188 NA 
HETATM   29  O   UNL     1      -8.657  18.907  66.203  1.00  0.00    -0.423 OA 
HETATM   30  C   UNL     1      -7.146  17.095  68.876  1.00  0.00    -0.242 C  
HETATM   31  O   UNL     1      -6.921  18.212  69.323  1.00  0.00    -0.243 OA 
HETATM   32  P   UNL     1      -9.060  17.989  67.303  1.00  0.00    -0.264 P  
HETATM   33  N   UNL     1      -7.971  16.833  67.814  1.00  0.00    -0.175 N  
HETATM   34  N   UNL     1      -8.192  15.440  67.761  1.00  0.00    -0.143 NA 
ENDBRANCH  24  25
ENDBRANCH  19  24
BRANCH  20  35
HETATM   35  C   UNL     1      -8.965  10.877  68.838  1.00  0.00    -0.146 A  
HETATM   36  C   UNL     1     -11.325  11.502  68.870  1.00  0.00    -0.331 A  
HETATM   37  F   UNL     1     -12.753  10.521  70.472  1.00  0.00    -0.359 F  
HETATM   38  C   UNL     1     -10.042  11.635  68.331  1.00  0.00    -0.207 A  
HETATM   39  C   UNL     1     -10.495   9.848  70.428  1.00  0.00    -0.347 A  
HETATM   40  C   UNL     1      -9.215   9.969  69.879  1.00  0.00    -0.195 A  
HETATM   41  C   UNL     1     -11.534  10.618  69.926  1.00  0.00    -0.317 A  
ENDBRANCH  20  35
ENDBRANCH  17  18
ENDBRANCH   2  17
TORSDOF 6
ENDMDL
MODEL      232
REMARK 921   NORMALIZED FREE ENERGY PREDICTED BY IDOCK:   -4.44 KCAL/MOL
REMARK 922        TOTAL FREE ENERGY PREDICTED BY IDOCK:   -6.90 KCAL/MOL
REMARK 923 INTER-LIGAND FREE ENERGY PREDICTED BY IDOCK:   -6.19 KCAL/MOL
REMARK 924 INTRA-LIGAND FREE ENERGY PREDICTED BY IDOCK:   -0.71 KCAL/MOL
REMARK 927      BINDING AFFINITY PREDICTED BY RF-SCORE:    0.00 PKD
ROOT
HETATM    1  C   UNL     1      -7.612  13.099  67.376  1.00  0.00    -0.137 C  
HETATM    2  C   UNL     1      -8.769  13.984  66.930  1.00  0.00    -0.164 C  
ENDROOT
BRANCH   2   3
HETATM    3  C   UNL     1      -8.464  15.461  67.076  1.00  0.00    -0.262 A  
HETATM    4  F   UNL     1      -6.507  17.143  70.486  1.00  0.00     0.141 F  
HETATM    5  F   UNL     1      -6.576  19.127  69.605  1.00  0.00    -0.305 F  
HETATM    6  C   UNL     1      -9.320  16.367  66.438  1.00  0.00    -0.322 A  
HETATM    7  C   UNL     1      -9.321  17.718  66.779  1.00  0.00    -0.286 A  
HETATM    8  F   UNL     1      -5.147  17.663  68.869  1.00  0.00    -0.147 F  
HETATM    9  C   UNL     1     -10.415  18.619  66.254  1.00  0.00    -0.424 C  
HETATM   10  C   UNL     1      -8.375  18.184  67.705  1.00  0.00    -0.244 A  
HETATM   11  C   UNL     1      -6.429  17.807  69.301  1.00  0.00    -0.244 C  
HETATM   12  C   UNL     1      -7.441  17.310  68.292  1.00  0.00    -0.224 A  
HETATM   13  F   UNL     1     -11.179  18.034  65.290  1.00  0.00    -0.206 F  
HETATM   14  F   UNL     1     -11.277  18.987  67.238  1.00  0.00    -0.498 F  
HETATM   15  C   UNL     1      -7.500  15.944  67.975  1.00  0.00    -0.135 A  
HETATM   16  F   UNL     1      -9.938  19.769  65.712  1.00  0.00    -0.454 F  
ENDBRANCH   2   3
BRANCH   2  17
HETATM   17  O   UNL     1      -9.971  13.644  67.642  1.00  0.00    -0.231 OA 
BRANCH  17  18
HETATM   18  C   UNL     1      -9.738  13.204  69.003  1.00  0.00     0.328 C  
HETATM   19  N   UNL     1     -11.749  11.683  69.160  1.00  0.00    -0.298 NA 
HETATM   20  C   UNL     1     -10.268  11.730  69.286  1.00  0.00     0.185 C  
HETATM   21  O   UNL     1     -10.319  14.108  69.958  1.00  0.00     0.370 OA 
HETATM   22  C   UNL     1     -11.746  14.106  69.840  1.00  0.00    -0.309 C  
HETATM   23  C   UNL     1     -12.334  12.707  70.058  1.00  0.00    -0.094 C  
BRANCH  19  24
HETATM   24  C   UNL     1     -12.417  10.378  69.302  1.00  0.00     0.460 C  
BRANCH  24  25
HETATM   25  C   UNL     1     -11.725   9.410  70.244  1.00  0.00    -0.083 C  
HETATM   26  O   UNL     1      -9.507   6.069  69.399  1.00  0.00    -0.132 OA 
HETATM   27  O   UNL     1      -8.182   7.075  71.208  1.00  0.00    -0.111 OA 
HETATM   28  N   UNL     1     -11.302   9.760  71.433  1.00  0.00    -0.367 NA 
HETATM   29  O   UNL     1      -9.849   5.184  71.775  1.00  0.00    -0.162 OA 
HETATM   30  C   UNL     1     -10.620   8.662  71.908  1.00  0.00    -0.340 C  
HETATM   31  O   UNL     1      -9.872   8.650  72.877  1.00  0.00    -0.161 OA 
HETATM   32  P   UNL     1      -9.621   6.414  70.970  1.00  0.00    -0.175 P  
HETATM   33  N   UNL     1     -10.765   7.626  71.024  1.00  0.00    -0.226 N  
HETATM   34  N   UNL     1     -11.494   8.096  69.911  1.00  0.00     0.063 NA 
ENDBRANCH  24  25
ENDBRANCH  19  24
BRANCH  20  35
HETATM   35  C   UNL     1      -9.480  10.734  68.437  1.00  0.00    -0.174 A  
HETATM   36  C   UNL     1      -7.417   9.489  68.041  1.00  0.00    -0.083 A  
HETATM   37  F   UNL     1      -7.095   8.430  65.957  1.00  0.00    -0.065 F  
HETATM   38  C   UNL     1      -8.216  10.282  68.871  1.00  0.00    -0.130 A  
HETATM   39  C   UNL     1      -9.124   9.569  66.329  1.00  0.00    -0.202 A  
HETATM   40  C   UNL     1      -9.930  10.349  67.164  1.00  0.00    -0.239 A  
HETATM   41  C   UNL     1      -7.876   9.153  66.769  1.00  0.00    -0.101 A  
ENDBRANCH  20  35
ENDBRANCH  17  18
ENDBRANCH   2  17
TORSDOF 6
ENDMDL
MODEL      233
REMARK 921   NORMALIZED FREE ENERGY PREDICTED BY IDOCK:   -4.41 KCAL/MOL
REMARK 922        TOTAL FREE ENERGY PREDICTED BY IDOCK:   -6.87 KCAL/MOL
REMARK 923 INTER-LIGAND FREE ENERGY PREDICTED BY IDOCK:   -5.94 KCAL/MOL
REMARK 924 INTRA-LIGAND FREE ENERGY PREDICTED BY IDOCK:   -0.93 KCAL/MOL
REMARK 927      BINDING AFFINITY PREDICTED BY RF-SCORE:    0.00 PKD
ROOT
HETATM    1  C   UNL     1     -12.862  12.677  67.982  1.00  0.00     2.189 C  
HETATM    2  C   UNL     1     -11.560  11.947  67.676  1.00  0.00    -0.312 C  
ENDROOT
BRANCH   2   3
HETATM    3  C   UNL     1     -11.314  10.777  68.606  1.00  0.00    -0.356 A  
HETATM    4  F   UNL     1     -10.475   6.811  67.245  1.00  0.00    -0.213 F  
HETATM    5  F   UNL     1     -10.277   6.101  69.288  1.00  0.00    -0.181 F  
HETATM    6  C   UNL     1     -11.939  10.801  69.859  1.00  0.00    -0.418 A  
HETATM    7  C   UNL     1     -12.044   9.647  70.633  1.00  0.00    -0.269 A  
HETATM    8  F   UNL     1      -8.692   7.292  68.396  1.00  0.00    -0.122 F  
HETATM    9  C   UNL     1     -12.930   9.649  71.858  1.00  0.00    -0.435 C  
HETATM   10  C   UNL     1     -11.420   8.472  70.187  1.00  0.00     0.002 A  
HETATM   11  C   UNL     1     -10.045   7.176  68.483  1.00  0.00    -0.168 C  
HETATM   12  C   UNL     1     -10.706   8.445  68.975  1.00  0.00    -0.101 A  
HETATM   13  F   UNL     1     -13.369  10.891  72.205  1.00  0.00    -0.555 F  
HETATM   14  F   UNL     1     -14.048   8.900  71.668  1.00  0.00    -0.407 F  
HETATM   15  C   UNL     1     -10.666   9.605  68.185  1.00  0.00    -0.266 A  
HETATM   16  F   UNL     1     -12.313   9.145  72.957  1.00  0.00    -0.183 F  
ENDBRANCH   2   3
BRANCH   2  17
HETATM   17  O   UNL     1     -10.449  12.858  67.706  1.00  0.00    -0.214 OA 
BRANCH  17  18
HETATM   18  C   UNL     1      -9.602  12.784  66.532  1.00  0.00    -0.257 C  
HETATM   19  N   UNL     1      -8.170  14.789  67.085  1.00  0.00    -0.212 NA 
HETATM   20  C   UNL     1      -8.129  13.334  66.784  1.00  0.00     0.245 C  
HETATM   21  O   UNL     1     -10.183  13.479  65.415  1.00  0.00    -0.303 OA 
HETATM   22  C   UNL     1     -10.262  14.883  65.690  1.00  0.00    -0.358 C  
HETATM   23  C   UNL     1      -8.883  15.483  65.986  1.00  0.00    -0.125 C  
BRANCH  19  24
HETATM   24  C   UNL     1      -6.905  15.461  67.433  1.00  0.00    -0.170 C  
BRANCH  24  25
HETATM   25  C   UNL     1      -7.060  16.888  67.926  1.00  0.00    -0.152 C  
HETATM   26  O   UNL     1      -5.260  18.777  71.087  1.00  0.00    -0.265 OA 
HETATM   27  O   UNL     1      -5.172  20.534  69.370  1.00  0.00    -0.227 OA 
HETATM   28  N   UNL     1      -7.397  17.878  67.136  1.00  0.00    -0.187 NA 
HETATM   29  O   UNL     1      -7.081  20.574  71.110  1.00  0.00    -0.020 OA 
HETATM   30  C   UNL     1      -7.296  19.009  67.914  1.00  0.00    -0.245 C  
HETATM   31  O   UNL     1      -7.293  20.161  67.503  1.00  0.00    -0.265 OA 
HETATM   32  P   UNL     1      -6.249  19.715  70.225  1.00  0.00    -0.131 P  
HETATM   33  N   UNL     1      -7.017  18.643  69.205  1.00  0.00    -0.279 N  
HETATM   34  N   UNL     1      -6.856  17.241  69.239  1.00  0.00    -0.236 NA 
ENDBRANCH  24  25
ENDBRANCH  19  24
BRANCH  20  35
HETATM   35  C   UNL     1      -7.422  12.445  67.804  1.00  0.00    -0.126 A  
HETATM   36  C   UNL     1      -7.163  10.257  68.856  1.00  0.00    -0.086 A  
HETATM   37  F   UNL     1      -5.916  10.079  70.851  1.00  0.00    -0.069 F  
HETATM   38  C   UNL     1      -7.686  11.059  67.837  1.00  0.00    -0.104 A  
HETATM   39  C   UNL     1      -6.092  12.195  69.828  1.00  0.00    -0.143 A  
HETATM   40  C   UNL     1      -6.602  12.996  68.802  1.00  0.00    -0.096 A  
HETATM   41  C   UNL     1      -6.382  10.839  69.852  1.00  0.00    -0.118 A  
ENDBRANCH  20  35
ENDBRANCH  17  18
ENDBRANCH   2  17
TORSDOF 6
ENDMDL
MODEL      234
REMARK 921   NORMALIZED FREE ENERGY PREDICTED BY IDOCK:   -4.41 KCAL/MOL
REMARK 922        TOTAL FREE ENERGY PREDICTED BY IDOCK:   -6.86 KCAL/MOL
REMARK 923 INTER-LIGAND FREE ENERGY PREDICTED BY IDOCK:   -4.82 KCAL/MOL
REMARK 924 INTRA-LIGAND FREE ENERGY PREDICTED BY IDOCK:   -2.04 KCAL/MOL
REMARK 927      BINDING AFFINITY PREDICTED BY RF-SCORE:    0.00 PKD
ROOT
HETATM    1  C   UNL     1     -12.914  15.467  70.322  1.00  0.00    -0.207 C  
HETATM    2  C   UNL     1     -11.837  14.603  69.680  1.00  0.00    -0.320 C  
ENDROOT
BRANCH   2   3
HETATM    3  C   UNL     1     -11.423  15.106  68.312  1.00  0.00    -0.350 A  
HETATM    4  F   UNL     1     -11.132  12.600  64.860  1.00  0.00    -0.300 F  
HETATM    5  F   UNL     1     -10.563  14.292  63.622  1.00  0.00     0.555 F  
HETATM    6  C   UNL     1     -10.559  16.207  68.260  1.00  0.00    -0.288 A  
HETATM    7  C   UNL     1      -9.872  16.527  67.090  1.00  0.00    -0.255 A  
HETATM    8  F   UNL     1     -12.631  14.055  64.250  1.00  0.00    -0.402 F  
HETATM    9  C   UNL     1      -8.770  17.562  67.132  1.00  0.00    -0.237 C  
HETATM   10  C   UNL     1     -10.135  15.790  65.926  1.00  0.00    -0.381 A  
HETATM   11  C   UNL     1     -11.345  13.932  64.678  1.00  0.00    -0.375 C  
HETATM   12  C   UNL     1     -11.069  14.737  65.928  1.00  0.00    -0.340 A  
HETATM   13  F   UNL     1      -8.722  18.251  68.306  1.00  0.00    -0.257 F  
HETATM   14  F   UNL     1      -7.544  16.995  66.984  1.00  0.00    -0.167 F  
HETATM   15  C   UNL     1     -11.704  14.397  67.134  1.00  0.00    -0.424 A  
HETATM   16  F   UNL     1      -8.883  18.493  66.151  1.00  0.00    -0.295 F  
ENDBRANCH   2   3
BRANCH   2  17
HETATM   17  O   UNL     1     -12.264  13.232  69.605  1.00  0.00    -0.279 OA 
BRANCH  17  18
HETATM   18  C   UNL     1     -11.413  12.315  70.336  1.00  0.00     0.353 C  
HETATM   19  N   UNL     1     -11.333  10.520  68.561  1.00  0.00    -0.273 NA 
HETATM   20  C   UNL     1     -10.493  11.423  69.393  1.00  0.00     0.000 C  
HETATM   21  O   UNL     1     -12.178  11.458  71.201  1.00  0.00    -0.319 OA 
HETATM   22  C   UNL     1     -13.021  10.597  70.427  1.00  0.00    -0.145 C  
HETATM   23  C   UNL     1     -12.210   9.729  69.457  1.00  0.00     0.625 C  
BRANCH  19  24
HETATM   24  C   UNL     1     -10.663   9.675  67.559  1.00  0.00    -0.256 C  
BRANCH  24  25
HETATM   25  C   UNL     1     -10.090   8.379  68.102  1.00  0.00    -0.200 C  
HETATM   26  O   UNL     1      -9.899   4.670  66.369  1.00  0.00    -0.181 OA 
HETATM   27  O   UNL     1      -7.681   4.819  67.418  1.00  0.00    -0.089 OA 
HETATM   28  N   UNL     1      -9.125   8.348  68.987  1.00  0.00    -0.147 NA 
HETATM   29  O   UNL     1      -9.573   3.567  68.654  1.00  0.00    -0.157 OA 
HETATM   30  C   UNL     1      -8.798   7.016  69.116  1.00  0.00    -0.135 C  
HETATM   31  O   UNL     1      -7.794   6.576  69.660  1.00  0.00    -0.106 OA 
HETATM   32  P   UNL     1      -9.226   4.757  67.832  1.00  0.00    -0.136 P  
HETATM   33  N   UNL     1      -9.678   6.266  68.382  1.00  0.00    -0.123 N  
HETATM   34  N   UNL     1     -10.545   7.146  67.700  1.00  0.00    -0.236 NA 
ENDBRANCH  24  25
ENDBRANCH  19  24
BRANCH  20  35
HETATM   35  C   UNL     1      -9.510  12.319  68.644  1.00  0.00    -0.030 A  
HETATM   36  C   UNL     1      -8.196  12.771  66.636  1.00  0.00     0.166 A  
HETATM   37  F   UNL     1      -6.495  14.405  66.717  1.00  0.00     0.473 F  
HETATM   38  C   UNL     1      -9.201  12.055  67.292  1.00  0.00    -0.182 A  
HETATM   39  C   UNL     1      -7.786  14.039  68.655  1.00  0.00    -0.130 A  
HETATM   40  C   UNL     1      -8.802  13.334  69.307  1.00  0.00     0.856 A  
HETATM   41  C   UNL     1      -7.487  13.748  67.332  1.00  0.00    -0.125 A  
ENDBRANCH  20  35
ENDBRANCH  17  18
ENDBRANCH   2  17
TORSDOF 6
ENDMDL
MODEL      235
REMARK 921   NORMALIZED FREE ENERGY PREDICTED BY IDOCK:   -4.35 KCAL/MOL
REMARK 922        TOTAL FREE ENERGY PREDICTED BY IDOCK:   -6.78 KCAL/MOL
REMARK 923 INTER-LIGAND FREE ENERGY PREDICTED BY IDOCK:   -4.97 KCAL/MOL
REMARK 924 INTRA-LIGAND FREE ENERGY PREDICTED BY IDOCK:   -1.81 KCAL/MOL
REMARK 927      BINDING AFFINITY PREDICTED BY RF-SCORE:    0.00 PKD
ROOT
HETATM    1  C   UNL     1      -5.322  11.264  68.160  1.00  0.00    -0.042 C  
HETATM    2  C   UNL     1      -6.448  10.264  67.933  1.00  0.00    -0.061 C  
ENDROOT
BRANCH   2   3
HETATM    3  C   UNL     1      -7.667  10.893  67.291  1.00  0.00    -0.112 A  
HETATM    4  F   UNL     1     -11.531  10.961  69.121  1.00  0.00    -0.248 F  
HETATM    5  F   UNL     1     -12.358  12.064  67.443  1.00  0.00    -0.174 F  
HETATM    6  C   UNL     1      -7.727  10.913  65.892  1.00  0.00    -0.073 A  
HETATM    7  C   UNL     1      -8.927  11.159  65.227  1.00  0.00    -0.134 A  
HETATM    8  F   UNL     1     -11.092  13.080  68.889  1.00  0.00    -0.252 F  
HETATM    9  C   UNL     1      -9.012  10.933  63.734  1.00  0.00    -0.113 C  
HETATM   10  C   UNL     1     -10.063  11.493  65.979  1.00  0.00    -0.270 A  
HETATM   11  C   UNL     1     -11.234  11.916  68.198  1.00  0.00    -0.258 C  
HETATM   12  C   UNL     1     -10.007  11.571  67.383  1.00  0.00    -0.209 A  
HETATM   13  F   UNL     1      -7.800  10.719  63.151  1.00  0.00    -0.136 F  
HETATM   14  F   UNL     1      -9.766   9.842  63.435  1.00  0.00    -0.317 F  
HETATM   15  C   UNL     1      -8.801  11.261  68.032  1.00  0.00    -0.148 A  
HETATM   16  F   UNL     1      -9.571  11.979  63.073  1.00  0.00    -0.386 F  
ENDBRANCH   2   3
BRANCH   2  17
HETATM   17  O   UNL     1      -6.805   9.614  69.165  1.00  0.00    -0.049 OA 
BRANCH  17  18
HETATM   18  C   UNL     1      -6.173   8.323  69.347  1.00  0.00    -0.037 C  
HETATM   19  N   UNL     1      -8.295   7.024  69.780  1.00  0.00    -0.131 NA 
HETATM   20  C   UNL     1      -7.095   7.103  68.905  1.00  0.00    -0.084 C  
HETATM   21  O   UNL     1      -5.749   8.129  70.707  1.00  0.00    -0.029 OA 
HETATM   22  C   UNL     1      -6.885   8.078  71.579  1.00  0.00    -0.055 C  
HETATM   23  C   UNL     1      -7.849   6.950  71.192  1.00  0.00    -0.100 C  
BRANCH  19  24
HETATM   24  C   UNL     1      -9.314   6.007  69.470  1.00  0.00    -0.136 C  
BRANCH  24  25
HETATM   25  C   UNL     1      -8.801   4.812  68.688  1.00  0.00    -0.099 C  
HETATM   26  O   UNL     1      -9.170   3.937  64.701  1.00  0.00    -0.131 OA 
HETATM   27  O   UNL     1      -6.835   3.291  65.115  1.00  0.00    -0.043 OA 
HETATM   28  N   UNL     1      -7.740   4.132  69.048  1.00  0.00    -0.054 NA 
HETATM   29  O   UNL     1      -8.667   1.469  65.147  1.00  0.00    -0.100 OA 
HETATM   30  C   UNL     1      -7.525   3.235  68.026  1.00  0.00    -0.054 C  
HETATM   31  O   UNL     1      -6.506   2.578  67.855  1.00  0.00    -0.031 OA 
HETATM   32  P   UNL     1      -8.317   2.860  65.543  1.00  0.00    -0.103 P  
HETATM   33  N   UNL     1      -8.555   3.322  67.128  1.00  0.00    -0.104 N  
HETATM   34  N   UNL     1      -9.415   4.361  67.543  1.00  0.00    -0.155 NA 
ENDBRANCH  24  25
ENDBRANCH  19  24
BRANCH  20  35
HETATM   35  C   UNL     1      -7.352   7.178  67.402  1.00  0.00    -0.092 A  
HETATM   36  C   UNL     1      -8.904   7.568  65.557  1.00  0.00    -0.012 A  
HETATM   37  F   UNL     1      -8.276   6.935  63.372  1.00  0.00    -0.112 F  
HETATM   38  C   UNL     1      -8.598   7.633  66.920  1.00  0.00    -0.123 A  
HETATM   39  C   UNL     1      -6.729   6.603  65.119  1.00  0.00    -0.050 A  
HETATM   40  C   UNL     1      -6.416   6.682  66.480  1.00  0.00    -0.043 A  
HETATM   41  C   UNL     1      -7.968   7.038  64.671  1.00  0.00    -0.114 A  
ENDBRANCH  20  35
ENDBRANCH  17  18
ENDBRANCH   2  17
TORSDOF 6
ENDMDL
MODEL      236
REMARK 921   NORMALIZED FREE ENERGY PREDICTED BY IDOCK:   -4.24 KCAL/MOL
REMARK 922        TOTAL FREE ENERGY PREDICTED BY IDOCK:   -6.63 KCAL/MOL
REMARK 923 INTER-LIGAND FREE ENERGY PREDICTED BY IDOCK:   -6.95 KCAL/MOL
REMARK 924 INTRA-LIGAND FREE ENERGY PREDICTED BY IDOCK:    0.31 KCAL/MOL
REMARK 927      BINDING AFFINITY PREDICTED BY RF-SCORE:    0.00 PKD
ROOT
HETATM    1  C   UNL     1     -10.532   7.452  67.847  1.00  0.00    -0.265 C  
HETATM    2  C   UNL     1      -9.338   8.053  68.577  1.00  0.00    -0.142 C  
ENDROOT
BRANCH   2   3
HETATM    3  C   UNL     1      -9.011   7.320  69.862  1.00  0.00    -0.142 A  
HETATM    4  F   UNL     1      -7.048   3.523  69.983  1.00  0.00    -0.039 F  
HETATM    5  F   UNL     1      -7.081   3.522  72.155  1.00  0.00    -0.038 F  
HETATM    6  C   UNL     1      -9.850   7.534  70.963  1.00  0.00    -0.182 A  
HETATM    7  C   UNL     1      -9.832   6.673  72.059  1.00  0.00    -0.166 A  
HETATM    8  F   UNL     1      -5.671   4.791  71.093  1.00  0.00    -0.012 F  
HETATM    9  C   UNL     1     -10.910   6.786  73.113  1.00  0.00    -0.284 C  
HETATM   10  C   UNL     1      -8.884   5.639  72.094  1.00  0.00    -0.137 A  
HETATM   11  C   UNL     1      -6.953   4.337  71.069  1.00  0.00    -0.036 C  
HETATM   12  C   UNL     1      -7.967   5.459  71.042  1.00  0.00    -0.105 A  
HETATM   13  F   UNL     1     -11.678   7.903  72.982  1.00  0.00    -0.413 F  
HETATM   14  F   UNL     1     -11.771   5.736  73.063  1.00  0.00    -0.281 F  
HETATM   15  C   UNL     1      -8.045   6.303  69.923  1.00  0.00    -0.120 A  
HETATM   16  F   UNL     1     -10.412   6.815  74.376  1.00  0.00    -0.380 F  
ENDBRANCH   2   3
BRANCH   2  17
HETATM   17  O   UNL     1      -9.551   9.451  68.834  1.00  0.00    -0.151 OA 
BRANCH  17  18
HETATM   18  C   UNL     1     -10.044  10.186  67.686  1.00  0.00    -0.190 C  
HETATM   19  N   UNL     1      -8.455  12.138  67.892  1.00  0.00    -0.153 NA 
HETATM   20  C   UNL     1      -8.924  11.066  66.975  1.00  0.00    -0.148 C  
HETATM   21  O   UNL     1     -11.158  11.026  68.034  1.00  0.00    -0.240 OA 
HETATM   22  C   UNL     1     -10.741  12.053  68.942  1.00  0.00    -0.185 C  
HETATM   23  C   UNL     1      -9.628  12.923  68.345  1.00  0.00    -0.176 C  
BRANCH  19  24
HETATM   24  C   UNL     1      -7.353  13.005  67.441  1.00  0.00    -0.116 C  
BRANCH  24  25
HETATM   25  C   UNL     1      -7.724  14.467  67.270  1.00  0.00    -0.137 C  
HETATM   26  O   UNL     1     -11.386  16.287  67.552  1.00  0.00    -0.132 OA 
HETATM   27  O   UNL     1      -9.954  17.914  68.712  1.00  0.00    -0.359 OA 
HETATM   28  N   UNL     1      -6.883  15.443  67.504  1.00  0.00    -0.183 NA 
HETATM   29  O   UNL     1     -10.537  18.304  66.225  1.00  0.00    -0.384 OA 
HETATM   30  C   UNL     1      -7.626  16.595  67.373  1.00  0.00    -0.165 C  
HETATM   31  O   UNL     1      -7.283  17.712  67.739  1.00  0.00    -0.184 OA 
HETATM   32  P   UNL     1     -10.162  17.293  67.251  1.00  0.00    -0.318 P  
HETATM   33  N   UNL     1      -8.882  16.272  66.933  1.00  0.00    -0.200 N  
HETATM   34  N   UNL     1      -8.974  14.866  66.857  1.00  0.00    -0.238 NA 
ENDBRANCH  24  25
ENDBRANCH  19  24
BRANCH  20  35
HETATM   35  C   UNL     1      -7.851  10.150  66.392  1.00  0.00    -0.114 A  
HETATM   36  C   UNL     1      -6.790   9.143  64.436  1.00  0.00    -0.087 A  
HETATM   37  F   UNL     1      -5.307   7.333  64.736  1.00  0.00    -0.027 F  
HETATM   38  C   UNL     1      -7.663  10.082  64.995  1.00  0.00    -0.138 A  
HETATM   39  C   UNL     1      -6.263   8.322  66.649  1.00  0.00    -0.054 A  
HETATM   40  C   UNL     1      -7.123   9.271  67.210  1.00  0.00    -0.082 A  
HETATM   41  C   UNL     1      -6.110   8.261  65.272  1.00  0.00    -0.045 A  
ENDBRANCH  20  35
ENDBRANCH  17  18
ENDBRANCH   2  17
TORSDOF 6
ENDMDL
MODEL      237
REMARK 921   NORMALIZED FREE ENERGY PREDICTED BY IDOCK:   -4.22 KCAL/MOL
REMARK 922        TOTAL FREE ENERGY PREDICTED BY IDOCK:   -6.60 KCAL/MOL
REMARK 923 INTER-LIGAND FREE ENERGY PREDICTED BY IDOCK:   -7.10 KCAL/MOL
REMARK 924 INTRA-LIGAND FREE ENERGY PREDICTED BY IDOCK:    0.49 KCAL/MOL
REMARK 927      BINDING AFFINITY PREDICTED BY RF-SCORE:    0.00 PKD
ROOT
HETATM    1  C   UNL     1      -6.605  10.538  68.639  1.00  0.00    -0.052 C  
HETATM    2  C   UNL     1      -7.947  10.342  67.946  1.00  0.00    -0.102 C  
ENDROOT
BRANCH   2   3
HETATM    3  C   UNL     1      -8.673  11.649  67.698  1.00  0.00    -0.156 A  
HETATM    4  F   UNL     1     -11.319  12.295  64.402  1.00  0.00    -0.327 F  
HETATM    5  F   UNL     1     -11.742  14.315  65.076  1.00  0.00    -0.329 F  
HETATM    6  C   UNL     1      -8.058  12.827  68.141  1.00  0.00    -0.158 A  
HETATM    7  C   UNL     1      -8.473  14.073  67.676  1.00  0.00    -0.193 A  
HETATM    8  F   UNL     1     -12.623  12.619  66.112  1.00  0.00    -0.375 F  
HETATM    9  C   UNL     1      -7.639  15.297  67.979  1.00  0.00    -0.125 C  
HETATM   10  C   UNL     1      -9.590  14.144  66.830  1.00  0.00    -0.290 A  
HETATM   11  C   UNL     1     -11.478  13.054  65.519  1.00  0.00    -0.321 C  
HETATM   12  C   UNL     1     -10.283  12.982  66.443  1.00  0.00    -0.283 A  
HETATM   13  F   UNL     1      -6.658  15.068  68.897  1.00  0.00    -0.089 F  
HETATM   14  F   UNL     1      -7.008  15.762  66.869  1.00  0.00    -0.230 F  
HETATM   15  C   UNL     1      -9.809  11.734  66.878  1.00  0.00    -0.221 A  
HETATM   16  F   UNL     1      -8.375  16.330  68.463  1.00  0.00    -0.170 F  
ENDBRANCH   2   3
BRANCH   2  17
HETATM   17  O   UNL     1      -8.777   9.438  68.694  1.00  0.00    -0.128 OA 
BRANCH  17  18
HETATM   18  C   UNL     1      -9.657   8.635  67.869  1.00  0.00    -0.149 C  
HETATM   19  N   UNL     1      -8.252   6.537  67.909  1.00  0.00    -0.115 NA 
HETATM   20  C   UNL     1      -9.601   7.082  68.215  1.00  0.00    -0.134 C  
HETATM   21  O   UNL     1      -9.384   8.819  66.469  1.00  0.00    -0.172 OA 
HETATM   22  C   UNL     1      -8.076   8.328  66.150  1.00  0.00    -0.111 C  
HETATM   23  C   UNL     1      -7.926   6.842  66.495  1.00  0.00    -0.109 C  
BRANCH  19  24
HETATM   24  C   UNL     1      -7.980   5.129  68.246  1.00  0.00    -0.087 C  
BRANCH  24  25
HETATM   25  C   UNL     1      -8.177   4.153  67.101  1.00  0.00    -0.100 C  
HETATM   26  O   UNL     1     -11.185   3.948  64.324  1.00  0.00    -0.335 OA 
HETATM   27  O   UNL     1      -9.214   3.504  62.924  1.00  0.00    -0.093 OA 
HETATM   28  N   UNL     1      -7.179   3.544  66.509  1.00  0.00    -0.066 NA 
HETATM   29  O   UNL     1     -10.602   1.511  63.804  1.00  0.00    -0.090 OA 
HETATM   30  C   UNL     1      -7.747   2.867  65.453  1.00  0.00    -0.081 C  
HETATM   31  O   UNL     1      -7.140   2.368  64.515  1.00  0.00    -0.050 OA 
HETATM   32  P   UNL     1     -10.026   2.843  64.134  1.00  0.00    -0.056 P  
HETATM   33  N   UNL     1      -9.109   2.993  65.519  1.00  0.00    -0.148 N  
HETATM   34  N   UNL     1      -9.421   3.842  66.603  1.00  0.00    -0.195 NA 
ENDBRANCH  24  25
ENDBRANCH  19  24
BRANCH  20  35
HETATM   35  C   UNL     1     -10.121   6.858  69.633  1.00  0.00    -0.195 A  
HETATM   36  C   UNL     1     -11.992   6.385  71.129  1.00  0.00    -0.273 A  
HETATM   37  F   UNL     1     -11.721   6.713  73.450  1.00  0.00     0.083 F  
HETATM   38  C   UNL     1     -11.457   6.452  69.839  1.00  0.00    -0.483 A  
HETATM   39  C   UNL     1      -9.875   7.117  72.041  1.00  0.00    -0.174 A  
HETATM   40  C   UNL     1      -9.334   7.169  70.753  1.00  0.00    -0.160 A  
HETATM   41  C   UNL     1     -11.197   6.735  72.218  1.00  0.00    -0.259 A  
ENDBRANCH  20  35
ENDBRANCH  17  18
ENDBRANCH   2  17
TORSDOF 6
ENDMDL
MODEL      238
REMARK 921   NORMALIZED FREE ENERGY PREDICTED BY IDOCK:   -4.16 KCAL/MOL
REMARK 922        TOTAL FREE ENERGY PREDICTED BY IDOCK:   -6.53 KCAL/MOL
REMARK 923 INTER-LIGAND FREE ENERGY PREDICTED BY IDOCK:   -7.59 KCAL/MOL
REMARK 924 INTRA-LIGAND FREE ENERGY PREDICTED BY IDOCK:    1.06 KCAL/MOL
REMARK 927      BINDING AFFINITY PREDICTED BY RF-SCORE:    0.00 PKD
ROOT
HETATM    1  C   UNL     1      -7.996   8.474  66.618  1.00  0.00    -0.100 C  
HETATM    2  C   UNL     1      -7.383   7.899  67.889  1.00  0.00    -0.092 C  
ENDROOT
BRANCH   2   3
HETATM    3  C   UNL     1      -6.856   6.492  67.697  1.00  0.00    -0.076 A  
HETATM    4  F   UNL     1      -7.361   4.251  64.090  1.00  0.00    -0.057 F  
HETATM    5  F   UNL     1      -6.247   2.580  64.916  1.00  0.00    -0.017 F  
HETATM    6  C   UNL     1      -6.747   5.678  68.831  1.00  0.00    -0.053 A  
HETATM    7  C   UNL     1      -6.595   4.298  68.715  1.00  0.00    -0.045 A  
HETATM    8  F   UNL     1      -5.195   4.367  64.263  1.00  0.00    -0.010 F  
HETATM    9  C   UNL     1      -6.726   3.427  69.944  1.00  0.00    -0.034 C  
HETATM   10  C   UNL     1      -6.448   3.737  67.437  1.00  0.00    -0.038 A  
HETATM   11  C   UNL     1      -6.317   3.941  64.905  1.00  0.00    -0.027 C  
HETATM   12  C   UNL     1      -6.461   4.544  66.284  1.00  0.00    -0.041 A  
HETATM   13  F   UNL     1      -6.757   4.137  71.107  1.00  0.00    -0.029 F  
HETATM   14  F   UNL     1      -7.872   2.699  69.923  1.00  0.00    -0.043 F  
HETATM   15  C   UNL     1      -6.674   5.924  66.425  1.00  0.00    -0.057 A  
HETATM   16  F   UNL     1      -5.708   2.538  70.071  1.00  0.00    -0.015 F  
ENDBRANCH   2   3
BRANCH   2  17
HETATM   17  O   UNL     1      -8.328   7.940  68.971  1.00  0.00    -0.127 OA 
BRANCH  17  18
HETATM   18  C   UNL     1      -8.004   8.916  69.992  1.00  0.00    -0.109 C  
HETATM   19  N   UNL     1     -10.293   9.976  70.114  1.00  0.00    -0.274 NA 
HETATM   20  C   UNL     1      -9.243   9.295  70.916  1.00  0.00    -0.233 C  
HETATM   21  O   UNL     1      -7.453  10.116  69.421  1.00  0.00    -0.091 OA 
HETATM   22  C   UNL     1      -8.436  10.779  68.617  1.00  0.00    -0.143 C  
HETATM   23  C   UNL     1      -9.685  11.141  69.428  1.00  0.00     0.175 C  
BRANCH  19  24
HETATM   24  C   UNL     1     -11.559  10.327  70.781  1.00  0.00    -0.355 C  
BRANCH  24  25
HETATM   25  C   UNL     1     -11.985  11.774  70.612  1.00  0.00    -0.222 C  
HETATM   26  O   UNL     1     -13.229  14.482  73.426  1.00  0.00    -0.592 OA 
HETATM   27  O   UNL     1     -11.777  15.885  72.024  1.00  0.00    -0.426 OA 
HETATM   28  N   UNL     1     -11.547  12.531  69.637  1.00  0.00    -0.277 NA 
HETATM   29  O   UNL     1     -14.328  15.923  71.620  1.00  0.00    -0.347 OA 
HETATM   30  C   UNL     1     -12.045  13.787  69.908  1.00  0.00    -0.348 C  
HETATM   31  O   UNL     1     -11.681  14.828  69.379  1.00  0.00    -0.289 OA 
HETATM   32  P   UNL     1     -13.150  15.068  71.926  1.00  0.00    -0.433 P  
HETATM   33  N   UNL     1     -12.883  13.714  70.989  1.00  0.00    -0.312 N  
HETATM   34  N   UNL     1     -12.861  12.389  71.475  1.00  0.00    -0.336 NA 
ENDBRANCH  24  25
ENDBRANCH  19  24
BRANCH  20  35
HETATM   35  C   UNL     1      -9.681   8.066  71.709  1.00  0.00    -0.233 A  
HETATM   36  C   UNL     1     -10.908   5.956  71.798  1.00  0.00    -0.316 A  
HETATM   37  F   UNL     1     -11.319   4.951  73.893  1.00  0.00    -0.351 F  
HETATM   38  C   UNL     1     -10.370   7.017  71.063  1.00  0.00    -0.216 A  
HETATM   39  C   UNL     1     -10.077   6.954  73.839  1.00  0.00    -0.391 A  
HETATM   40  C   UNL     1      -9.526   8.007  73.103  1.00  0.00    -0.349 A  
HETATM   41  C   UNL     1     -10.768   5.944  73.183  1.00  0.00    -0.261 A  
ENDBRANCH  20  35
ENDBRANCH  17  18
ENDBRANCH   2  17
TORSDOF 6
ENDMDL
MODEL      239
REMARK 921   NORMALIZED FREE ENERGY PREDICTED BY IDOCK:   -4.14 KCAL/MOL
REMARK 922        TOTAL FREE ENERGY PREDICTED BY IDOCK:   -6.50 KCAL/MOL
REMARK 923 INTER-LIGAND FREE ENERGY PREDICTED BY IDOCK:   -7.20 KCAL/MOL
REMARK 924 INTRA-LIGAND FREE ENERGY PREDICTED BY IDOCK:    0.70 KCAL/MOL
REMARK 927      BINDING AFFINITY PREDICTED BY RF-SCORE:    0.00 PKD
ROOT
HETATM    1  C   UNL     1      -7.655   9.823  68.758  1.00  0.00    -0.076 C  
HETATM    2  C   UNL     1      -9.142   9.609  68.507  1.00  0.00    -0.131 C  
ENDROOT
BRANCH   2   3
HETATM    3  C   UNL     1      -9.963  10.855  68.767  1.00  0.00    -0.203 A  
HETATM    4  F   UNL     1     -13.547  10.877  71.099  1.00  0.00    -0.252 F  
HETATM    5  F   UNL     1     -13.766  13.021  70.828  1.00  0.00     0.200 F  
HETATM    6  C   UNL     1      -9.941  11.862  67.795  1.00  0.00    -0.191 A  
HETATM    7  C   UNL     1     -10.900  12.873  67.784  1.00  0.00    -0.248 A  
HETATM    8  F   UNL     1     -12.269  12.250  72.203  1.00  0.00     0.161 F  
HETATM    9  C   UNL     1     -10.996  13.797  66.591  1.00  0.00    -0.296 C  
HETATM   10  C   UNL     1     -11.836  12.931  68.827  1.00  0.00    -0.353 A  
HETATM   11  C   UNL     1     -12.840  12.034  70.987  1.00  0.00    -0.187 C  
HETATM   12  C   UNL     1     -11.823  11.984  69.868  1.00  0.00    -0.405 A  
HETATM   13  F   UNL     1      -9.950  13.674  65.728  1.00  0.00    -0.276 F  
HETATM   14  F   UNL     1     -12.114  13.554  65.858  1.00  0.00    -0.363 F  
HETATM   15  C   UNL     1     -10.884  10.941  69.824  1.00  0.00    -0.247 A  
HETATM   16  F   UNL     1     -11.045  15.108  66.942  1.00  0.00    -0.310 F  
ENDBRANCH   2   3
BRANCH   2  17
HETATM   17  O   UNL     1      -9.634   8.507  69.288  1.00  0.00    -0.167 OA 
BRANCH  17  18
HETATM   18  C   UNL     1     -10.530   7.631  68.561  1.00  0.00    -0.174 C  
HETATM   19  N   UNL     1      -8.773   5.972  67.826  1.00  0.00    -0.106 NA 
HETATM   20  C   UNL     1     -10.058   6.110  68.560  1.00  0.00    -0.162 C  
HETATM   21  O   UNL     1     -10.715   8.070  67.204  1.00  0.00    -0.322 OA 
HETATM   22  C   UNL     1      -9.483   7.976  66.479  1.00  0.00    -0.214 C  
HETATM   23  C   UNL     1      -8.937   6.543  66.468  1.00  0.00    -0.143 C  
BRANCH  19  24
HETATM   24  C   UNL     1      -8.131   4.646  67.792  1.00  0.00    -0.096 C  
BRANCH  24  25
HETATM   25  C   UNL     1      -8.372   3.857  66.518  1.00  0.00    -0.104 C  
HETATM   26  O   UNL     1     -11.597   3.887  63.989  1.00  0.00     0.005 OA 
HETATM   27  O   UNL     1      -9.736   3.822  62.385  1.00  0.00    -0.103 OA 
HETATM   28  N   UNL     1      -7.396   3.427  65.757  1.00  0.00    -0.071 NA 
HETATM   29  O   UNL     1     -10.920   1.616  63.023  1.00  0.00    -0.165 OA 
HETATM   30  C   UNL     1      -8.014   2.891  64.649  1.00  0.00    -0.078 C  
HETATM   31  O   UNL     1      -7.464   2.598  63.596  1.00  0.00    -0.059 OA 
HETATM   32  P   UNL     1     -10.396   2.915  63.527  1.00  0.00    -0.209 P  
HETATM   33  N   UNL     1      -9.371   2.905  64.842  1.00  0.00    -0.148 N  
HETATM   34  N   UNL     1      -9.634   3.541  66.074  1.00  0.00    -0.139 NA 
ENDBRANCH  24  25
ENDBRANCH  19  24
BRANCH  20  35
HETATM   35  C   UNL     1     -10.090   5.567  69.987  1.00  0.00    -0.311 A  
HETATM   36  C   UNL     1     -11.077   5.598  72.220  1.00  0.00    -0.318 A  
HETATM   37  F   UNL     1      -9.951   4.519  73.991  1.00  0.00    -0.140 F  
HETATM   38  C   UNL     1     -11.114   5.966  70.872  1.00  0.00    -0.312 A  
HETATM   39  C   UNL     1      -9.002   4.415  71.836  1.00  0.00    -0.154 A  
HETATM   40  C   UNL     1      -9.047   4.770  70.484  1.00  0.00    -0.170 A  
HETATM   41  C   UNL     1     -10.010   4.837  72.691  1.00  0.00    -0.164 A  
ENDBRANCH  20  35
ENDBRANCH  17  18
ENDBRANCH   2  17
TORSDOF 6
ENDMDL
MODEL      240
REMARK 921   NORMALIZED FREE ENERGY PREDICTED BY IDOCK:   -4.14 KCAL/MOL
REMARK 922        TOTAL FREE ENERGY PREDICTED BY IDOCK:   -6.50 KCAL/MOL
REMARK 923 INTER-LIGAND FREE ENERGY PREDICTED BY IDOCK:   -5.49 KCAL/MOL
REMARK 924 INTRA-LIGAND FREE ENERGY PREDICTED BY IDOCK:   -1.01 KCAL/MOL
REMARK 927      BINDING AFFINITY PREDICTED BY RF-SCORE:    0.00 PKD
ROOT
HETATM    1  C   UNL     1      -5.738  10.178  66.440  1.00  0.00    -0.060 C  
HETATM    2  C   UNL     1      -7.028   9.901  67.202  1.00  0.00    -0.084 C  
ENDROOT
BRANCH   2   3
HETATM    3  C   UNL     1      -8.143  10.856  66.827  1.00  0.00    -0.142 A  
HETATM    4  F   UNL     1     -11.569  11.568  69.284  1.00  0.00    -0.263 F  
HETATM    5  F   UNL     1     -12.347  13.014  67.862  1.00  0.00    -0.323 F  
HETATM    6  C   UNL     1      -8.401  11.050  65.464  1.00  0.00    -0.024 A  
HETATM    7  C   UNL     1      -9.592  11.632  65.034  1.00  0.00    -0.187 A  
HETATM    8  F   UNL     1     -10.678  13.548  69.149  1.00  0.00    -0.244 F  
HETATM    9  C   UNL     1      -9.946  11.604  63.564  1.00  0.00    -0.405 C  
HETATM   10  C   UNL     1     -10.493  12.120  65.991  1.00  0.00    -0.281 A  
HETATM   11  C   UNL     1     -11.192  12.533  68.403  1.00  0.00    -0.272 C  
HETATM   12  C   UNL     1     -10.215  12.021  67.367  1.00  0.00    -0.216 A  
HETATM   13  F   UNL     1      -8.918  11.196  62.769  1.00  0.00    -0.243 F  
HETATM   14  F   UNL     1     -10.972  10.751  63.311  1.00  0.00    -0.234 F  
HETATM   15  C   UNL     1      -9.036  11.377  67.776  1.00  0.00    -0.158 A  
HETATM   16  F   UNL     1     -10.331  12.817  63.091  1.00  0.00    -0.253 F  
ENDBRANCH   2   3
BRANCH   2  17
HETATM   17  O   UNL     1      -6.795   9.929  68.620  1.00  0.00    -0.051 OA 
BRANCH  17  18
HETATM   18  C   UNL     1      -6.254   8.692  69.147  1.00  0.00    -0.043 C  
HETATM   19  N   UNL     1      -8.415   7.830  70.130  1.00  0.00    -0.132 NA 
HETATM   20  C   UNL     1      -7.316   7.506  69.182  1.00  0.00    -0.086 C  
HETATM   21  O   UNL     1      -5.702   8.873  70.461  1.00  0.00    -0.027 OA 
HETATM   22  C   UNL     1      -6.736   9.216  71.392  1.00  0.00    -0.045 C  
HETATM   23  C   UNL     1      -7.825   8.139  71.454  1.00  0.00    -0.101 C  
BRANCH  19  24
HETATM   24  C   UNL     1      -9.542   6.887  70.234  1.00  0.00    -0.168 C  
BRANCH  24  25
HETATM   25  C   UNL     1      -9.201   5.562  70.891  1.00  0.00    -0.151 C  
HETATM   26  O   UNL     1     -10.850   3.776  74.191  1.00  0.00    -0.208 OA 
HETATM   27  O   UNL     1     -10.596   1.850  72.685  1.00  0.00    -0.152 OA 
HETATM   28  N   UNL     1      -8.686   4.556  70.230  1.00  0.00    -0.080 NA 
HETATM   29  O   UNL     1      -8.787   2.289  74.476  1.00  0.00    -0.068 OA 
HETATM   30  C   UNL     1      -8.655   3.513  71.129  1.00  0.00    -0.072 C  
HETATM   31  O   UNL     1      -8.468   2.336  70.852  1.00  0.00    -0.049 OA 
HETATM   32  P   UNL     1      -9.694   2.911  73.473  1.00  0.00    -0.106 P  
HETATM   33  N   UNL     1      -9.045   3.971  72.360  1.00  0.00    -0.113 N  
HETATM   34  N   UNL     1      -9.413   5.327  72.230  1.00  0.00    -0.141 NA 
ENDBRANCH  24  25
ENDBRANCH  19  24
BRANCH  20  35
HETATM   35  C   UNL     1      -7.729   7.150  67.756  1.00  0.00    -0.112 A  
HETATM   36  C   UNL     1      -7.100   6.416  65.513  1.00  0.00    -0.065 A  
HETATM   37  F   UNL     1      -8.659   6.627  63.754  1.00  0.00     0.046 F  
HETATM   38  C   UNL     1      -6.780   6.610  66.860  1.00  0.00    -0.056 A  
HETATM   39  C   UNL     1      -9.321   7.285  65.919  1.00  0.00     0.060 A  
HETATM   40  C   UNL     1      -9.007   7.464  67.269  1.00  0.00    -0.128 A  
HETATM   41  C   UNL     1      -8.365   6.772  65.053  1.00  0.00    -0.048 A  
ENDBRANCH  20  35
ENDBRANCH  17  18
ENDBRANCH   2  17
TORSDOF 6
ENDMDL
MODEL      241
REMARK 921   NORMALIZED FREE ENERGY PREDICTED BY IDOCK:   -4.11 KCAL/MOL
REMARK 922        TOTAL FREE ENERGY PREDICTED BY IDOCK:   -6.45 KCAL/MOL
REMARK 923 INTER-LIGAND FREE ENERGY PREDICTED BY IDOCK:   -7.44 KCAL/MOL
REMARK 924 INTRA-LIGAND FREE ENERGY PREDICTED BY IDOCK:    0.99 KCAL/MOL
REMARK 927      BINDING AFFINITY PREDICTED BY RF-SCORE:    0.00 PKD
ROOT
HETATM    1  C   UNL     1     -11.627   9.366  68.926  1.00  0.00     0.533 C  
HETATM    2  C   UNL     1     -11.299  10.449  69.946  1.00  0.00    -0.302 C  
ENDROOT
BRANCH   2   3
HETATM    3  C   UNL     1     -11.831  11.809  69.542  1.00  0.00    -0.402 A  
HETATM    4  F   UNL     1     -10.869  13.719  65.839  1.00  0.00    -0.279 F  
HETATM    5  F   UNL     1     -12.134  15.415  66.331  1.00  0.00     0.039 F  
HETATM    6  C   UNL     1     -12.124  12.721  70.564  1.00  0.00    -0.369 A  
HETATM    7  C   UNL     1     -12.294  14.077  70.292  1.00  0.00    -0.425 A  
HETATM    8  F   UNL     1     -13.033  13.533  65.715  1.00  0.00    -0.475 F  
HETATM    9  C   UNL     1     -12.366  15.064  71.435  1.00  0.00    -0.332 C  
HETATM   10  C   UNL     1     -12.270  14.509  68.957  1.00  0.00    -0.215 A  
HETATM   11  C   UNL     1     -12.028  14.062  66.464  1.00  0.00    -0.444 C  
HETATM   12  C   UNL     1     -12.069  13.598  67.903  1.00  0.00    -0.318 A  
HETATM   13  F   UNL     1     -12.484  14.469  72.654  1.00  0.00    -0.386 F  
HETATM   14  F   UNL     1     -11.248  15.833  71.504  1.00  0.00    -0.379 F  
HETATM   15  C   UNL     1     -11.842  12.247  68.208  1.00  0.00    -0.367 A  
HETATM   16  F   UNL     1     -13.415  15.920  71.328  1.00  0.00    -0.539 F  
ENDBRANCH   2   3
BRANCH   2  17
HETATM   17  O   UNL     1      -9.883  10.511  70.183  1.00  0.00     0.051 OA 
BRANCH  17  18
HETATM   18  C   UNL     1      -9.106   9.666  69.299  1.00  0.00    -0.172 C  
HETATM   19  N   UNL     1      -7.140  11.232  69.059  1.00  0.00    -0.107 NA 
HETATM   20  C   UNL     1      -7.535   9.857  69.466  1.00  0.00    -0.112 C  
HETATM   21  O   UNL     1      -9.465   9.869  67.922  1.00  0.00    -0.134 OA 
HETATM   22  C   UNL     1      -9.123  11.198  67.510  1.00  0.00    -0.146 C  
HETATM   23  C   UNL     1      -7.625  11.478  67.680  1.00  0.00    -0.115 C  
BRANCH  19  24
HETATM   24  C   UNL     1      -5.731  11.627  69.227  1.00  0.00    -0.057 C  
BRANCH  24  25
HETATM   25  C   UNL     1      -5.503  13.122  69.359  1.00  0.00    -0.079 C  
HETATM   26  O   UNL     1      -7.040  16.211  67.147  1.00  0.00    -0.182 OA 
HETATM   27  O   UNL     1      -7.187  17.135  69.420  1.00  0.00    -0.190 OA 
HETATM   28  N   UNL     1      -5.189  13.692  70.496  1.00  0.00    -0.105 NA 
HETATM   29  O   UNL     1      -5.169  17.769  67.936  1.00  0.00    -0.134 OA 
HETATM   30  C   UNL     1      -5.206  15.045  70.236  1.00  0.00    -0.114 C  
HETATM   31  O   UNL     1      -5.202  15.934  71.076  1.00  0.00    -0.164 OA 
HETATM   32  P   UNL     1      -6.081  16.672  68.359  1.00  0.00    -0.135 P  
HETATM   33  N   UNL     1      -5.412  15.241  68.896  1.00  0.00    -0.097 N  
HETATM   34  N   UNL     1      -5.612  13.982  68.291  1.00  0.00    -0.103 NA 
ENDBRANCH  24  25
ENDBRANCH  19  24
BRANCH  20  35
HETATM   35  C   UNL     1      -7.113   9.412  70.864  1.00  0.00    -0.098 A  
HETATM   36  C   UNL     1      -5.333   8.989  72.481  1.00  0.00    -0.071 A  
HETATM   37  F   UNL     1      -5.826   7.775  74.443  1.00  0.00    -0.075 F  
HETATM   38  C   UNL     1      -5.765   9.526  71.265  1.00  0.00    -0.074 A  
HETATM   39  C   UNL     1      -7.581   8.220  72.935  1.00  0.00    -0.161 A  
HETATM   40  C   UNL     1      -8.017   8.770  71.726  1.00  0.00    -0.107 A  
HETATM   41  C   UNL     1      -6.246   8.326  73.298  1.00  0.00    -0.100 A  
ENDBRANCH  20  35
ENDBRANCH  17  18
ENDBRANCH   2  17
TORSDOF 6
ENDMDL
MODEL      242
REMARK 921   NORMALIZED FREE ENERGY PREDICTED BY IDOCK:   -3.89 KCAL/MOL
REMARK 922        TOTAL FREE ENERGY PREDICTED BY IDOCK:   -6.15 KCAL/MOL
REMARK 923 INTER-LIGAND FREE ENERGY PREDICTED BY IDOCK:   -7.70 KCAL/MOL
REMARK 924 INTRA-LIGAND FREE ENERGY PREDICTED BY IDOCK:    1.55 KCAL/MOL
REMARK 927      BINDING AFFINITY PREDICTED BY RF-SCORE:    0.00 PKD
ROOT
HETATM    1  C   UNL     1     -10.283  15.805  68.261  1.00  0.00    -0.225 C  
HETATM    2  C   UNL     1     -11.229  14.629  68.057  1.00  0.00    -0.293 C  
ENDROOT
BRANCH   2   3
HETATM    3  C   UNL     1     -11.433  13.819  69.320  1.00  0.00    -0.344 A  
HETATM    4  F   UNL     1     -12.577   9.698  69.325  1.00  0.00     0.623 F  
HETATM    5  F   UNL     1     -12.508   9.633  71.495  1.00  0.00    -0.355 F  
HETATM    6  C   UNL     1     -11.853  14.501  70.469  1.00  0.00    -0.372 A  
HETATM    7  C   UNL     1     -12.378  13.814  71.562  1.00  0.00    -0.286 A  
HETATM    8  F   UNL     1     -10.659   9.647  70.351  1.00  0.00    -0.251 F  
HETATM    9  C   UNL     1     -13.043  14.587  72.678  1.00  0.00    -0.467 C  
HETATM   10  C   UNL     1     -12.387  12.411  71.541  1.00  0.00     0.067 A  
HETATM   11  C   UNL     1     -11.907  10.186  70.404  1.00  0.00    -0.288 C  
HETATM   12  C   UNL     1     -11.885  11.698  70.436  1.00  0.00    -0.385 A  
HETATM   13  F   UNL     1     -12.849  15.932  72.593  1.00  0.00    -0.422 F  
HETATM   14  F   UNL     1     -14.390  14.405  72.680  1.00  0.00    -0.493 F  
HETATM   15  C   UNL     1     -11.416  12.415  69.323  1.00  0.00    -0.349 A  
HETATM   16  F   UNL     1     -12.604  14.219  73.909  1.00  0.00    -0.427 F  
ENDBRANCH   2   3
BRANCH   2  17
HETATM   17  O   UNL     1     -10.769  13.788  66.986  1.00  0.00    -0.279 OA 
BRANCH  17  18
HETATM   18  C   UNL     1     -10.904  12.371  67.258  1.00  0.00    -0.243 C  
HETATM   19  N   UNL     1      -9.544  11.570  65.286  1.00  0.00    -0.231 NA 
HETATM   20  C   UNL     1      -9.654  11.515  66.768  1.00  0.00    -0.186 C  
HETATM   21  O   UNL     1     -12.104  11.833  66.678  1.00  0.00    -0.527 OA 
HETATM   22  C   UNL     1     -12.039  11.900  65.249  1.00  0.00     0.098 C  
HETATM   23  C   UNL     1     -10.832  11.132  64.698  1.00  0.00    -0.225 C  
BRANCH  19  24
HETATM   24  C   UNL     1      -8.393  10.906  64.651  1.00  0.00     0.119 C  
BRANCH  24  25
HETATM   25  C   UNL     1      -8.212   9.448  65.031  1.00  0.00    -0.138 C  
HETATM   26  O   UNL     1     -10.280   7.173  67.742  1.00  0.00    -0.161 OA 
HETATM   27  O   UNL     1     -10.035   5.588  65.879  1.00  0.00    -0.084 OA 
HETATM   28  N   UNL     1      -7.715   8.558  64.208  1.00  0.00    -0.122 NA 
HETATM   29  O   UNL     1      -8.367   5.477  67.849  1.00  0.00    -0.100 OA 
HETATM   30  C   UNL     1      -7.843   7.353  64.862  1.00  0.00    -0.125 C  
HETATM   31  O   UNL     1      -7.720   6.247  64.353  1.00  0.00    -0.093 OA 
HETATM   32  P   UNL     1      -9.131   6.375  66.941  1.00  0.00    -0.142 P  
HETATM   33  N   UNL     1      -8.308   7.578  66.131  1.00  0.00    -0.131 N  
HETATM   34  N   UNL     1      -8.561   8.960  66.268  1.00  0.00    -0.127 NA 
ENDBRANCH  24  25
ENDBRANCH  19  24
BRANCH  20  35
HETATM   35  C   UNL     1      -8.414  11.925  67.560  1.00  0.00    -0.161 A  
HETATM   36  C   UNL     1      -7.026  11.684  69.554  1.00  0.00    -0.002 A  
HETATM   37  F   UNL     1      -5.363  13.297  69.999  1.00  0.00    -0.082 F  
HETATM   38  C   UNL     1      -8.068  11.232  68.739  1.00  0.00    -0.130 A  
HETATM   39  C   UNL     1      -6.641  13.525  68.033  1.00  0.00    -0.137 A  
HETATM   40  C   UNL     1      -7.673  13.064  67.209  1.00  0.00    -0.112 A  
HETATM   41  C   UNL     1      -6.332  12.839  69.198  1.00  0.00    -0.106 A  
ENDBRANCH  20  35
ENDBRANCH  17  18
ENDBRANCH   2  17
TORSDOF 6
ENDMDL
MODEL      243
REMARK 921   NORMALIZED FREE ENERGY PREDICTED BY IDOCK:   -3.78 KCAL/MOL
REMARK 922        TOTAL FREE ENERGY PREDICTED BY IDOCK:   -6.01 KCAL/MOL
REMARK 923 INTER-LIGAND FREE ENERGY PREDICTED BY IDOCK:   -7.01 KCAL/MOL
REMARK 924 INTRA-LIGAND FREE ENERGY PREDICTED BY IDOCK:    1.00 KCAL/MOL
REMARK 927      BINDING AFFINITY PREDICTED BY RF-SCORE:    0.00 PKD
ROOT
HETATM    1  C   UNL     1      -7.866  12.117  68.457  1.00  0.00    -0.122 C  
HETATM    2  C   UNL     1      -9.134  12.176  67.615  1.00  0.00    -0.181 C  
ENDROOT
BRANCH   2   3
HETATM    3  C   UNL     1      -9.601  13.595  67.361  1.00  0.00    -0.226 A  
HETATM    4  F   UNL     1     -10.898  15.007  63.539  1.00  0.00     1.028 F  
HETATM    5  F   UNL     1     -11.323  16.973  64.357  1.00  0.00    -0.380 F  
HETATM    6  C   UNL     1      -9.059  14.609  68.161  1.00  0.00    -0.187 A  
HETATM    7  C   UNL     1      -9.167  15.949  67.793  1.00  0.00    -0.201 A  
HETATM    8  F   UNL     1     -12.666  15.313  64.770  1.00  0.00    -0.166 F  
HETATM    9  C   UNL     1      -8.369  16.994  68.540  1.00  0.00    -0.260 C  
HETATM   10  C   UNL     1      -9.919  16.283  66.657  1.00  0.00    -0.274 A  
HETATM   11  C   UNL     1     -11.351  15.643  64.653  1.00  0.00    -0.349 C  
HETATM   12  C   UNL     1     -10.552  15.288  65.887  1.00  0.00    -0.345 A  
HETATM   13  F   UNL     1      -7.784  16.516  69.674  1.00  0.00    -0.193 F  
HETATM   14  F   UNL     1      -7.357  17.489  67.781  1.00  0.00    -0.174 F  
HETATM   15  C   UNL     1     -10.379  13.942  66.245  1.00  0.00    -0.293 A  
HETATM   16  F   UNL     1      -9.120  18.059  68.922  1.00  0.00    -0.288 F  
ENDBRANCH   2   3
BRANCH   2  17
HETATM   17  O   UNL     1     -10.182  11.401  68.222  1.00  0.00    -0.180 OA 
BRANCH  17  18
HETATM   18  C   UNL     1     -10.656  10.312  67.393  1.00  0.00    -0.270 C  
HETATM   19  N   UNL     1      -8.759   8.723  67.895  1.00  0.00    -0.136 NA 
HETATM   20  C   UNL     1     -10.237   8.877  67.940  1.00  0.00    -0.222 C  
HETATM   21  O   UNL     1     -10.212  10.449  66.033  1.00  0.00    -0.243 OA 
HETATM   22  C   UNL     1      -8.786  10.335  65.962  1.00  0.00    -0.150 C  
HETATM   23  C   UNL     1      -8.295   8.990  66.513  1.00  0.00    -0.115 C  
BRANCH  19  24
HETATM   24  C   UNL     1      -8.172   7.488  68.444  1.00  0.00    -0.125 C  
BRANCH  24  25
HETATM   25  C   UNL     1      -7.572   7.632  69.831  1.00  0.00    -0.092 C  
HETATM   26  O   UNL     1      -9.424   7.739  73.486  1.00  0.00    -0.268 OA 
HETATM   27  O   UNL     1      -7.478   6.322  73.980  1.00  0.00    -0.087 OA 
HETATM   28  N   UNL     1      -6.357   7.241  70.120  1.00  0.00    -0.030 NA 
HETATM   29  O   UNL     1      -7.372   8.840  74.545  1.00  0.00    -0.371 OA 
HETATM   30  C   UNL     1      -6.240   7.410  71.482  1.00  0.00    -0.036 C  
HETATM   31  O   UNL     1      -5.353   6.947  72.186  1.00  0.00    -0.035 OA 
HETATM   32  P   UNL     1      -7.816   7.826  73.551  1.00  0.00    -0.179 P  
HETATM   33  N   UNL     1      -7.368   8.025  71.956  1.00  0.00    -0.078 N  
HETATM   34  N   UNL     1      -8.269   8.184  70.881  1.00  0.00    -0.104 NA 
ENDBRANCH  24  25
ENDBRANCH  19  24
BRANCH  20  35
HETATM   35  C   UNL     1     -10.907   8.630  69.290  1.00  0.00    -0.082 A  
HETATM   36  C   UNL     1     -12.056   7.106  70.812  1.00  0.00    -0.331 A  
HETATM   37  F   UNL     1     -13.160   7.984  72.704  1.00  0.00    -0.167 F  
HETATM   38  C   UNL     1     -11.311   7.327  69.650  1.00  0.00    -0.042 A  
HETATM   39  C   UNL     1     -12.006   9.477  71.291  1.00  0.00    -0.445 A  
HETATM   40  C   UNL     1     -11.248   9.697  70.137  1.00  0.00    -0.302 A  
HETATM   41  C   UNL     1     -12.410   8.189  71.614  1.00  0.00    -0.314 A  
ENDBRANCH  20  35
ENDBRANCH  17  18
ENDBRANCH   2  17
TORSDOF 6
ENDMDL
MODEL      244
REMARK 921   NORMALIZED FREE ENERGY PREDICTED BY IDOCK:   -3.72 KCAL/MOL
REMARK 922        TOTAL FREE ENERGY PREDICTED BY IDOCK:   -5.93 KCAL/MOL
REMARK 923 INTER-LIGAND FREE ENERGY PREDICTED BY IDOCK:   -5.95 KCAL/MOL
REMARK 924 INTRA-LIGAND FREE ENERGY PREDICTED BY IDOCK:    0.02 KCAL/MOL
REMARK 927      BINDING AFFINITY PREDICTED BY RF-SCORE:    0.00 PKD
ROOT
HETATM    1  C   UNL     1      -7.335  12.971  67.667  1.00  0.00    -0.147 C  
HETATM    2  C   UNL     1      -8.057  12.399  66.453  1.00  0.00     0.357 C  
ENDROOT
BRANCH   2   3
HETATM    3  C   UNL     1      -9.027  13.384  65.834  1.00  0.00     0.497 A  
HETATM    4  F   UNL     1     -10.078  17.116  67.639  1.00  0.00    -0.267 F  
HETATM    5  F   UNL     1     -11.367  17.617  65.964  1.00  0.00     0.227 F  
HETATM    6  C   UNL     1     -10.042  12.870  65.018  1.00  0.00    -0.235 A  
HETATM    7  C   UNL     1     -11.155  13.640  64.683  1.00  0.00    -0.387 A  
HETATM    8  F   UNL     1      -9.207  17.746  65.746  1.00  0.00    -0.141 F  
HETATM    9  C   UNL     1     -12.340  12.984  64.010  1.00  0.00    -0.363 C  
HETATM   10  C   UNL     1     -11.200  14.981  65.091  1.00  0.00    -0.391 A  
HETATM   11  C   UNL     1     -10.201  16.991  66.289  1.00  0.00    -0.329 C  
HETATM   12  C   UNL     1     -10.149  15.550  65.835  1.00  0.00    -0.374 A  
HETATM   13  F   UNL     1     -12.086  11.713  63.590  1.00  0.00    -0.518 F  
HETATM   14  F   UNL     1     -13.405  12.892  64.849  1.00  0.00    -0.365 F  
HETATM   15  C   UNL     1      -9.067  14.737  66.209  1.00  0.00    -0.231 A  
HETATM   16  F   UNL     1     -12.769  13.665  62.917  1.00  0.00    -0.284 F  
ENDBRANCH   2   3
BRANCH   2  17
HETATM   17  O   UNL     1      -8.729  11.174  66.793  1.00  0.00    -0.147 OA 
BRANCH  17  18
HETATM   18  C   UNL     1      -8.764  10.904  68.216  1.00  0.00    -0.140 C  
HETATM   19  N   UNL     1     -10.449   9.026  68.108  1.00  0.00    -0.219 NA 
HETATM   20  C   UNL     1      -9.077   9.382  68.559  1.00  0.00    -0.131 C  
HETATM   21  O   UNL     1      -9.713  11.747  68.891  1.00  0.00    -0.117 OA 
HETATM   22  C   UNL     1     -11.044  11.446  68.454  1.00  0.00    -0.242 C  
HETATM   23  C   UNL     1     -11.410   9.980  68.711  1.00  0.00    -0.060 C  
BRANCH  19  24
HETATM   24  C   UNL     1     -10.889   7.628  68.262  1.00  0.00     0.037 C  
BRANCH  24  25
HETATM   25  C   UNL     1     -11.033   7.163  69.700  1.00  0.00    -0.212 C  
HETATM   26  O   UNL     1      -8.154   6.521  72.545  1.00  0.00    -0.104 OA 
HETATM   27  O   UNL     1      -9.899   7.630  73.875  1.00  0.00    -0.250 OA 
HETATM   28  N   UNL     1     -12.114   7.377  70.408  1.00  0.00    -0.042 NA 
HETATM   29  O   UNL     1      -9.753   5.051  73.898  1.00  0.00    -0.135 OA 
HETATM   30  C   UNL     1     -11.806   6.937  71.676  1.00  0.00    -0.324 C  
HETATM   31  O   UNL     1     -12.450   7.171  72.689  1.00  0.00     0.109 OA 
HETATM   32  P   UNL     1      -9.663   6.275  73.056  1.00  0.00    -0.160 P  
HETATM   33  N   UNL     1     -10.569   6.348  71.658  1.00  0.00    -0.217 N  
HETATM   34  N   UNL     1     -10.035   6.485  70.359  1.00  0.00    -0.178 NA 
ENDBRANCH  24  25
ENDBRANCH  19  24
BRANCH  20  35
HETATM   35  C   UNL     1      -7.941   8.500  68.046  1.00  0.00    -0.111 A  
HETATM   36  C   UNL     1      -6.180   8.095  66.403  1.00  0.00    -0.046 A  
HETATM   37  F   UNL     1      -5.176   5.962  66.295  1.00  0.00    -0.008 F  
HETATM   38  C   UNL     1      -7.126   8.946  66.983  1.00  0.00    -0.078 A  
HETATM   39  C   UNL     1      -6.827   6.338  67.935  1.00  0.00    -0.067 A  
HETATM   40  C   UNL     1      -7.763   7.193  68.525  1.00  0.00    -0.120 A  
HETATM   41  C   UNL     1      -6.052   6.792  66.877  1.00  0.00    -0.036 A  
ENDBRANCH  20  35
ENDBRANCH  17  18
ENDBRANCH   2  17
TORSDOF 6
ENDMDL
MODEL      245
REMARK 921   NORMALIZED FREE ENERGY PREDICTED BY IDOCK:   -3.66 KCAL/MOL
REMARK 922        TOTAL FREE ENERGY PREDICTED BY IDOCK:   -5.84 KCAL/MOL
REMARK 923 INTER-LIGAND FREE ENERGY PREDICTED BY IDOCK:   -6.56 KCAL/MOL
REMARK 924 INTRA-LIGAND FREE ENERGY PREDICTED BY IDOCK:    0.71 KCAL/MOL
REMARK 927      BINDING AFFINITY PREDICTED BY RF-SCORE:    0.00 PKD
ROOT
HETATM    1  C   UNL     1     -10.346  14.792  69.653  1.00  0.00    -0.084 C  
HETATM    2  C   UNL     1      -9.300  14.892  68.550  1.00  0.00    -0.196 C  
ENDROOT
BRANCH   2   3
HETATM    3  C   UNL     1      -9.020  16.323  68.140  1.00  0.00    -0.187 A  
HETATM    4  F   UNL     1      -5.330  17.601  66.398  1.00  0.00    -0.153 F  
HETATM    5  F   UNL     1      -6.066  19.636  66.215  1.00  0.00    -0.169 F  
HETATM    6  C   UNL     1      -9.667  17.341  68.851  1.00  0.00    -0.251 A  
HETATM    7  C   UNL     1      -9.230  18.662  68.774  1.00  0.00    -0.318 A  
HETATM    8  F   UNL     1      -6.771  18.101  64.846  1.00  0.00    -0.110 F  
HETATM    9  C   UNL     1      -9.788  19.689  69.733  1.00  0.00     0.218 C  
HETATM   10  C   UNL     1      -8.189  18.981  67.889  1.00  0.00    -0.311 A  
HETATM   11  C   UNL     1      -6.451  18.330  66.149  1.00  0.00    -0.231 C  
HETATM   12  C   UNL     1      -7.583  17.991  67.093  1.00  0.00    -0.226 A  
HETATM   13  F   UNL     1     -10.859  19.237  70.444  1.00  0.00     0.728 F  
HETATM   14  F   UNL     1      -8.864  20.068  70.654  1.00  0.00     0.580 F  
HETATM   15  C   UNL     1      -8.002  16.659  67.233  1.00  0.00    -0.193 A  
HETATM   16  F   UNL     1     -10.198  20.824  69.111  1.00  0.00    -0.135 F  
ENDBRANCH   2   3
BRANCH   2  17
HETATM   17  O   UNL     1      -9.690  14.107  67.410  1.00  0.00    -0.225 OA 
BRANCH  17  18
HETATM   18  C   UNL     1      -8.579  13.467  66.735  1.00  0.00    -0.024 C  
HETATM   19  N   UNL     1      -8.941  11.164  67.705  1.00  0.00    -0.137 NA 
HETATM   20  C   UNL     1      -8.830  11.925  66.432  1.00  0.00    -0.152 C  
HETATM   21  O   UNL     1      -7.355  13.612  67.476  1.00  0.00    -0.168 OA 
HETATM   22  C   UNL     1      -7.444  12.912  68.723  1.00  0.00    -0.047 C  
HETATM   23  C   UNL     1      -7.729  11.420  68.519  1.00  0.00    -0.133 C  
BRANCH  19  24
HETATM   24  C   UNL     1      -9.262   9.728  67.630  1.00  0.00    -0.130 C  
BRANCH  24  25
HETATM   25  C   UNL     1      -9.728   9.113  68.936  1.00  0.00    -0.162 C  
HETATM   26  O   UNL     1     -10.217   5.171  69.947  1.00  0.00    -0.255 OA 
HETATM   27  O   UNL     1      -9.191   6.063  71.994  1.00  0.00    -0.147 OA 
HETATM   28  N   UNL     1      -9.566   9.703  70.094  1.00  0.00    -0.243 NA 
HETATM   29  O   UNL     1     -11.760   5.811  71.885  1.00  0.00    -0.204 OA 
HETATM   30  C   UNL     1      -9.985   8.782  71.028  1.00  0.00    -0.234 C  
HETATM   31  O   UNL     1      -9.780   8.842  72.233  1.00  0.00    -0.284 OA 
HETATM   32  P   UNL     1     -10.536   6.209  71.139  1.00  0.00    -0.268 P  
HETATM   33  N   UNL     1     -10.512   7.695  70.382  1.00  0.00    -0.216 N  
HETATM   34  N   UNL     1     -10.354   7.889  68.993  1.00  0.00    -0.213 NA 
ENDBRANCH  24  25
ENDBRANCH  19  24
BRANCH  20  35
HETATM   35  C   UNL     1      -9.990  11.781  65.449  1.00  0.00    -0.284 A  
HETATM   36  C   UNL     1     -10.769  11.335  63.178  1.00  0.00    -0.173 A  
HETATM   37  F   UNL     1     -13.002  11.842  62.608  1.00  0.00    -0.340 F  
HETATM   38  C   UNL     1      -9.748  11.331  64.133  1.00  0.00    -0.298 A  
HETATM   39  C   UNL     1     -12.301  12.226  64.825  1.00  0.00    -0.416 A  
HETATM   40  C   UNL     1     -11.284  12.209  65.785  1.00  0.00    -0.384 A  
HETATM   41  C   UNL     1     -12.034  11.798  63.532  1.00  0.00    -0.380 A  
ENDBRANCH  20  35
ENDBRANCH  17  18
ENDBRANCH   2  17
TORSDOF 6
ENDMDL
MODEL      246
REMARK 921   NORMALIZED FREE ENERGY PREDICTED BY IDOCK:   -3.09 KCAL/MOL
REMARK 922        TOTAL FREE ENERGY PREDICTED BY IDOCK:   -5.08 KCAL/MOL
REMARK 923 INTER-LIGAND FREE ENERGY PREDICTED BY IDOCK:   -7.72 KCAL/MOL
REMARK 924 INTRA-LIGAND FREE ENERGY PREDICTED BY IDOCK:    2.63 KCAL/MOL
REMARK 927      BINDING AFFINITY PREDICTED BY RF-SCORE:    0.00 PKD
ROOT
HETATM    1  C   UNL     1     -12.313  12.818  66.778  1.00  0.00     0.087 C  
HETATM    2  C   UNL     1     -11.884  11.698  67.717  1.00  0.00    -0.176 C  
ENDROOT
BRANCH   2   3
HETATM    3  C   UNL     1     -12.363  11.913  69.138  1.00  0.00     0.030 A  
HETATM    4  F   UNL     1     -11.127  15.202  71.576  1.00  0.00    -0.394 F  
HETATM    5  F   UNL     1     -12.391  14.527  73.209  1.00  0.00    -0.412 F  
HETATM    6  C   UNL     1     -12.705  10.779  69.887  1.00  0.00    -0.097 A  
HETATM    7  C   UNL     1     -12.832  10.844  71.273  1.00  0.00    -0.536 A  
HETATM    8  F   UNL     1     -13.282  15.486  71.473  1.00  0.00    -0.419 F  
HETATM    9  C   UNL     1     -12.959   9.566  72.070  1.00  0.00    -0.426 C  
HETATM   10  C   UNL     1     -12.713  12.090  71.907  1.00  0.00    -0.208 A  
HETATM   11  C   UNL     1     -12.318  14.603  71.850  1.00  0.00    -0.338 C  
HETATM   12  C   UNL     1     -12.461  13.261  71.168  1.00  0.00    -0.397 A  
HETATM   13  F   UNL     1     -13.167   8.465  71.295  1.00  0.00    -0.318 F  
HETATM   14  F   UNL     1     -11.834   9.308  72.787  1.00  0.00    -0.141 F  
HETATM   15  C   UNL     1     -12.279  13.159  69.779  1.00  0.00    -0.266 A  
HETATM   16  F   UNL     1     -13.982   9.600  72.962  1.00  0.00    -0.220 F  
ENDBRANCH   2   3
BRANCH   2  17
HETATM   17  O   UNL     1     -10.456  11.529  67.686  1.00  0.00    -0.181 OA 
BRANCH  17  18
HETATM   18  C   UNL     1      -9.773  12.496  66.850  1.00  0.00    -0.232 C  
HETATM   19  N   UNL     1      -8.025  13.157  68.548  1.00  0.00    -0.126 NA 
HETATM   20  C   UNL     1      -8.220  12.622  67.175  1.00  0.00    -0.159 C  
HETATM   21  O   UNL     1     -10.383  13.796  66.938  1.00  0.00    -0.262 OA 
HETATM   22  C   UNL     1     -10.236  14.325  68.261  1.00  0.00    -0.244 C  
HETATM   23  C   UNL     1      -8.762  14.438  68.668  1.00  0.00    -0.164 C  
BRANCH  19  24
HETATM   24  C   UNL     1      -6.648  13.263  69.063  1.00  0.00    -0.104 C  
BRANCH  24  25
HETATM   25  C   UNL     1      -6.144  14.684  69.238  1.00  0.00    -0.107 C  
HETATM   26  O   UNL     1      -7.324  18.131  67.360  1.00  0.00    -0.206 OA 
HETATM   27  O   UNL     1      -7.067  18.914  69.676  1.00  0.00    -0.109 OA 
HETATM   28  N   UNL     1      -5.617  15.116  70.356  1.00  0.00    -0.134 NA 
HETATM   29  O   UNL     1      -5.134  19.286  68.002  1.00  0.00    -0.168 OA 
HETATM   30  C   UNL     1      -5.419  16.464  70.163  1.00  0.00    -0.188 C  
HETATM   31  O   UNL     1      -5.168  17.282  71.038  1.00  0.00    -0.253 OA 
HETATM   32  P   UNL     1      -6.178  18.338  68.475  1.00  0.00    -0.214 P  
HETATM   33  N   UNL     1      -5.724  16.782  68.865  1.00  0.00    -0.142 N  
HETATM   34  N   UNL     1      -6.208  15.618  68.230  1.00  0.00    -0.109 NA 
ENDBRANCH  24  25
ENDBRANCH  19  24
BRANCH  20  35
HETATM   35  C   UNL     1      -7.524  11.302  66.853  1.00  0.00    -0.145 A  
HETATM   36  C   UNL     1      -6.885   9.616  65.205  1.00  0.00    -0.096 A  
HETATM   37  F   UNL     1      -6.096   7.521  65.949  1.00  0.00    -0.035 F  
HETATM   38  C   UNL     1      -7.384  10.886  65.511  1.00  0.00     0.106 A  
HETATM   39  C   UNL     1      -6.643   9.147  67.566  1.00  0.00    -0.065 A  
HETATM   40  C   UNL     1      -7.128  10.422  67.872  1.00  0.00    -0.083 A  
HETATM   41  C   UNL     1      -6.534   8.753  66.240  1.00  0.00    -0.065 A  
ENDBRANCH  20  35
ENDBRANCH  17  18
ENDBRANCH   2  17
TORSDOF 6
ENDMDL
MODEL      247
REMARK 921   NORMALIZED FREE ENERGY PREDICTED BY IDOCK:   -2.97 KCAL/MOL
REMARK 922        TOTAL FREE ENERGY PREDICTED BY IDOCK:   -4.92 KCAL/MOL
REMARK 923 INTER-LIGAND FREE ENERGY PREDICTED BY IDOCK:   -8.49 KCAL/MOL
REMARK 924 INTRA-LIGAND FREE ENERGY PREDICTED BY IDOCK:    3.58 KCAL/MOL
REMARK 927      BINDING AFFINITY PREDICTED BY RF-SCORE:    0.00 PKD
ROOT
HETATM    1  C   UNL     1      -8.550  13.296  68.276  1.00  0.00    -0.169 C  
HETATM    2  C   UNL     1      -9.815  12.763  67.616  1.00  0.00    -0.214 C  
ENDROOT
BRANCH   2   3
HETATM    3  C   UNL     1      -9.544  11.589  66.698  1.00  0.00    -0.215 A  
HETATM    4  F   UNL     1     -10.755  11.466  62.598  1.00  0.00    -0.099 F  
HETATM    5  F   UNL     1      -9.851   9.508  62.341  1.00  0.00    -0.055 F  
HETATM    6  C   UNL     1      -9.458  10.317  67.278  1.00  0.00    -0.174 A  
HETATM    7  C   UNL     1      -9.543   9.165  66.499  1.00  0.00    -0.289 A  
HETATM    8  F   UNL     1      -8.593  11.278  62.447  1.00  0.00    -0.298 F  
HETATM    9  C   UNL     1      -9.693   7.819  67.173  1.00  0.00    -0.186 C  
HETATM   10  C   UNL     1      -9.615   9.292  65.104  1.00  0.00    -0.103 A  
HETATM   11  C   UNL     1      -9.700  10.699  62.986  1.00  0.00    -0.323 C  
HETATM   12  C   UNL     1      -9.609  10.558  64.489  1.00  0.00    -0.359 A  
HETATM   13  F   UNL     1      -9.495   7.866  68.520  1.00  0.00    -0.146 F  
HETATM   14  F   UNL     1     -10.939   7.307  66.999  1.00  0.00    -0.397 F  
HETATM   15  C   UNL     1      -9.581  11.704  65.299  1.00  0.00    -0.220 A  
HETATM   16  F   UNL     1      -8.825   6.891  66.696  1.00  0.00    -0.116 F  
ENDBRANCH   2   3
BRANCH   2  17
HETATM   17  O   UNL     1     -10.498  13.811  66.907  1.00  0.00    -0.269 OA 
BRANCH  17  18
HETATM   18  C   UNL     1      -9.710  14.407  65.847  1.00  0.00    -0.276 C  
HETATM   19  N   UNL     1     -10.622  16.749  66.093  1.00  0.00    -0.260 NA 
HETATM   20  C   UNL     1      -9.373  15.942  66.100  1.00  0.00    -0.350 C  
HETATM   21  O   UNL     1     -10.351  14.267  64.567  1.00  0.00    -0.357 OA 
HETATM   22  C   UNL     1     -11.575  15.011  64.542  1.00  0.00    -0.343 C  
HETATM   23  C   UNL     1     -11.341  16.500  64.820  1.00  0.00    -0.075 C  
BRANCH  19  24
HETATM   24  C   UNL     1     -10.521  18.187  66.398  1.00  0.00    -0.350 C  
BRANCH  24  25
HETATM   25  C   UNL     1      -9.105  18.731  66.427  1.00  0.00    -0.300 C  
HETATM   26  O   UNL     1      -6.772  19.789  69.626  1.00  0.00    -0.344 OA 
HETATM   27  O   UNL     1      -5.134  18.631  68.205  1.00  0.00    -0.172 OA 
HETATM   28  N   UNL     1      -8.229  18.478  65.486  1.00  0.00    -0.023 NA 
HETATM   29  O   UNL     1      -5.269  21.210  68.120  1.00  0.00    -0.269 OA 
HETATM   30  C   UNL     1      -7.049  19.023  65.938  1.00  0.00    -0.263 C  
HETATM   31  O   UNL     1      -5.937  18.804  65.475  1.00  0.00    -0.180 OA 
HETATM   32  P   UNL     1      -6.049  19.945  68.193  1.00  0.00    -0.256 P  
HETATM   33  N   UNL     1      -7.286  19.707  67.101  1.00  0.00    -0.214 N  
HETATM   34  N   UNL     1      -8.643  19.529  67.447  1.00  0.00    -0.296 NA 
ENDBRANCH  24  25
ENDBRANCH  19  24
BRANCH  20  35
HETATM   35  C   UNL     1      -8.485  16.071  67.335  1.00  0.00    -0.187 A  
HETATM   36  C   UNL     1      -6.285  15.839  68.368  1.00  0.00    -0.101 A  
HETATM   37  F   UNL     1      -6.103  15.923  70.720  1.00  0.00    -0.050 F  
HETATM   38  C   UNL     1      -7.092  15.871  67.227  1.00  0.00    -0.242 A  
HETATM   39  C   UNL     1      -8.233  16.215  69.752  1.00  0.00     0.431 A  
HETATM   40  C   UNL     1      -9.038  16.263  68.611  1.00  0.00    -0.228 A  
HETATM   41  C   UNL     1      -6.869  15.996  69.623  1.00  0.00    -0.153 A  
ENDBRANCH  20  35
ENDBRANCH  17  18
ENDBRANCH   2  17
TORSDOF 6
ENDMDL
MODEL      248
REMARK 921   NORMALIZED FREE ENERGY PREDICTED BY IDOCK:   -2.94 KCAL/MOL
REMARK 922        TOTAL FREE ENERGY PREDICTED BY IDOCK:   -4.88 KCAL/MOL
REMARK 923 INTER-LIGAND FREE ENERGY PREDICTED BY IDOCK:   -6.65 KCAL/MOL
REMARK 924 INTRA-LIGAND FREE ENERGY PREDICTED BY IDOCK:    1.77 KCAL/MOL
REMARK 927      BINDING AFFINITY PREDICTED BY RF-SCORE:    0.00 PKD
ROOT
HETATM    1  C   UNL     1      -8.341   9.053  69.309  1.00  0.00    -0.122 C  
HETATM    2  C   UNL     1      -9.829   8.917  69.011  1.00  0.00    -0.180 C  
ENDROOT
BRANCH   2   3
HETATM    3  C   UNL     1     -10.557  10.245  69.055  1.00  0.00    -0.247 A  
HETATM    4  F   UNL     1      -8.741  13.971  68.004  1.00  0.00    -0.150 F  
HETATM    5  F   UNL     1     -10.598  15.035  68.377  1.00  0.00    -0.225 F  
HETATM    6  C   UNL     1     -11.590  10.388  69.990  1.00  0.00    -0.378 A  
HETATM    7  C   UNL     1     -12.083  11.646  70.330  1.00  0.00    -0.462 A  
HETATM    8  F   UNL     1     -10.378  13.835  66.577  1.00  0.00    -0.268 F  
HETATM    9  C   UNL     1     -13.019  11.786  71.510  1.00  0.00    -0.341 C  
HETATM   10  C   UNL     1     -11.600  12.772  69.646  1.00  0.00    -0.322 A  
HETATM   11  C   UNL     1     -10.094  13.859  67.907  1.00  0.00    -0.242 C  
HETATM   12  C   UNL     1     -10.627  12.646  68.637  1.00  0.00    -0.245 A  
HETATM   13  F   UNL     1     -13.467  10.592  71.987  1.00  0.00    -0.481 F  
HETATM   14  F   UNL     1     -12.414  12.402  72.559  1.00  0.00     0.096 F  
HETATM   15  C   UNL     1     -10.105  11.374  68.354  1.00  0.00    -0.207 A  
HETATM   16  F   UNL     1     -14.125  12.518  71.221  1.00  0.00     0.470 F  
ENDBRANCH   2   3
BRANCH   2  17
HETATM   17  O   UNL     1     -10.442   7.975  69.907  1.00  0.00    -0.223 OA 
BRANCH  17  18
HETATM   18  C   UNL     1     -11.080   6.861  69.235  1.00  0.00    -0.184 C  
HETATM   19  N   UNL     1      -8.959   5.791  68.378  1.00  0.00    -0.112 NA 
HETATM   20  C   UNL     1     -10.177   5.550  69.195  1.00  0.00    -0.239 C  
HETATM   21  O   UNL     1     -11.474   7.206  67.896  1.00  0.00     0.205 OA 
HETATM   22  C   UNL     1     -10.320   7.473  67.091  1.00  0.00    -0.313 C  
HETATM   23  C   UNL     1      -9.373   6.267  67.036  1.00  0.00    -0.126 C  
BRANCH  19  24
HETATM   24  C   UNL     1      -7.955   4.716  68.295  1.00  0.00    -0.084 C  
BRANCH  24  25
HETATM   25  C   UNL     1      -7.899   4.001  66.957  1.00  0.00    -0.095 C  
HETATM   26  O   UNL     1     -10.855   3.412  64.179  1.00  0.00    -0.194 OA 
HETATM   27  O   UNL     1      -8.945   3.962  62.733  1.00  0.00    -0.096 OA 
HETATM   28  N   UNL     1      -6.800   3.902  66.253  1.00  0.00    -0.056 NA 
HETATM   29  O   UNL     1      -9.547   1.481  63.128  1.00  0.00    -0.093 OA 
HETATM   30  C   UNL     1      -7.185   3.319  65.066  1.00  0.00    -0.066 C  
HETATM   31  O   UNL     1      -6.513   3.266  64.045  1.00  0.00    -0.029 OA 
HETATM   32  P   UNL     1      -9.415   2.824  63.755  1.00  0.00    -0.121 P  
HETATM   33  N   UNL     1      -8.507   2.968  65.147  1.00  0.00    -0.096 N  
HETATM   34  N   UNL     1      -9.004   3.409  66.391  1.00  0.00    -0.140 NA 
ENDBRANCH  24  25
ENDBRANCH  19  24
BRANCH  20  35
HETATM   35  C   UNL     1      -9.954   5.042  70.618  1.00  0.00    -0.300 A  
HETATM   36  C   UNL     1      -9.777   5.512  73.008  1.00  0.00    -0.164 A  
HETATM   37  F   UNL     1      -8.888   3.863  74.442  1.00  0.00    -0.093 F  
HETATM   38  C   UNL     1     -10.120   5.916  71.714  1.00  0.00    -0.228 A  
HETATM   39  C   UNL     1      -9.104   3.352  72.151  1.00  0.00    -0.149 A  
HETATM   40  C   UNL     1      -9.461   3.750  70.859  1.00  0.00    -0.236 A  
HETATM   41  C   UNL     1      -9.257   4.236  73.210  1.00  0.00    -0.109 A  
ENDBRANCH  20  35
ENDBRANCH  17  18
ENDBRANCH   2  17
TORSDOF 6
ENDMDL
MODEL      249
REMARK 921   NORMALIZED FREE ENERGY PREDICTED BY IDOCK:   -2.94 KCAL/MOL
REMARK 922        TOTAL FREE ENERGY PREDICTED BY IDOCK:   -4.87 KCAL/MOL
REMARK 923 INTER-LIGAND FREE ENERGY PREDICTED BY IDOCK:   -4.96 KCAL/MOL
REMARK 924 INTRA-LIGAND FREE ENERGY PREDICTED BY IDOCK:    0.09 KCAL/MOL
REMARK 927      BINDING AFFINITY PREDICTED BY RF-SCORE:    0.00 PKD
ROOT
HETATM    1  C   UNL     1     -10.760   8.376  66.342  1.00  0.00     0.561 C  
HETATM    2  C   UNL     1     -10.624   9.261  67.574  1.00  0.00    -0.262 C  
ENDROOT
BRANCH   2   3
HETATM    3  C   UNL     1     -10.071  10.633  67.248  1.00  0.00    -0.238 A  
HETATM    4  F   UNL     1      -6.390  12.133  68.824  1.00  0.00    -0.060 F  
HETATM    5  F   UNL     1      -6.613  13.985  67.712  1.00  0.00    -0.119 F  
HETATM    6  C   UNL     1     -10.988  11.649  66.947  1.00  0.00    -0.342 A  
HETATM    7  C   UNL     1     -10.607  12.989  66.963  1.00  0.00    -0.262 A  
HETATM    8  F   UNL     1      -6.022  12.165  66.680  1.00  0.00    -0.144 F  
HETATM    9  C   UNL     1     -11.666  14.065  66.877  1.00  0.00    -0.410 C  
HETATM   10  C   UNL     1      -9.259  13.309  67.184  1.00  0.00    -0.235 A  
HETATM   11  C   UNL     1      -6.848  12.644  67.649  1.00  0.00    -0.144 C  
HETATM   12  C   UNL     1      -8.299  12.302  67.396  1.00  0.00    -0.177 A  
HETATM   13  F   UNL     1     -12.899  13.584  66.558  1.00  0.00    -0.307 F  
HETATM   14  F   UNL     1     -11.816  14.716  68.060  1.00  0.00    -0.328 F  
HETATM   15  C   UNL     1      -8.719  10.962  67.434  1.00  0.00    -0.130 A  
HETATM   16  F   UNL     1     -11.378  15.015  65.950  1.00  0.00    -0.339 F  
ENDBRANCH   2   3
BRANCH   2  17
HETATM   17  O   UNL     1      -9.818   8.617  68.575  1.00  0.00    -0.160 OA 
BRANCH  17  18
HETATM   18  C   UNL     1      -8.860   9.499  69.209  1.00  0.00    -0.153 C  
HETATM   19  N   UNL     1      -7.779   7.746  70.671  1.00  0.00    -0.089 NA 
HETATM   20  C   UNL     1      -7.509   8.767  69.624  1.00  0.00    -0.071 C  
HETATM   21  O   UNL     1      -9.422  10.148  70.363  1.00  0.00    -0.017 OA 
HETATM   22  C   UNL     1      -9.721   9.183  71.379  1.00  0.00    -0.268 C  
HETATM   23  C   UNL     1      -8.473   8.401  71.806  1.00  0.00    -0.165 C  
BRANCH  19  24
HETATM   24  C   UNL     1      -6.660   6.901  71.122  1.00  0.00    -0.052 C  
BRANCH  24  25
HETATM   25  C   UNL     1      -7.013   5.441  71.336  1.00  0.00    -0.065 C  
HETATM   26  O   UNL     1     -10.625   3.726  72.240  1.00  0.00    -0.076 OA 
HETATM   27  O   UNL     1      -9.750   2.143  70.576  1.00  0.00    -0.092 OA 
HETATM   28  N   UNL     1      -6.347   4.462  70.776  1.00  0.00    -0.025 NA 
HETATM   29  O   UNL     1      -9.461   1.611  73.088  1.00  0.00    -0.071 OA 
HETATM   30  C   UNL     1      -7.049   3.321  71.096  1.00  0.00    -0.033 C  
HETATM   31  O   UNL     1      -6.900   2.223  70.577  1.00  0.00    -0.032 OA 
HETATM   32  P   UNL     1      -9.417   2.675  72.049  1.00  0.00    -0.141 P  
HETATM   33  N   UNL     1      -8.063   3.645  71.958  1.00  0.00    -0.070 N  
HETATM   34  N   UNL     1      -8.062   5.045  72.132  1.00  0.00    -0.110 NA 
ENDBRANCH  24  25
ENDBRANCH  19  24
BRANCH  20  35
HETATM   35  C   UNL     1      -6.787   8.282  68.369  1.00  0.00    -0.065 A  
HETATM   36  C   UNL     1      -5.168   8.700  66.589  1.00  0.00    -0.035 A  
HETATM   37  F   UNL     1      -5.131   7.273  64.710  1.00  0.00    -0.025 F  
HETATM   38  C   UNL     1      -5.740   9.050  67.816  1.00  0.00    -0.039 A  
HETATM   39  C   UNL     1      -6.662   6.804  66.439  1.00  0.00    -0.049 A  
HETATM   40  C   UNL     1      -7.224   7.145  67.673  1.00  0.00    -0.091 A  
HETATM   41  C   UNL     1      -5.648   7.585  65.905  1.00  0.00    -0.032 A  
ENDBRANCH  20  35
ENDBRANCH  17  18
ENDBRANCH   2  17
TORSDOF 6
ENDMDL
MODEL      250
REMARK 921   NORMALIZED FREE ENERGY PREDICTED BY IDOCK:   -2.88 KCAL/MOL
REMARK 922        TOTAL FREE ENERGY PREDICTED BY IDOCK:   -4.80 KCAL/MOL
REMARK 923 INTER-LIGAND FREE ENERGY PREDICTED BY IDOCK:   -5.80 KCAL/MOL
REMARK 924 INTRA-LIGAND FREE ENERGY PREDICTED BY IDOCK:    1.00 KCAL/MOL
REMARK 927      BINDING AFFINITY PREDICTED BY RF-SCORE:    0.00 PKD
ROOT
HETATM    1  C   UNL     1      -7.568   7.429  68.665  1.00  0.00    -0.110 C  
HETATM    2  C   UNL     1      -8.533   6.919  67.602  1.00  0.00    -0.122 C  
ENDROOT
BRANCH   2   3
HETATM    3  C   UNL     1      -7.892   5.916  66.665  1.00  0.00    -0.101 A  
HETATM    4  F   UNL     1      -9.386   5.046  62.754  1.00  0.00    -0.108 F  
HETATM    5  F   UNL     1      -7.769   3.640  62.398  1.00  0.00    -0.055 F  
HETATM    6  C   UNL     1      -7.208   4.837  67.239  1.00  0.00    -0.073 A  
HETATM    7  C   UNL     1      -6.881   3.711  66.486  1.00  0.00    -0.054 A  
HETATM    8  F   UNL     1      -7.381   5.778  62.331  1.00  0.00    -0.043 F  
HETATM    9  C   UNL     1      -6.367   2.472  67.183  1.00  0.00    -0.032 C  
HETATM   10  C   UNL     1      -7.155   3.711  65.110  1.00  0.00    -0.066 A  
HETATM   11  C   UNL     1      -8.069   4.820  63.010  1.00  0.00    -0.090 C  
HETATM   12  C   UNL     1      -7.759   4.822  64.490  1.00  0.00    -0.082 A  
HETATM   13  F   UNL     1      -6.059   2.679  68.494  1.00  0.00    -0.022 F  
HETATM   14  F   UNL     1      -7.287   1.472  67.172  1.00  0.00    -0.047 F  
HETATM   15  C   UNL     1      -8.132   5.920  65.282  1.00  0.00    -0.133 A  
HETATM   16  F   UNL     1      -5.246   1.968  66.606  1.00  0.00    -0.004 F  
ENDBRANCH   2   3
BRANCH   2  17
HETATM   17  O   UNL     1      -9.096   8.015  66.860  1.00  0.00    -0.139 OA 
BRANCH  17  18
HETATM   18  C   UNL     1     -10.534   8.132  66.994  1.00  0.00    -0.326 C  
HETATM   19  N   UNL     1     -10.607   7.910  69.508  1.00  0.00    -0.230 NA 
HETATM   20  C   UNL     1     -10.986   8.790  68.371  1.00  0.00     0.156 C  
HETATM   21  O   UNL     1     -11.185   6.859  66.840  1.00  0.00    -0.353 OA 
HETATM   22  C   UNL     1     -10.815   5.979  67.908  1.00  0.00    -0.290 C  
HETATM   23  C   UNL     1     -11.180   6.562  69.278  1.00  0.00    -0.328 C  
BRANCH  19  24
HETATM   24  C   UNL     1     -10.867   8.393  70.876  1.00  0.00    -0.231 C  
BRANCH  24  25
HETATM   25  C   UNL     1      -9.804   8.021  71.893  1.00  0.00    -0.191 C  
HETATM   26  O   UNL     1      -7.233   4.829  71.943  1.00  0.00    -0.059 OA 
HETATM   27  O   UNL     1      -5.750   6.646  72.679  1.00  0.00    -0.037 OA 
HETATM   28  N   UNL     1      -9.197   8.909  72.639  1.00  0.00    -0.208 NA 
HETATM   29  O   UNL     1      -6.844   5.122  74.455  1.00  0.00    -0.074 OA 
HETATM   30  C   UNL     1      -8.224   8.206  73.315  1.00  0.00    -0.199 C  
HETATM   31  O   UNL     1      -7.287   8.694  73.932  1.00  0.00    -0.356 OA 
HETATM   32  P   UNL     1      -7.049   5.853  73.175  1.00  0.00    -0.086 P  
HETATM   33  N   UNL     1      -8.364   6.871  73.040  1.00  0.00    -0.114 N  
HETATM   34  N   UNL     1      -9.404   6.721  72.099  1.00  0.00    -0.141 NA 
ENDBRANCH  24  25
ENDBRANCH  19  24
BRANCH  20  35
HETATM   35  C   UNL     1     -10.493  10.233  68.432  1.00  0.00    -0.228 A  
HETATM   36  C   UNL     1     -10.885  12.603  67.990  1.00  0.00    -0.249 A  
HETATM   37  F   UNL     1      -9.072  14.109  68.104  1.00  0.00    -0.166 F  
HETATM   38  C   UNL     1     -11.360  11.291  68.084  1.00  0.00    -0.372 A  
HETATM   39  C   UNL     1      -8.671  11.840  68.598  1.00  0.00    -0.059 A  
HETATM   40  C   UNL     1      -9.149  10.531  68.707  1.00  0.00    -0.166 A  
HETATM   41  C   UNL     1      -9.538  12.861  68.234  1.00  0.00    -0.212 A  
ENDBRANCH  20  35
ENDBRANCH  17  18
ENDBRANCH   2  17
TORSDOF 6
ENDMDL
MODEL      251
REMARK 921   NORMALIZED FREE ENERGY PREDICTED BY IDOCK:   -2.84 KCAL/MOL
REMARK 922        TOTAL FREE ENERGY PREDICTED BY IDOCK:   -4.74 KCAL/MOL
REMARK 923 INTER-LIGAND FREE ENERGY PREDICTED BY IDOCK:   -7.70 KCAL/MOL
REMARK 924 INTRA-LIGAND FREE ENERGY PREDICTED BY IDOCK:    2.96 KCAL/MOL
REMARK 927      BINDING AFFINITY PREDICTED BY RF-SCORE:    0.00 PKD
ROOT
HETATM    1  C   UNL     1     -10.568  10.502  68.733  1.00  0.00    -0.233 C  
HETATM    2  C   UNL     1      -9.724  10.399  67.469  1.00  0.00    -0.169 C  
ENDROOT
BRANCH   2   3
HETATM    3  C   UNL     1      -8.984   9.081  67.368  1.00  0.00    -0.135 A  
HETATM    4  F   UNL     1     -10.809   5.439  66.065  1.00  0.00    -0.277 F  
HETATM    5  F   UNL     1      -8.929   4.369  66.270  1.00  0.00    -0.115 F  
HETATM    6  C   UNL     1      -7.912   8.869  68.245  1.00  0.00    -0.105 A  
HETATM    7  C   UNL     1      -7.396   7.592  68.453  1.00  0.00    -0.099 A  
HETATM    8  F   UNL     1      -9.232   5.719  64.592  1.00  0.00     0.060 F  
HETATM    9  C   UNL     1      -6.412   7.360  69.578  1.00  0.00    -0.036 C  
HETATM   10  C   UNL     1      -7.896   6.524  67.692  1.00  0.00    -0.110 A  
HETATM   11  C   UNL     1      -9.462   5.576  65.925  1.00  0.00    -0.096 C  
HETATM   12  C   UNL     1      -8.910   6.727  66.737  1.00  0.00    -0.127 A  
HETATM   13  F   UNL     1      -5.955   8.513  70.141  1.00  0.00    -0.030 F  
HETATM   14  F   UNL     1      -6.969   6.648  70.592  1.00  0.00    -0.057 F  
HETATM   15  C   UNL     1      -9.454   8.012  66.588  1.00  0.00    -0.273 A  
HETATM   16  F   UNL     1      -5.312   6.670  69.183  1.00  0.00    -0.011 F  
ENDBRANCH   2   3
BRANCH   2  17
HETATM   17  O   UNL     1      -8.806  11.501  67.380  1.00  0.00    -0.151 OA 
BRANCH  17  18
HETATM   18  C   UNL     1      -9.199  12.512  66.419  1.00  0.00    -0.177 C  
HETATM   19  N   UNL     1     -10.788  13.751  67.940  1.00  0.00    -0.240 NA 
HETATM   20  C   UNL     1      -9.578  13.904  67.090  1.00  0.00    -0.247 C  
HETATM   21  O   UNL     1     -10.294  12.066  65.600  1.00  0.00    -0.237 OA 
HETATM   22  C   UNL     1     -11.469  11.881  66.400  1.00  0.00    -0.304 C  
HETATM   23  C   UNL     1     -11.878  13.173  67.118  1.00  0.00    -0.369 C  
BRANCH  19  24
HETATM   24  C   UNL     1     -11.244  14.918  68.716  1.00  0.00    -0.275 C  
BRANCH  24  25
HETATM   25  C   UNL     1     -10.525  16.215  68.393  1.00  0.00    -0.274 C  
HETATM   26  O   UNL     1     -11.119  18.839  65.301  1.00  0.00    -0.399 OA 
HETATM   27  O   UNL     1     -10.775  20.387  67.179  1.00  0.00    -0.090 OA 
HETATM   28  N   UNL     1      -9.953  16.955  69.310  1.00  0.00    -0.225 NA 
HETATM   29  O   UNL     1      -8.784  19.830  65.631  1.00  0.00    -0.338 OA 
HETATM   30  C   UNL     1      -9.542  18.091  68.650  1.00  0.00    -0.328 C  
HETATM   31  O   UNL     1      -9.178  19.133  69.179  1.00  0.00    -0.280 OA 
HETATM   32  P   UNL     1      -9.972  19.284  66.342  1.00  0.00    -0.454 P  
HETATM   33  N   UNL     1      -9.774  17.939  67.308  1.00  0.00    -0.282 N  
HETATM   34  N   UNL     1     -10.426  16.703  67.111  1.00  0.00    -0.314 NA 
ENDBRANCH  24  25
ENDBRANCH  19  24
BRANCH  20  35
HETATM   35  C   UNL     1      -8.343  14.498  67.763  1.00  0.00    -0.173 A  
HETATM   36  C   UNL     1      -7.037  14.871  69.792  1.00  0.00    -0.156 A  
HETATM   37  F   UNL     1      -5.298  16.466  69.763  1.00  0.00    -0.119 F  
HETATM   38  C   UNL     1      -8.076  14.221  69.121  1.00  0.00     0.074 A  
HETATM   39  C   UNL     1      -6.496  16.085  67.770  1.00  0.00    -0.178 A  
HETATM   40  C   UNL     1      -7.526  15.424  67.094  1.00  0.00    -0.224 A  
HETATM   41  C   UNL     1      -6.266  15.811  69.111  1.00  0.00    -0.126 A  
ENDBRANCH  20  35
ENDBRANCH  17  18
ENDBRANCH   2  17
TORSDOF 6
ENDMDL
MODEL      252
REMARK 921   NORMALIZED FREE ENERGY PREDICTED BY IDOCK:   -2.83 KCAL/MOL
REMARK 922        TOTAL FREE ENERGY PREDICTED BY IDOCK:   -4.72 KCAL/MOL
REMARK 923 INTER-LIGAND FREE ENERGY PREDICTED BY IDOCK:   -4.80 KCAL/MOL
REMARK 924 INTRA-LIGAND FREE ENERGY PREDICTED BY IDOCK:    0.07 KCAL/MOL
REMARK 927      BINDING AFFINITY PREDICTED BY RF-SCORE:    0.00 PKD
ROOT
HETATM    1  C   UNL     1      -9.720   4.801  65.486  1.00  0.00    -0.166 C  
HETATM    2  C   UNL     1      -9.719   5.798  66.637  1.00  0.00    -0.157 C  
ENDROOT
BRANCH   2   3
HETATM    3  C   UNL     1      -9.166   7.150  66.237  1.00  0.00    -0.169 A  
HETATM    4  F   UNL     1     -11.530  10.708  66.043  1.00  0.00     0.059 F  
HETATM    5  F   UNL     1      -9.797  11.884  65.466  1.00  0.00    -0.231 F  
HETATM    6  C   UNL     1      -8.077   7.172  65.356  1.00  0.00    -0.137 A  
HETATM    7  C   UNL     1      -7.720   8.338  64.683  1.00  0.00    -0.117 A  
HETATM    8  F   UNL     1     -10.027  11.232  67.527  1.00  0.00    -0.183 F  
HETATM    9  C   UNL     1      -6.706   8.272  63.563  1.00  0.00    -0.084 C  
HETATM   10  C   UNL     1      -8.403   9.528  64.977  1.00  0.00    -0.148 A  
HETATM   11  C   UNL     1     -10.189  10.831  66.237  1.00  0.00    -0.245 C  
HETATM   12  C   UNL     1      -9.440   9.553  65.928  1.00  0.00    -0.307 A  
HETATM   13  F   UNL     1      -6.067   7.071  63.485  1.00  0.00    -0.040 F  
HETATM   14  F   UNL     1      -7.285   8.464  62.349  1.00  0.00    -0.095 F  
HETATM   15  C   UNL     1      -9.820   8.353  66.549  1.00  0.00    -0.338 A  
HETATM   16  F   UNL     1      -5.732   9.211  63.677  1.00  0.00    -0.071 F  
ENDBRANCH   2   3
BRANCH   2  17
HETATM   17  O   UNL     1      -9.000   5.271  67.765  1.00  0.00    -0.109 OA 
BRANCH  17  18
HETATM   18  C   UNL     1      -8.537   3.911  67.577  1.00  0.00    -0.101 C  
HETATM   19  N   UNL     1      -6.510   4.088  69.072  1.00  0.00    -0.036 NA 
HETATM   20  C   UNL     1      -7.767   3.328  68.842  1.00  0.00    -0.051 C  
HETATM   21  O   UNL     1      -7.699   3.792  66.415  1.00  0.00    -0.087 OA 
HETATM   22  C   UNL     1      -6.491   4.540  66.596  1.00  0.00    -0.041 C  
HETATM   23  C   UNL     1      -5.707   4.066  67.826  1.00  0.00    -0.022 C  
BRANCH  19  24
HETATM   24  C   UNL     1      -5.700   3.750  70.255  1.00  0.00    -0.017 C  
BRANCH  24  25
HETATM   25  C   UNL     1      -5.745   4.779  71.370  1.00  0.00    -0.012 C  
HETATM   26  O   UNL     1      -7.647   8.407  71.509  1.00  0.00    -0.083 OA 
HETATM   27  O   UNL     1      -8.103   7.544  73.765  1.00  0.00    -0.119 OA 
HETATM   28  N   UNL     1      -5.611   4.460  72.634  1.00  0.00    -0.007 NA 
HETATM   29  O   UNL     1      -6.133   9.180  73.421  1.00  0.00    -0.295 OA 
HETATM   30  C   UNL     1      -5.847   5.628  73.325  1.00  0.00    -0.036 C  
HETATM   31  O   UNL     1      -6.053   5.716  74.528  1.00  0.00    -0.060 OA 
HETATM   32  P   UNL     1      -6.866   8.012  72.863  1.00  0.00    -0.098 P  
HETATM   33  N   UNL     1      -5.995   6.656  72.432  1.00  0.00    -0.038 N  
HETATM   34  N   UNL     1      -5.932   6.120  71.128  1.00  0.00    -0.030 NA 
ENDBRANCH  24  25
ENDBRANCH  19  24
BRANCH  20  35
HETATM   35  C   UNL     1      -8.729   3.230  70.024  1.00  0.00    -0.130 A  
HETATM   36  C   UNL     1      -9.655   4.210  72.061  1.00  0.00    -0.213 A  
HETATM   37  F   UNL     1     -10.937   2.857  73.508  1.00  0.00    -0.239 F  
HETATM   38  C   UNL     1      -8.894   4.330  70.893  1.00  0.00    -0.142 A  
HETATM   39  C   UNL     1     -10.113   1.897  71.519  1.00  0.00    -0.091 A  
HETATM   40  C   UNL     1      -9.366   2.021  70.344  1.00  0.00    -0.181 A  
HETATM   41  C   UNL     1     -10.244   2.986  72.369  1.00  0.00    -0.130 A  
ENDBRANCH  20  35
ENDBRANCH  17  18
ENDBRANCH   2  17
TORSDOF 6
ENDMDL
MODEL      253
REMARK 921   NORMALIZED FREE ENERGY PREDICTED BY IDOCK:   -2.64 KCAL/MOL
REMARK 922        TOTAL FREE ENERGY PREDICTED BY IDOCK:   -4.47 KCAL/MOL
REMARK 923 INTER-LIGAND FREE ENERGY PREDICTED BY IDOCK:   -6.07 KCAL/MOL
REMARK 924 INTRA-LIGAND FREE ENERGY PREDICTED BY IDOCK:    1.60 KCAL/MOL
REMARK 927      BINDING AFFINITY PREDICTED BY RF-SCORE:    0.00 PKD
ROOT
HETATM    1  C   UNL     1      -9.028   5.794  71.427  1.00  0.00    -0.147 C  
HETATM    2  C   UNL     1      -9.500   6.030  69.998  1.00  0.00    -0.156 C  
ENDROOT
BRANCH   2   3
HETATM    3  C   UNL     1     -10.295   7.311  69.850  1.00  0.00    -0.226 A  
HETATM    4  F   UNL     1      -8.512  11.131  69.137  1.00  0.00    -0.148 F  
HETATM    5  F   UNL     1     -10.463  12.082  69.066  1.00  0.00    -0.217 F  
HETATM    6  C   UNL     1     -11.516   7.399  70.530  1.00  0.00    -0.281 A  
HETATM    7  C   UNL     1     -12.144   8.628  70.724  1.00  0.00    -0.087 A  
HETATM    8  F   UNL     1      -9.781  10.880  67.388  1.00  0.00    -0.171 F  
HETATM    9  C   UNL     1     -13.324   8.722  71.665  1.00  0.00    -0.359 C  
HETATM   10  C   UNL     1     -11.588   9.774  70.137  1.00  0.00    -0.239 A  
HETATM   11  C   UNL     1      -9.800  10.934  68.747  1.00  0.00    -0.196 C  
HETATM   12  C   UNL     1     -10.411   9.698  69.369  1.00  0.00    -0.226 A  
HETATM   13  F   UNL     1     -13.797   7.507  72.059  1.00  0.00    -0.351 F  
HETATM   14  F   UNL     1     -13.004   9.384  72.807  1.00  0.00    -0.432 F  
HETATM   15  C   UNL     1      -9.765   8.458  69.239  1.00  0.00    -0.177 A  
HETATM   16  F   UNL     1     -14.381   9.381  71.122  1.00  0.00    -0.291 F  
ENDBRANCH   2   3
BRANCH   2  17
HETATM   17  O   UNL     1     -10.260   4.906  69.523  1.00  0.00    -0.234 OA 
BRANCH  17  18
HETATM   18  C   UNL     1      -9.672   4.249  68.373  1.00  0.00    -0.097 C  
HETATM   19  N   UNL     1      -8.085   6.115  67.757  1.00  0.00    -0.112 NA 
HETATM   20  C   UNL     1      -8.160   4.673  68.111  1.00  0.00    -0.088 C  
HETATM   21  O   UNL     1     -10.443   4.480  67.181  1.00  0.00    -0.052 OA 
HETATM   22  C   UNL     1     -10.413   5.869  66.832  1.00  0.00    -0.286 C  
HETATM   23  C   UNL     1      -8.982   6.368  66.603  1.00  0.00    -0.140 C  
BRANCH  19  24
HETATM   24  C   UNL     1      -6.754   6.714  67.563  1.00  0.00    -0.067 C  
BRANCH  24  25
HETATM   25  C   UNL     1      -6.738   7.957  66.692  1.00  0.00    -0.063 C  
HETATM   26  O   UNL     1      -8.308   8.554  62.953  1.00  0.00    -0.184 OA 
HETATM   27  O   UNL     1      -8.905  10.665  64.063  1.00  0.00    -0.183 OA 
HETATM   28  N   UNL     1      -6.670   9.167  67.187  1.00  0.00    -0.065 NA 
HETATM   29  O   UNL     1      -6.786  10.578  62.586  1.00  0.00    -0.139 OA 
HETATM   30  C   UNL     1      -6.819  10.006  66.105  1.00  0.00    -0.102 C  
HETATM   31  O   UNL     1      -7.051  11.207  66.159  1.00  0.00    -0.097 OA 
HETATM   32  P   UNL     1      -7.605   9.854  63.596  1.00  0.00    -0.133 P  
HETATM   33  N   UNL     1      -6.848   9.259  64.958  1.00  0.00    -0.084 N  
HETATM   34  N   UNL     1      -6.796   7.896  65.319  1.00  0.00    -0.054 NA 
ENDBRANCH  24  25
ENDBRANCH  19  24
BRANCH  20  35
HETATM   35  C   UNL     1      -7.293   4.212  69.280  1.00  0.00    -0.054 A  
HETATM   36  C   UNL     1      -6.925   2.670  71.137  1.00  0.00    -0.032 A  
HETATM   37  F   UNL     1      -5.278   3.180  72.748  1.00  0.00     0.000 F  
HETATM   38  C   UNL     1      -7.617   3.028  69.976  1.00  0.00    -0.044 A  
HETATM   39  C   UNL     1      -5.563   4.658  70.934  1.00  0.00    -0.015 A  
HETATM   40  C   UNL     1      -6.244   5.009  69.764  1.00  0.00    -0.026 A  
HETATM   41  C   UNL     1      -5.913   3.500  71.613  1.00  0.00    -0.013 A  
ENDBRANCH  20  35
ENDBRANCH  17  18
ENDBRANCH   2  17
TORSDOF 6
ENDMDL
MODEL      254
REMARK 921   NORMALIZED FREE ENERGY PREDICTED BY IDOCK:   -2.60 KCAL/MOL
REMARK 922        TOTAL FREE ENERGY PREDICTED BY IDOCK:   -4.41 KCAL/MOL
REMARK 923 INTER-LIGAND FREE ENERGY PREDICTED BY IDOCK:   -6.20 KCAL/MOL
REMARK 924 INTRA-LIGAND FREE ENERGY PREDICTED BY IDOCK:    1.79 KCAL/MOL
REMARK 927      BINDING AFFINITY PREDICTED BY RF-SCORE:    0.00 PKD
ROOT
HETATM    1  C   UNL     1      -8.064   7.458  71.436  1.00  0.00    -0.097 C  
HETATM    2  C   UNL     1      -9.356   7.497  70.630  1.00  0.00    -0.163 C  
ENDROOT
BRANCH   2   3
HETATM    3  C   UNL     1      -9.841   8.909  70.374  1.00  0.00    -0.224 A  
HETATM    4  F   UNL     1     -13.852  10.199  71.106  1.00  0.00    -0.295 F  
HETATM    5  F   UNL     1     -13.367  12.219  70.473  1.00  0.00     0.169 F  
HETATM    6  C   UNL     1      -9.213   9.637  69.355  1.00  0.00    -0.196 A  
HETATM    7  C   UNL     1      -9.794  10.790  68.832  1.00  0.00    -0.209 A  
HETATM    8  F   UNL     1     -12.701  11.502  72.414  1.00  0.00    -0.277 F  
HETATM    9  C   UNL     1      -9.221  11.410  67.578  1.00  0.00    -0.160 C  
HETATM   10  C   UNL     1     -10.976  11.277  69.411  1.00  0.00    -0.282 A  
HETATM   11  C   UNL     1     -12.859  11.130  71.115  1.00  0.00    -0.374 C  
HETATM   12  C   UNL     1     -11.578  10.616  70.497  1.00  0.00    -0.444 A  
HETATM   13  F   UNL     1      -8.020  10.880  67.214  1.00  0.00    -0.113 F  
HETATM   14  F   UNL     1     -10.043  11.235  66.510  1.00  0.00    -0.222 F  
HETATM   15  C   UNL     1     -11.005   9.423  70.968  1.00  0.00    -0.409 A  
HETATM   16  F   UNL     1      -9.024  12.749  67.694  1.00  0.00    -0.160 F  
ENDBRANCH   2   3
BRANCH   2  17
HETATM   17  O   UNL     1     -10.380   6.721  71.275  1.00  0.00    -0.203 OA 
BRANCH  17  18
HETATM   18  C   UNL     1     -10.895   5.641  70.458  1.00  0.00    -0.244 C  
HETATM   19  N   UNL     1      -8.862   5.406  68.979  1.00  0.00    -0.100 NA 
HETATM   20  C   UNL     1      -9.759   4.671  69.909  1.00  0.00    -0.209 C  
HETATM   21  O   UNL     1     -11.670   6.136  69.353  1.00  0.00    -0.248 OA 
HETATM   22  C   UNL     1     -10.836   6.876  68.454  1.00  0.00    -0.180 C  
HETATM   23  C   UNL     1      -9.686   6.020  67.910  1.00  0.00    -0.119 C  
BRANCH  19  24
HETATM   24  C   UNL     1      -7.693   4.694  68.433  1.00  0.00    -0.080 C  
BRANCH  24  25
HETATM   25  C   UNL     1      -7.137   5.279  67.148  1.00  0.00    -0.070 C  
HETATM   26  O   UNL     1      -8.601   5.061  63.325  1.00  0.00    -0.131 OA 
HETATM   27  O   UNL     1      -7.876   7.407  63.424  1.00  0.00    -0.123 OA 
HETATM   28  N   UNL     1      -6.391   6.355  67.124  1.00  0.00    -0.036 NA 
HETATM   29  O   UNL     1      -6.306   5.652  62.362  1.00  0.00    -0.021 OA 
HETATM   30  C   UNL     1      -6.210   6.636  65.788  1.00  0.00    -0.038 C  
HETATM   31  O   UNL     1      -5.776   7.685  65.331  1.00  0.00    -0.036 OA 
HETATM   32  P   UNL     1      -7.254   5.933  63.474  1.00  0.00    -0.069 P  
HETATM   33  N   UNL     1      -6.760   5.630  65.038  1.00  0.00    -0.046 N  
HETATM   34  N   UNL     1      -7.382   4.717  65.916  1.00  0.00    -0.076 NA 
ENDBRANCH  24  25
ENDBRANCH  19  24
BRANCH  20  35
HETATM   35  C   UNL     1      -9.088   3.957  71.081  1.00  0.00    -0.184 A  
HETATM   36  C   UNL     1      -9.268   2.921  73.285  1.00  0.00    -0.103 A  
HETATM   37  F   UNL     1      -7.301   2.460  74.504  1.00  0.00    -0.036 F  
HETATM   38  C   UNL     1      -9.871   3.444  72.137  1.00  0.00    -0.236 A  
HETATM   39  C   UNL     1      -7.088   3.401  72.353  1.00  0.00    -0.046 A  
HETATM   40  C   UNL     1      -7.690   3.909  71.198  1.00  0.00    -0.055 A  
HETATM   41  C   UNL     1      -7.879   2.920  73.387  1.00  0.00    -0.060 A  
ENDBRANCH  20  35
ENDBRANCH  17  18
ENDBRANCH   2  17
TORSDOF 6
ENDMDL
MODEL      255
REMARK 921   NORMALIZED FREE ENERGY PREDICTED BY IDOCK:   -2.50 KCAL/MOL
REMARK 922        TOTAL FREE ENERGY PREDICTED BY IDOCK:   -4.28 KCAL/MOL
REMARK 923 INTER-LIGAND FREE ENERGY PREDICTED BY IDOCK:   -5.30 KCAL/MOL
REMARK 924 INTRA-LIGAND FREE ENERGY PREDICTED BY IDOCK:    1.02 KCAL/MOL
REMARK 927      BINDING AFFINITY PREDICTED BY RF-SCORE:    0.00 PKD
ROOT
HETATM    1  C   UNL     1     -10.710  10.240  68.450  1.00  0.00    -0.263 C  
HETATM    2  C   UNL     1      -9.536  10.020  67.504  1.00  0.00    -0.153 C  
ENDROOT
BRANCH   2   3
HETATM    3  C   UNL     1      -9.003   8.603  67.555  1.00  0.00    -0.143 A  
HETATM    4  F   UNL     1     -11.132   5.222  66.031  1.00  0.00    -0.301 F  
HETATM    5  F   UNL     1      -9.502   3.892  66.571  1.00  0.00    -0.152 F  
HETATM    6  C   UNL     1      -8.137   8.272  68.604  1.00  0.00    -0.120 A  
HETATM    7  C   UNL     1      -7.866   6.943  68.922  1.00  0.00    -0.111 A  
HETATM    8  F   UNL     1      -9.311   5.196  64.841  1.00  0.00    -0.146 F  
HETATM    9  C   UNL     1      -7.129   6.617  70.201  1.00  0.00    -0.075 C  
HETATM   10  C   UNL     1      -8.395   5.930  68.107  1.00  0.00    -0.115 A  
HETATM   11  C   UNL     1      -9.777   5.148  66.119  1.00  0.00    -0.176 C  
HETATM   12  C   UNL     1      -9.193   6.238  66.990  1.00  0.00    -0.130 A  
HETATM   13  F   UNL     1      -6.597   7.712  70.811  1.00  0.00    -0.038 F  
HETATM   14  F   UNL     1      -7.949   6.042  71.119  1.00  0.00    -0.106 F  
HETATM   15  C   UNL     1      -9.499   7.583  66.727  1.00  0.00    -0.230 A  
HETATM   16  F   UNL     1      -6.099   5.752  70.011  1.00  0.00    -0.021 F  
ENDBRANCH   2   3
BRANCH   2  17
HETATM   17  O   UNL     1      -8.486  10.964  67.771  1.00  0.00    -0.121 OA 
BRANCH  17  18
HETATM   18  C   UNL     1      -8.288  11.931  66.710  1.00  0.00    -0.153 C  
HETATM   19  N   UNL     1     -10.000  13.601  67.521  1.00  0.00    -0.227 NA 
HETATM   20  C   UNL     1      -8.566  13.431  67.166  1.00  0.00    -0.195 C  
HETATM   21  O   UNL     1      -9.095  11.628  65.560  1.00  0.00    -0.161 OA 
HETATM   22  C   UNL     1     -10.486  11.755  65.881  1.00  0.00    -0.255 C  
HETATM   23  C   UNL     1     -10.829  13.167  66.372  1.00  0.00    -0.287 C  
BRANCH  19  24
HETATM   24  C   UNL     1     -10.433  14.906  68.052  1.00  0.00    -0.246 C  
BRANCH  24  25
HETATM   25  C   UNL     1     -11.471  14.828  69.157  1.00  0.00    -0.299 C  
HETATM   26  O   UNL     1     -10.967  14.811  73.224  1.00  0.00     0.815 OA 
HETATM   27  O   UNL     1     -12.914  16.294  72.992  1.00  0.00    -0.430 OA 
HETATM   28  N   UNL     1     -12.698  15.260  69.007  1.00  0.00     0.307 NA 
HETATM   29  O   UNL     1     -13.295  13.802  73.555  1.00  0.00    -0.088 OA 
HETATM   30  C   UNL     1     -13.274  15.145  70.252  1.00  0.00    -0.016 C  
HETATM   31  O   UNL     1     -14.329  15.656  70.601  1.00  0.00    -0.100 OA 
HETATM   32  P   UNL     1     -12.505  14.767  72.743  1.00  0.00    -0.284 P  
HETATM   33  N   UNL     1     -12.395  14.520  71.097  1.00  0.00    -0.323 N  
HETATM   34  N   UNL     1     -11.190  14.299  70.395  1.00  0.00    -0.040 NA 
ENDBRANCH  24  25
ENDBRANCH  19  24
BRANCH  20  35
HETATM   35  C   UNL     1      -7.547  13.837  68.229  1.00  0.00    -0.129 A  
HETATM   36  C   UNL     1      -5.968  13.189  69.975  1.00  0.00    -0.135 A  
HETATM   37  F   UNL     1      -5.142  14.837  71.448  1.00  0.00    -0.118 F  
HETATM   38  C   UNL     1      -6.794  12.849  68.899  1.00  0.00    -0.095 A  
HETATM   39  C   UNL     1      -6.614  15.508  69.734  1.00  0.00    -0.166 A  
HETATM   40  C   UNL     1      -7.429  15.171  68.649  1.00  0.00    -0.124 A  
HETATM   41  C   UNL     1      -5.899  14.516  70.391  1.00  0.00    -0.156 A  
ENDBRANCH  20  35
ENDBRANCH  17  18
ENDBRANCH   2  17
TORSDOF 6
ENDMDL
MODEL      256
REMARK 921   NORMALIZED FREE ENERGY PREDICTED BY IDOCK:   -2.49 KCAL/MOL
REMARK 922        TOTAL FREE ENERGY PREDICTED BY IDOCK:   -4.27 KCAL/MOL
REMARK 923 INTER-LIGAND FREE ENERGY PREDICTED BY IDOCK:   -4.13 KCAL/MOL
REMARK 924 INTRA-LIGAND FREE ENERGY PREDICTED BY IDOCK:   -0.14 KCAL/MOL
REMARK 927      BINDING AFFINITY PREDICTED BY RF-SCORE:    0.00 PKD
ROOT
HETATM    1  C   UNL     1      -6.494  13.867  67.820  1.00  0.00    -0.178 C  
HETATM    2  C   UNL     1      -7.479  13.525  66.709  1.00  0.00     0.817 C  
ENDROOT
BRANCH   2   3
HETATM    3  C   UNL     1      -8.752  14.343  66.786  1.00  0.00    -0.187 A  
HETATM    4  F   UNL     1     -12.385  13.249  64.813  1.00  0.00    -0.387 F  
HETATM    5  F   UNL     1     -13.405  14.985  65.627  1.00  0.00     0.188 F  
HETATM    6  C   UNL     1      -8.626  15.726  66.966  1.00  0.00    -0.247 A  
HETATM    7  C   UNL     1      -9.696  16.584  66.719  1.00  0.00    -0.268 A  
HETATM    8  F   UNL     1     -12.984  13.276  66.904  1.00  0.00     0.055 F  
HETATM    9  C   UNL     1      -9.462  18.077  66.685  1.00  0.00    -0.297 C  
HETATM   10  C   UNL     1     -10.943  16.034  66.384  1.00  0.00    -0.070 A  
HETATM   11  C   UNL     1     -12.459  14.046  65.913  1.00  0.00    -0.481 C  
HETATM   12  C   UNL     1     -11.120  14.641  66.288  1.00  0.00    -0.336 A  
HETATM   13  F   UNL     1      -8.229  18.440  67.136  1.00  0.00    -0.231 F  
HETATM   14  F   UNL     1      -9.555  18.570  65.422  1.00  0.00     0.262 F  
HETATM   15  C   UNL     1     -10.012  13.802  66.483  1.00  0.00    -0.290 A  
HETATM   16  F   UNL     1     -10.358  18.769  67.434  1.00  0.00    -0.351 F  
ENDBRANCH   2   3
BRANCH   2  17
HETATM   17  O   UNL     1      -7.780  12.120  66.713  1.00  0.00    -0.093 OA 
BRANCH  17  18
HETATM   18  C   UNL     1      -7.068  11.374  67.730  1.00  0.00    -0.081 C  
HETATM   19  N   UNL     1      -8.646   9.404  67.800  1.00  0.00    -0.116 NA 
HETATM   20  C   UNL     1      -7.229   9.797  67.583  1.00  0.00    -0.089 C  
HETATM   21  O   UNL     1      -7.467  11.769  69.054  1.00  0.00    -0.104 OA 
HETATM   22  C   UNL     1      -8.839  11.429  69.281  1.00  0.00     0.355 C  
HETATM   23  C   UNL     1      -9.088   9.925  69.115  1.00  0.00    -0.173 C  
BRANCH  19  24
HETATM   24  C   UNL     1      -9.009   7.987  67.618  1.00  0.00    -0.135 C  
BRANCH  24  25
HETATM   25  C   UNL     1      -8.713   7.098  68.811  1.00  0.00    -0.124 C  
HETATM   26  O   UNL     1     -11.279   5.448  71.548  1.00  0.00    -0.111 OA 
HETATM   27  O   UNL     1      -9.739   3.574  71.149  1.00  0.00    -0.173 OA 
HETATM   28  N   UNL     1      -7.668   6.310  68.865  1.00  0.00    -0.095 NA 
HETATM   29  O   UNL     1      -9.361   5.095  73.204  1.00  0.00    -0.131 OA 
HETATM   30  C   UNL     1      -7.827   5.581  70.022  1.00  0.00    -0.082 C  
HETATM   31  O   UNL     1      -7.201   4.574  70.324  1.00  0.00    -0.047 OA 
HETATM   32  P   UNL     1      -9.731   5.052  71.763  1.00  0.00    -0.176 P  
HETATM   33  N   UNL     1      -8.920   6.051  70.702  1.00  0.00    -0.145 N  
HETATM   34  N   UNL     1      -9.525   7.058  69.920  1.00  0.00    -0.157 NA 
ENDBRANCH  24  25
ENDBRANCH  19  24
BRANCH  20  35
HETATM   35  C   UNL     1      -6.587   9.340  66.274  1.00  0.00    -0.070 A  
HETATM   36  C   UNL     1      -6.593   9.318  63.833  1.00  0.00    -0.092 A  
HETATM   37  F   UNL     1      -5.223   7.771  62.693  1.00  0.00    -0.045 F  
HETATM   38  C   UNL     1      -7.066   9.835  65.042  1.00  0.00    -0.120 A  
HETATM   39  C   UNL     1      -5.145   7.808  65.048  1.00  0.00    -0.029 A  
HETATM   40  C   UNL     1      -5.607   8.335  66.258  1.00  0.00    -0.035 A  
HETATM   41  C   UNL     1      -5.646   8.296  63.850  1.00  0.00    -0.061 A  
ENDBRANCH  20  35
ENDBRANCH  17  18
ENDBRANCH   2  17
TORSDOF 6
ENDMDL
MODEL      257
REMARK 921   NORMALIZED FREE ENERGY PREDICTED BY IDOCK:   -2.46 KCAL/MOL
REMARK 922        TOTAL FREE ENERGY PREDICTED BY IDOCK:   -4.23 KCAL/MOL
REMARK 923 INTER-LIGAND FREE ENERGY PREDICTED BY IDOCK:   -4.03 KCAL/MOL
REMARK 924 INTRA-LIGAND FREE ENERGY PREDICTED BY IDOCK:   -0.20 KCAL/MOL
REMARK 927      BINDING AFFINITY PREDICTED BY RF-SCORE:    0.00 PKD
ROOT
HETATM    1  C   UNL     1      -6.494  13.870  67.816  1.00  0.00    -0.178 C  
HETATM    2  C   UNL     1      -7.473  13.596  66.682  1.00  0.00     1.208 C  
ENDROOT
BRANCH   2   3
HETATM    3  C   UNL     1      -8.718  14.456  66.764  1.00  0.00    -0.187 A  
HETATM    4  F   UNL     1     -10.262  16.033  70.427  1.00  0.00    -0.220 F  
HETATM    5  F   UNL     1     -11.871  17.039  69.370  1.00  0.00     0.380 F  
HETATM    6  C   UNL     1      -9.710  14.257  65.797  1.00  0.00    -0.264 A  
HETATM    7  C   UNL     1     -11.001  14.749  65.979  1.00  0.00    -0.328 A  
HETATM    8  F   UNL     1      -9.851  17.838  69.283  1.00  0.00    -0.269 F  
HETATM    9  C   UNL     1     -12.105  14.312  65.042  1.00  0.00    -0.425 C  
HETATM   10  C   UNL     1     -11.273  15.542  67.104  1.00  0.00    -0.204 A  
HETATM   11  C   UNL     1     -10.561  16.677  69.267  1.00  0.00    -0.343 C  
HETATM   12  C   UNL     1     -10.268  15.835  68.045  1.00  0.00    -0.229 A  
HETATM   13  F   UNL     1     -11.649  13.636  63.950  1.00  0.00    -0.404 F  
HETATM   14  F   UNL     1     -12.982  13.476  65.656  1.00  0.00    -0.500 F  
HETATM   15  C   UNL     1      -8.991  15.278  67.869  1.00  0.00    -0.170 A  
HETATM   16  F   UNL     1     -12.835  15.352  64.565  1.00  0.00    -0.196 F  
ENDBRANCH   2   3
BRANCH   2  17
HETATM   17  O   UNL     1      -7.824  12.203  66.641  1.00  0.00    -0.056 OA 
BRANCH  17  18
HETATM   18  C   UNL     1      -7.161  11.404  67.652  1.00  0.00    -0.097 C  
HETATM   19  N   UNL     1      -8.808   9.489  67.631  1.00  0.00    -0.119 NA 
HETATM   20  C   UNL     1      -7.373   9.839  67.456  1.00  0.00    -0.090 C  
HETATM   21  O   UNL     1      -7.576  11.777  68.977  1.00  0.00    -0.089 OA 
HETATM   22  C   UNL     1      -8.965  11.478  69.165  1.00  0.00     0.283 C  
HETATM   23  C   UNL     1      -9.261   9.989  68.951  1.00  0.00    -0.169 C  
BRANCH  19  24
HETATM   24  C   UNL     1      -9.215   8.092  67.401  1.00  0.00    -0.137 C  
BRANCH  24  25
HETATM   25  C   UNL     1      -8.987   7.163  68.579  1.00  0.00    -0.127 C  
HETATM   26  O   UNL     1     -11.688   5.576  71.222  1.00  0.00     0.219 OA 
HETATM   27  O   UNL     1     -10.230   3.640  70.811  1.00  0.00     0.085 OA 
HETATM   28  N   UNL     1      -7.983   6.325  68.635  1.00  0.00    -0.104 NA 
HETATM   29  O   UNL     1      -9.824   5.094  72.908  1.00  0.00    -0.153 OA 
HETATM   30  C   UNL     1      -8.201   5.578  69.771  1.00  0.00    -0.101 C  
HETATM   31  O   UNL     1      -7.630   4.535  70.061  1.00  0.00    -0.053 OA 
HETATM   32  P   UNL     1     -10.165   5.102  71.460  1.00  0.00    -0.175 P  
HETATM   33  N   UNL     1      -9.284   6.085  70.440  1.00  0.00    -0.154 N  
HETATM   34  N   UNL     1      -9.824   7.137  69.669  1.00  0.00    -0.162 NA 
ENDBRANCH  24  25
ENDBRANCH  19  24
BRANCH  20  35
HETATM   35  C   UNL     1      -6.718   9.396  66.149  1.00  0.00    -0.077 A  
HETATM   36  C   UNL     1      -6.669   9.442  63.708  1.00  0.00    -0.096 A  
HETATM   37  F   UNL     1      -5.329   7.880  62.555  1.00  0.00    -0.053 F  
HETATM   38  C   UNL     1      -7.151   9.942  64.922  1.00  0.00    -0.132 A  
HETATM   39  C   UNL     1      -5.303   7.849  64.911  1.00  0.00    -0.029 A  
HETATM   40  C   UNL     1      -5.774   8.358  66.125  1.00  0.00    -0.043 A  
HETATM   41  C   UNL     1      -5.759   8.388  63.716  1.00  0.00    -0.066 A  
ENDBRANCH  20  35
ENDBRANCH  17  18
ENDBRANCH   2  17
TORSDOF 6
ENDMDL
MODEL      258
REMARK 921   NORMALIZED FREE ENERGY PREDICTED BY IDOCK:   -2.34 KCAL/MOL
REMARK 922        TOTAL FREE ENERGY PREDICTED BY IDOCK:   -4.07 KCAL/MOL
REMARK 923 INTER-LIGAND FREE ENERGY PREDICTED BY IDOCK:   -7.54 KCAL/MOL
REMARK 924 INTRA-LIGAND FREE ENERGY PREDICTED BY IDOCK:    3.47 KCAL/MOL
REMARK 927      BINDING AFFINITY PREDICTED BY RF-SCORE:    0.00 PKD
ROOT
HETATM    1  C   UNL     1      -8.777   8.757  65.495  1.00  0.00    -0.217 C  
HETATM    2  C   UNL     1      -9.753   9.186  66.583  1.00  0.00    -0.223 C  
ENDROOT
BRANCH   2   3
HETATM    3  C   UNL     1     -10.367  10.544  66.314  1.00  0.00    -0.276 A  
HETATM    4  F   UNL     1     -12.441  12.828  69.276  1.00  0.00    -0.200 F  
HETATM    5  F   UNL     1     -12.779  14.442  67.863  1.00  0.00    -0.083 F  
HETATM    6  C   UNL     1     -10.811  10.811  65.013  1.00  0.00    -0.055 A  
HETATM    7  C   UNL     1     -11.671  11.875  64.750  1.00  0.00    -0.282 A  
HETATM    8  F   UNL     1     -10.805  14.156  68.730  1.00  0.00    -0.228 F  
HETATM    9  C   UNL     1     -12.322  11.988  63.391  1.00  0.00    -0.523 C  
HETATM   10  C   UNL     1     -12.010  12.747  65.795  1.00  0.00    -0.502 A  
HETATM   11  C   UNL     1     -11.878  13.486  68.227  1.00  0.00    -0.366 C  
HETATM   12  C   UNL     1     -11.503  12.556  67.094  1.00  0.00    -0.414 A  
HETATM   13  F   UNL     1     -11.802  11.130  62.470  1.00  0.00     0.332 F  
HETATM   14  F   UNL     1     -13.651  11.711  63.447  1.00  0.00    -0.283 F  
HETATM   15  C   UNL     1     -10.685  11.443  67.346  1.00  0.00    -0.274 A  
HETATM   16  F   UNL     1     -12.212  13.231  62.855  1.00  0.00    -0.592 F  
ENDBRANCH   2   3
BRANCH   2  17
HETATM   17  O   UNL     1      -9.115   9.166  67.872  1.00  0.00    -0.128 OA 
BRANCH  17  18
HETATM   18  C   UNL     1      -7.693   8.897  67.815  1.00  0.00    -0.101 C  
HETATM   19  N   UNL     1      -6.948  11.068  68.867  1.00  0.00    -0.080 NA 
HETATM   20  C   UNL     1      -6.874   9.588  68.992  1.00  0.00    -0.054 C  
HETATM   21  O   UNL     1      -7.130   9.289  66.551  1.00  0.00    -0.083 OA 
HETATM   22  C   UNL     1      -7.214  10.710  66.390  1.00  0.00    -0.134 C  
HETATM   23  C   UNL     1      -6.483  11.454  67.514  1.00  0.00    -0.074 C  
BRANCH  19  24
HETATM   24  C   UNL     1      -6.320  11.885  69.920  1.00  0.00    -0.104 C  
BRANCH  24  25
HETATM   25  C   UNL     1      -6.068  13.332  69.535  1.00  0.00    -0.112 C  
HETATM   26  O   UNL     1      -8.254  15.815  67.115  1.00  0.00    -0.170 OA 
HETATM   27  O   UNL     1      -7.660  17.339  68.950  1.00  0.00    -0.258 OA 
HETATM   28  N   UNL     1      -5.406  14.163  70.300  1.00  0.00    -0.099 NA 
HETATM   29  O   UNL     1      -6.236  17.355  66.794  1.00  0.00    -0.154 OA 
HETATM   30  C   UNL     1      -5.513  15.387  69.678  1.00  0.00    -0.104 C  
HETATM   31  O   UNL     1      -5.240  16.469  70.179  1.00  0.00    -0.158 OA 
HETATM   32  P   UNL     1      -6.957  16.504  67.780  1.00  0.00    -0.165 P  
HETATM   33  N   UNL     1      -6.143  15.223  68.472  1.00  0.00    -0.090 N  
HETATM   34  N   UNL     1      -6.522  13.869  68.353  1.00  0.00    -0.093 NA 
ENDBRANCH  24  25
ENDBRANCH  19  24
BRANCH  20  35
HETATM   35  C   UNL     1      -7.307   8.994  70.330  1.00  0.00    -0.084 A  
HETATM   36  C   UNL     1      -9.069   8.591  71.973  1.00  0.00    -0.317 A  
HETATM   37  F   UNL     1      -8.479   7.854  74.135  1.00  0.00    -0.234 F  
HETATM   38  C   UNL     1      -8.671   8.993  70.694  1.00  0.00    -0.251 A  
HETATM   39  C   UNL     1      -6.759   8.172  72.556  1.00  0.00    -0.092 A  
HETATM   40  C   UNL     1      -6.361   8.559  71.272  1.00  0.00    -0.047 A  
HETATM   41  C   UNL     1      -8.103   8.199  72.897  1.00  0.00    -0.167 A  
ENDBRANCH  20  35
ENDBRANCH  17  18
ENDBRANCH   2  17
TORSDOF 6
ENDMDL
MODEL      259
REMARK 921   NORMALIZED FREE ENERGY PREDICTED BY IDOCK:   -2.33 KCAL/MOL
REMARK 922        TOTAL FREE ENERGY PREDICTED BY IDOCK:   -4.05 KCAL/MOL
REMARK 923 INTER-LIGAND FREE ENERGY PREDICTED BY IDOCK:   -3.91 KCAL/MOL
REMARK 924 INTRA-LIGAND FREE ENERGY PREDICTED BY IDOCK:   -0.14 KCAL/MOL
REMARK 927      BINDING AFFINITY PREDICTED BY RF-SCORE:    0.00 PKD
ROOT
HETATM    1  C   UNL     1      -9.720   4.801  65.487  1.00  0.00    -0.166 C  
HETATM    2  C   UNL     1      -9.720   5.799  66.638  1.00  0.00    -0.157 C  
ENDROOT
BRANCH   2   3
HETATM    3  C   UNL     1      -9.164   7.150  66.237  1.00  0.00    -0.169 A  
HETATM    4  F   UNL     1      -7.440   7.955  62.407  1.00  0.00    -0.088 F  
HETATM    5  F   UNL     1      -7.089  10.029  62.949  1.00  0.00    -0.110 F  
HETATM    6  C   UNL     1      -8.641   7.964  67.251  1.00  0.00    -0.128 A  
HETATM    7  C   UNL     1      -7.824   9.051  66.950  1.00  0.00    -0.101 A  
HETATM    8  F   UNL     1      -9.102   9.359  62.471  1.00  0.00    -0.242 F  
HETATM    9  C   UNL     1      -7.082   9.757  68.063  1.00  0.00    -0.079 C  
HETATM   10  C   UNL     1      -7.610   9.388  65.605  1.00  0.00    -0.095 A  
HETATM   11  C   UNL     1      -7.960   8.994  63.116  1.00  0.00    -0.151 C  
HETATM   12  C   UNL     1      -8.200   8.642  64.567  1.00  0.00    -0.166 A  
HETATM   13  F   UNL     1      -7.486   9.375  69.306  1.00  0.00    -0.068 F  
HETATM   14  F   UNL     1      -5.747   9.507  68.013  1.00  0.00    -0.040 F  
HETATM   15  C   UNL     1      -8.971   7.516  64.895  1.00  0.00     0.516 A  
HETATM   16  F   UNL     1      -7.222  11.107  68.017  1.00  0.00    -0.073 F  
ENDBRANCH   2   3
BRANCH   2  17
HETATM   17  O   UNL     1      -9.002   5.272  67.766  1.00  0.00    -0.109 OA 
BRANCH  17  18
HETATM   18  C   UNL     1      -8.540   3.912  67.580  1.00  0.00    -0.101 C  
HETATM   19  N   UNL     1      -6.521   4.087  69.087  1.00  0.00    -0.035 NA 
HETATM   20  C   UNL     1      -7.777   3.328  68.849  1.00  0.00    -0.051 C  
HETATM   21  O   UNL     1      -7.695   3.794  66.423  1.00  0.00    -0.087 OA 
HETATM   22  C   UNL     1      -6.487   4.541  66.612  1.00  0.00    -0.041 C  
HETATM   23  C   UNL     1      -5.711   4.066  67.845  1.00  0.00    -0.022 C  
BRANCH  19  24
HETATM   24  C   UNL     1      -5.718   3.747  70.274  1.00  0.00    -0.017 C  
BRANCH  24  25
HETATM   25  C   UNL     1      -5.770   4.774  71.390  1.00  0.00    -0.012 C  
HETATM   26  O   UNL     1      -7.672   8.402  71.523  1.00  0.00    -0.085 OA 
HETATM   27  O   UNL     1      -8.141   7.536  73.775  1.00  0.00    -0.119 OA 
HETATM   28  N   UNL     1      -5.644   4.454  72.654  1.00  0.00    -0.007 NA 
HETATM   29  O   UNL     1      -6.169   9.172  73.445  1.00  0.00    -0.308 OA 
HETATM   30  C   UNL     1      -5.883   5.620  73.346  1.00  0.00    -0.039 C  
HETATM   31  O   UNL     1      -6.096   5.707  74.548  1.00  0.00    -0.060 OA 
HETATM   32  P   UNL     1      -6.899   8.005  72.881  1.00  0.00    -0.098 P  
HETATM   33  N   UNL     1      -6.025   6.650  72.454  1.00  0.00    -0.038 N  
HETATM   34  N   UNL     1      -5.955   6.115  71.149  1.00  0.00    -0.030 NA 
ENDBRANCH  24  25
ENDBRANCH  19  24
BRANCH  20  35
HETATM   35  C   UNL     1      -8.746   3.229  70.025  1.00  0.00    -0.130 A  
HETATM   36  C   UNL     1     -10.002   4.332  71.805  1.00  0.00    -0.254 A  
HETATM   37  F   UNL     1     -10.975   3.022  73.509  1.00  0.00    -0.244 F  
HETATM   38  C   UNL     1      -9.235   4.402  70.638  1.00  0.00    -0.198 A  
HETATM   39  C   UNL     1      -9.824   1.920  71.772  1.00  0.00    -0.217 A  
HETATM   40  C   UNL     1      -9.069   1.988  70.597  1.00  0.00    -0.161 A  
HETATM   41  C   UNL     1     -10.276   3.088  72.369  1.00  0.00    -0.130 A  
ENDBRANCH  20  35
ENDBRANCH  17  18
ENDBRANCH   2  17
TORSDOF 6
ENDMDL
MODEL      260
REMARK 921   NORMALIZED FREE ENERGY PREDICTED BY IDOCK:   -2.25 KCAL/MOL
REMARK 922        TOTAL FREE ENERGY PREDICTED BY IDOCK:   -3.94 KCAL/MOL
REMARK 923 INTER-LIGAND FREE ENERGY PREDICTED BY IDOCK:   -4.89 KCAL/MOL
REMARK 924 INTRA-LIGAND FREE ENERGY PREDICTED BY IDOCK:    0.96 KCAL/MOL
REMARK 927      BINDING AFFINITY PREDICTED BY RF-SCORE:    0.00 PKD
ROOT
HETATM    1  C   UNL     1     -11.084   9.392  67.332  1.00  0.00     0.121 C  
HETATM    2  C   UNL     1     -10.199  10.153  68.310  1.00  0.00    -0.166 C  
ENDROOT
BRANCH   2   3
HETATM    3  C   UNL     1      -9.596  11.402  67.701  1.00  0.00    -0.176 A  
HETATM    4  F   UNL     1      -6.661  13.810  69.669  1.00  0.00    -0.120 F  
HETATM    5  F   UNL     1      -6.543  15.146  67.960  1.00  0.00    -0.099 F  
HETATM    6  C   UNL     1     -10.383  12.131  66.801  1.00  0.00    -0.237 A  
HETATM    7  C   UNL     1     -10.053  13.440  66.454  1.00  0.00    -0.292 A  
HETATM    8  F   UNL     1      -5.613  13.183  67.868  1.00  0.00    -0.083 F  
HETATM    9  C   UNL     1     -11.045  14.278  65.679  1.00  0.00    -0.316 C  
HETATM   10  C   UNL     1      -8.858  13.990  66.940  1.00  0.00    -0.212 A  
HETATM   11  C   UNL     1      -6.719  13.841  68.310  1.00  0.00    -0.109 C  
HETATM   12  C   UNL     1      -8.001  13.245  67.772  1.00  0.00    -0.166 A  
HETATM   13  F   UNL     1     -12.098  13.560  65.197  1.00  0.00    -0.350 F  
HETATM   14  F   UNL     1     -11.586  15.256  66.452  1.00  0.00    -0.289 F  
HETATM   15  C   UNL     1      -8.385  11.950  68.155  1.00  0.00    -0.161 A  
HETATM   16  F   UNL     1     -10.489  14.899  64.608  1.00  0.00    -0.421 F  
ENDBRANCH   2   3
BRANCH   2  17
HETATM   17  O   UNL     1      -9.169   9.298  68.833  1.00  0.00    -0.140 OA 
BRANCH  17  18
HETATM   18  C   UNL     1      -7.880   9.948  68.960  1.00  0.00    -0.095 C  
HETATM   19  N   UNL     1      -6.494   7.837  68.965  1.00  0.00    -0.036 NA 
HETATM   20  C   UNL     1      -6.696   9.136  68.272  1.00  0.00    -0.060 C  
HETATM   21  O   UNL     1      -7.547  10.198  70.336  1.00  0.00    -0.249 OA 
HETATM   22  C   UNL     1      -7.375   8.961  71.038  1.00  0.00    -0.106 C  
HETATM   23  C   UNL     1      -6.275   8.097  70.408  1.00  0.00    -0.035 C  
BRANCH  19  24
HETATM   24  C   UNL     1      -5.495   6.904  68.416  1.00  0.00    -0.017 C  
BRANCH  24  25
HETATM   25  C   UNL     1      -5.688   5.455  68.822  1.00  0.00    -0.015 C  
HETATM   26  O   UNL     1      -8.729   3.716  70.950  1.00  0.00    -0.070 OA 
HETATM   27  O   UNL     1      -8.356   2.037  69.194  1.00  0.00    -0.047 OA 
HETATM   28  N   UNL     1      -5.188   4.455  68.139  1.00  0.00    -0.007 NA 
HETATM   29  O   UNL     1      -7.252   1.702  71.505  1.00  0.00    -0.030 OA 
HETATM   30  C   UNL     1      -5.693   3.323  68.739  1.00  0.00    -0.022 C  
HETATM   31  O   UNL     1      -5.664   2.193  68.269  1.00  0.00    -0.018 OA 
HETATM   32  P   UNL     1      -7.596   2.686  70.444  1.00  0.00    -0.042 P  
HETATM   33  N   UNL     1      -6.393   3.683  69.860  1.00  0.00    -0.028 N  
HETATM   34  N   UNL     1      -6.405   5.092  69.938  1.00  0.00    -0.029 NA 
ENDBRANCH  24  25
ENDBRANCH  19  24
BRANCH  20  35
HETATM   35  C   UNL     1      -6.930   9.075  66.764  1.00  0.00    -0.081 A  
HETATM   36  C   UNL     1      -6.379   9.873  64.523  1.00  0.00    -0.119 A  
HETATM   37  F   UNL     1      -7.814   9.340  62.727  1.00  0.00    -0.115 F  
HETATM   38  C   UNL     1      -6.091   9.798  65.889  1.00  0.00    -0.070 A  
HETATM   39  C   UNL     1      -8.342   8.500  64.865  1.00  0.00    -0.171 A  
HETATM   40  C   UNL     1      -8.046   8.412  66.228  1.00  0.00    -0.105 A  
HETATM   41  C   UNL     1      -7.513   9.234  64.027  1.00  0.00    -0.110 A  
ENDBRANCH  20  35
ENDBRANCH  17  18
ENDBRANCH   2  17
TORSDOF 6
ENDMDL
MODEL      261
REMARK 921   NORMALIZED FREE ENERGY PREDICTED BY IDOCK:   -2.19 KCAL/MOL
REMARK 922        TOTAL FREE ENERGY PREDICTED BY IDOCK:   -3.86 KCAL/MOL
REMARK 923 INTER-LIGAND FREE ENERGY PREDICTED BY IDOCK:   -5.27 KCAL/MOL
REMARK 924 INTRA-LIGAND FREE ENERGY PREDICTED BY IDOCK:    1.41 KCAL/MOL
REMARK 927      BINDING AFFINITY PREDICTED BY RF-SCORE:    0.00 PKD
ROOT
HETATM    1  C   UNL     1      -9.599   8.693  69.617  1.00  0.00    -0.170 C  
HETATM    2  C   UNL     1     -10.202   8.954  68.243  1.00  0.00    -0.201 C  
ENDROOT
BRANCH   2   3
HETATM    3  C   UNL     1      -9.334   8.433  67.117  1.00  0.00    -0.192 A  
HETATM    4  F   UNL     1      -9.926   9.462  63.008  1.00  0.00     0.477 F  
HETATM    5  F   UNL     1      -8.210   8.270  62.414  1.00  0.00    -0.145 F  
HETATM    6  C   UNL     1      -8.740   7.176  67.282  1.00  0.00    -0.120 A  
HETATM    7  C   UNL     1      -8.212   6.481  66.196  1.00  0.00    -0.123 A  
HETATM    8  F   UNL     1      -7.911  10.194  63.383  1.00  0.00    -0.142 F  
HETATM    9  C   UNL     1      -7.803   5.035  66.363  1.00  0.00    -0.099 C  
HETATM   10  C   UNL     1      -8.188   7.104  64.939  1.00  0.00    -0.073 A  
HETATM   11  C   UNL     1      -8.684   9.074  63.407  1.00  0.00    -0.082 C  
HETATM   12  C   UNL     1      -8.695   8.406  64.764  1.00  0.00    -0.013 A  
HETATM   13  F   UNL     1      -7.788   4.626  67.662  1.00  0.00    -0.086 F  
HETATM   14  F   UNL     1      -8.654   4.195  65.718  1.00  0.00    -0.111 F  
HETATM   15  C   UNL     1      -9.275   9.060  65.862  1.00  0.00    -0.290 A  
HETATM   16  F   UNL     1      -6.564   4.777  65.871  1.00  0.00    -0.040 F  
ENDBRANCH   2   3
BRANCH   2  17
HETATM   17  O   UNL     1     -10.472  10.355  68.066  1.00  0.00    -0.172 OA 
BRANCH  17  18
HETATM   18  C   UNL     1      -9.689  10.972  67.015  1.00  0.00    -0.182 C  
HETATM   19  N   UNL     1      -9.201  13.122  68.245  1.00  0.00    -0.209 NA 
HETATM   20  C   UNL     1      -8.570  11.962  67.563  1.00  0.00    -0.160 C  
HETATM   21  O   UNL     1     -10.523  11.672  66.075  1.00  0.00    -0.236 OA 
HETATM   22  C   UNL     1     -11.168  12.780  66.714  1.00  0.00    -0.295 C  
HETATM   23  C   UNL     1     -10.154  13.764  67.308  1.00  0.00    -0.239 C  
BRANCH  19  24
HETATM   24  C   UNL     1      -8.320  14.108  68.896  1.00  0.00    -0.003 C  
BRANCH  24  25
HETATM   25  C   UNL     1      -8.007  15.332  68.055  1.00  0.00    -0.131 C  
HETATM   26  O   UNL     1      -8.532  19.304  68.916  1.00  0.00    -0.362 OA 
HETATM   27  O   UNL     1      -6.327  19.340  67.831  1.00  0.00    -0.213 OA 
HETATM   28  N   UNL     1      -7.065  15.343  67.145  1.00  0.00    -0.213 NA 
HETATM   29  O   UNL     1      -8.424  19.905  66.431  1.00  0.00    -0.332 OA 
HETATM   30  C   UNL     1      -7.000  16.648  66.712  1.00  0.00    -0.229 C  
HETATM   31  O   UNL     1      -6.100  17.134  66.041  1.00  0.00    -0.209 OA 
HETATM   32  P   UNL     1      -7.855  19.017  67.481  1.00  0.00    -0.245 P  
HETATM   33  N   UNL     1      -8.009  17.367  67.298  1.00  0.00    -0.196 N  
HETATM   34  N   UNL     1      -8.691  16.516  68.194  1.00  0.00    -0.190 NA 
ENDBRANCH  24  25
ENDBRANCH  19  24
BRANCH  20  35
HETATM   35  C   UNL     1      -7.543  11.172  68.371  1.00  0.00    -0.110 A  
HETATM   36  C   UNL     1      -6.044   9.253  68.551  1.00  0.00    -0.045 A  
HETATM   37  F   UNL     1      -5.126   8.703  70.654  1.00  0.00    -0.022 F  
HETATM   38  C   UNL     1      -6.874  10.076  67.784  1.00  0.00    -0.076 A  
HETATM   39  C   UNL     1      -6.517  10.599  70.504  1.00  0.00    -0.045 A  
HETATM   40  C   UNL     1      -7.336  11.432  69.735  1.00  0.00     0.288 A  
HETATM   41  C   UNL     1      -5.887   9.515  69.909  1.00  0.00    -0.036 A  
ENDBRANCH  20  35
ENDBRANCH  17  18
ENDBRANCH   2  17
TORSDOF 6
ENDMDL
MODEL      262
REMARK 921   NORMALIZED FREE ENERGY PREDICTED BY IDOCK:   -2.12 KCAL/MOL
REMARK 922        TOTAL FREE ENERGY PREDICTED BY IDOCK:   -3.76 KCAL/MOL
REMARK 923 INTER-LIGAND FREE ENERGY PREDICTED BY IDOCK:   -4.82 KCAL/MOL
REMARK 924 INTRA-LIGAND FREE ENERGY PREDICTED BY IDOCK:    1.05 KCAL/MOL
REMARK 927      BINDING AFFINITY PREDICTED BY RF-SCORE:    0.00 PKD
ROOT
HETATM    1  C   UNL     1     -10.585  10.370  68.424  1.00  0.00    -0.238 C  
HETATM    2  C   UNL     1      -9.416  10.185  67.465  1.00  0.00    -0.152 C  
ENDROOT
BRANCH   2   3
HETATM    3  C   UNL     1      -8.921   8.754  67.418  1.00  0.00    -0.143 A  
HETATM    4  F   UNL     1      -6.728   7.120  64.131  1.00  0.00    -0.043 F  
HETATM    5  F   UNL     1      -6.550   5.205  65.141  1.00  0.00    -0.036 F  
HETATM    6  C   UNL     1      -9.660   7.788  68.113  1.00  0.00    -0.161 A  
HETATM    7  C   UNL     1      -9.483   6.429  67.861  1.00  0.00    -0.115 A  
HETATM    8  F   UNL     1      -5.330   6.887  65.781  1.00  0.00    -0.020 F  
HETATM    9  C   UNL     1     -10.458   5.430  68.443  1.00  0.00    -0.121 C  
HETATM   10  C   UNL     1      -8.475   6.029  66.971  1.00  0.00    -0.108 A  
HETATM   11  C   UNL     1      -6.578   6.550  65.357  1.00  0.00    -0.043 C  
HETATM   12  C   UNL     1      -7.656   6.977  66.329  1.00  0.00    -0.092 A  
HETATM   13  F   UNL     1     -11.301   5.973  69.364  1.00  0.00    -0.430 F  
HETATM   14  F   UNL     1     -11.254   4.890  67.484  1.00  0.00     0.263 F  
HETATM   15  C   UNL     1      -7.894   8.342  66.554  1.00  0.00    -0.092 A  
HETATM   16  F   UNL     1      -9.842   4.390  69.061  1.00  0.00    -0.229 F  
ENDBRANCH   2   3
BRANCH   2  17
HETATM   17  O   UNL     1      -8.341  11.080  67.797  1.00  0.00    -0.115 OA 
BRANCH  17  18
HETATM   18  C   UNL     1      -8.084  12.083  66.785  1.00  0.00    -0.081 C  
HETATM   19  N   UNL     1      -9.846  13.722  67.550  1.00  0.00    -0.226 NA 
HETATM   20  C   UNL     1      -8.393  13.566  67.275  1.00  0.00    -0.179 C  
HETATM   21  O   UNL     1      -8.820  11.819  65.578  1.00  0.00     0.000 OA 
HETATM   22  C   UNL     1     -10.227  11.934  65.821  1.00  0.00    -0.242 C  
HETATM   23  C   UNL     1     -10.604  13.327  66.339  1.00  0.00    -0.284 C  
BRANCH  19  24
HETATM   24  C   UNL     1     -10.314  15.007  68.099  1.00  0.00    -0.239 C  
BRANCH  24  25
HETATM   25  C   UNL     1     -11.398  14.889  69.155  1.00  0.00    -0.292 C  
HETATM   26  O   UNL     1     -11.069  14.723  73.237  1.00  0.00     0.523 OA 
HETATM   27  O   UNL     1     -13.007  16.213  72.975  1.00  0.00    -0.467 OA 
HETATM   28  N   UNL     1     -12.618  15.325  68.968  1.00  0.00     0.146 NA 
HETATM   29  O   UNL     1     -13.406  13.701  73.430  1.00  0.00    -0.217 OA 
HETATM   30  C   UNL     1     -13.247  15.164  70.183  1.00  0.00     0.108 C  
HETATM   31  O   UNL     1     -14.317  15.661  70.505  1.00  0.00     0.071 OA 
HETATM   32  P   UNL     1     -12.585  14.695  72.688  1.00  0.00    -0.289 P  
HETATM   33  N   UNL     1     -12.403  14.509  71.041  1.00  0.00    -0.323 N  
HETATM   34  N   UNL     1     -11.170  14.315  70.383  1.00  0.00    -0.040 NA 
ENDBRANCH  24  25
ENDBRANCH  19  24
BRANCH  20  35
HETATM   35  C   UNL     1      -7.440  13.936  68.410  1.00  0.00    -0.117 A  
HETATM   36  C   UNL     1      -5.905  13.230  70.172  1.00  0.00    -0.147 A  
HETATM   37  F   UNL     1      -5.223  14.797  71.799  1.00  0.00    -0.140 F  
HETATM   38  C   UNL     1      -6.669  12.936  69.038  1.00  0.00    -0.095 A  
HETATM   39  C   UNL     1      -6.654  15.528  70.076  1.00  0.00    -0.079 A  
HETATM   40  C   UNL     1      -7.405  15.238  68.933  1.00  0.00    -0.146 A  
HETATM   41  C   UNL     1      -5.919  14.523  70.689  1.00  0.00    -0.184 A  
ENDBRANCH  20  35
ENDBRANCH  17  18
ENDBRANCH   2  17
TORSDOF 6
ENDMDL
MODEL      263
REMARK 921   NORMALIZED FREE ENERGY PREDICTED BY IDOCK:   -2.05 KCAL/MOL
REMARK 922        TOTAL FREE ENERGY PREDICTED BY IDOCK:   -3.67 KCAL/MOL
REMARK 923 INTER-LIGAND FREE ENERGY PREDICTED BY IDOCK:   -4.42 KCAL/MOL
REMARK 924 INTRA-LIGAND FREE ENERGY PREDICTED BY IDOCK:    0.76 KCAL/MOL
REMARK 927      BINDING AFFINITY PREDICTED BY RF-SCORE:    0.00 PKD
ROOT
HETATM    1  C   UNL     1     -10.763  10.231  68.487  1.00  0.00    -0.262 C  
HETATM    2  C   UNL     1      -9.620  10.047  67.497  1.00  0.00    -0.153 C  
ENDROOT
BRANCH   2   3
HETATM    3  C   UNL     1      -9.010   8.661  67.562  1.00  0.00    -0.143 A  
HETATM    4  F   UNL     1      -7.490   6.913  71.156  1.00  0.00    -0.077 F  
HETATM    5  F   UNL     1      -6.982   5.081  70.105  1.00  0.00    -0.045 F  
HETATM    6  C   UNL     1      -8.376   8.177  66.411  1.00  0.00    -0.115 A  
HETATM    7  C   UNL     1      -7.516   7.082  66.470  1.00  0.00    -0.081 A  
HETATM    8  F   UNL     1      -9.057   5.514  70.588  1.00  0.00    -0.138 F  
HETATM    9  C   UNL     1      -6.664   6.737  65.270  1.00  0.00    -0.051 C  
HETATM   10  C   UNL     1      -7.370   6.400  67.687  1.00  0.00    -0.088 A  
HETATM   11  C   UNL     1      -7.901   6.087  70.156  1.00  0.00    -0.101 C  
HETATM   12  C   UNL     1      -8.068   6.811  68.839  1.00  0.00    -0.120 A  
HETATM   13  F   UNL     1      -7.010   7.427  64.147  1.00  0.00    -0.050 F  
HETATM   14  F   UNL     1      -5.353   7.018  65.488  1.00  0.00    -0.024 F  
HETATM   15  C   UNL     1      -8.882   7.952  68.766  1.00  0.00    -0.138 A  
HETATM   16  F   UNL     1      -6.725   5.422  64.939  1.00  0.00    -0.042 F  
ENDBRANCH   2   3
BRANCH   2  17
HETATM   17  O   UNL     1      -8.611  11.052  67.696  1.00  0.00    -0.123 OA 
BRANCH  17  18
HETATM   18  C   UNL     1      -8.497  11.988  66.596  1.00  0.00    -0.117 C  
HETATM   19  N   UNL     1     -10.277  13.590  67.398  1.00  0.00    -0.236 NA 
HETATM   20  C   UNL     1      -8.846  13.486  67.007  1.00  0.00    -0.211 C  
HETATM   21  O   UNL     1      -9.318  11.599  65.482  1.00  0.00    -0.222 OA 
HETATM   22  C   UNL     1     -10.703  11.661  65.840  1.00  0.00    -0.278 C  
HETATM   23  C   UNL     1     -11.112  13.069  66.290  1.00  0.00    -0.289 C  
BRANCH  19  24
HETATM   24  C   UNL     1     -10.768  14.888  67.895  1.00  0.00    -0.265 C  
BRANCH  24  25
HETATM   25  C   UNL     1     -11.793  14.793  69.011  1.00  0.00    -0.302 C  
HETATM   26  O   UNL     1     -11.892  12.312  72.271  1.00  0.00     2.214 OA 
HETATM   27  O   UNL     1     -12.609  14.440  73.271  1.00  0.00    -0.375 OA 
HETATM   28  N   UNL     1     -12.529  15.810  69.383  1.00  0.00    -0.034 NA 
HETATM   29  O   UNL     1     -14.401  12.720  72.563  1.00  0.00    -0.363 OA 
HETATM   30  C   UNL     1     -13.217  15.368  70.492  1.00  0.00    -0.208 C  
HETATM   31  O   UNL     1     -13.830  16.075  71.280  1.00  0.00    -0.209 OA 
HETATM   32  P   UNL     1     -13.111  13.365  72.197  1.00  0.00    -0.329 P  
HETATM   33  N   UNL     1     -12.959  14.036  70.678  1.00  0.00    -0.256 N  
HETATM   34  N   UNL     1     -12.017  13.630  69.709  1.00  0.00    -0.325 NA 
ENDBRANCH  24  25
ENDBRANCH  19  24
BRANCH  20  35
HETATM   35  C   UNL     1      -7.823  13.987  68.024  1.00  0.00    -0.152 A  
HETATM   36  C   UNL     1      -6.393  13.540  69.953  1.00  0.00    -0.071 A  
HETATM   37  F   UNL     1      -5.426  15.354  71.112  1.00  0.00    -0.141 F  
HETATM   38  C   UNL     1      -7.217  13.081  68.921  1.00  0.00    -0.047 A  
HETATM   39  C   UNL     1      -6.748  15.817  69.216  1.00  0.00    -0.174 A  
HETATM   40  C   UNL     1      -7.560  15.357  68.175  1.00  0.00    -0.118 A  
HETATM   41  C   UNL     1      -6.180  14.909  70.098  1.00  0.00    -0.165 A  
ENDBRANCH  20  35
ENDBRANCH  17  18
ENDBRANCH   2  17
TORSDOF 6
ENDMDL
MODEL      264
REMARK 921   NORMALIZED FREE ENERGY PREDICTED BY IDOCK:   -1.96 KCAL/MOL
REMARK 922        TOTAL FREE ENERGY PREDICTED BY IDOCK:   -3.56 KCAL/MOL
REMARK 923 INTER-LIGAND FREE ENERGY PREDICTED BY IDOCK:   -6.27 KCAL/MOL
REMARK 924 INTRA-LIGAND FREE ENERGY PREDICTED BY IDOCK:    2.71 KCAL/MOL
REMARK 927      BINDING AFFINITY PREDICTED BY RF-SCORE:    0.00 PKD
ROOT
HETATM    1  C   UNL     1      -9.635   8.709  69.559  1.00  0.00    -0.170 C  
HETATM    2  C   UNL     1     -10.420   9.246  68.370  1.00  0.00    -0.206 C  
ENDROOT
BRANCH   2   3
HETATM    3  C   UNL     1      -9.935   8.684  67.049  1.00  0.00    -0.317 A  
HETATM    4  F   UNL     1      -7.282   5.346  66.733  1.00  0.00    -0.071 F  
HETATM    5  F   UNL     1      -7.351   5.437  64.564  1.00  0.00    -0.056 F  
HETATM    6  C   UNL     1      -9.829   9.568  65.967  1.00  0.00    -0.353 A  
HETATM    7  C   UNL     1      -9.094   9.230  64.833  1.00  0.00    -0.227 A  
HETATM    8  F   UNL     1      -9.044   4.638  65.670  1.00  0.00    -0.124 F  
HETATM    9  C   UNL     1      -8.796  10.289  63.795  1.00  0.00    -0.221 C  
HETATM   10  C   UNL     1      -8.541   7.944  64.740  1.00  0.00     0.076 A  
HETATM   11  C   UNL     1      -8.104   5.622  65.684  1.00  0.00    -0.120 C  
HETATM   12  C   UNL     1      -8.711   7.004  65.774  1.00  0.00    -0.116 A  
HETATM   13  F   UNL     1      -9.496  11.442  63.985  1.00  0.00    -0.224 F  
HETATM   14  F   UNL     1      -7.485  10.645  63.804  1.00  0.00    -0.099 F  
HETATM   15  C   UNL     1      -9.406   7.389  66.932  1.00  0.00    -0.195 A  
HETATM   16  F   UNL     1      -9.075   9.882  62.530  1.00  0.00    -0.205 F  
ENDBRANCH   2   3
BRANCH   2  17
HETATM   17  O   UNL     1     -10.390  10.683  68.349  1.00  0.00    -0.162 OA 
BRANCH  17  18
HETATM   18  C   UNL     1      -9.623  11.234  67.251  1.00  0.00    -0.173 C  
HETATM   19  N   UNL     1      -8.605  13.150  68.544  1.00  0.00    -0.110 NA 
HETATM   20  C   UNL     1      -8.283  11.956  67.719  1.00  0.00    -0.148 C  
HETATM   21  O   UNL     1     -10.405  12.150  66.465  1.00  0.00    -0.209 OA 
HETATM   22  C   UNL     1     -10.756  13.299  67.246  1.00  0.00    -0.255 C  
HETATM   23  C   UNL     1      -9.515  14.030  67.772  1.00  0.00    -0.209 C  
BRANCH  19  24
HETATM   24  C   UNL     1      -7.489  13.901  69.144  1.00  0.00     0.027 C  
BRANCH  24  25
HETATM   25  C   UNL     1      -7.053  15.125  68.358  1.00  0.00    -0.107 C  
HETATM   26  O   UNL     1      -9.316  18.102  66.681  1.00  0.00    -0.281 OA 
HETATM   27  O   UNL     1      -7.455  19.397  67.631  1.00  0.00    -0.243 OA 
HETATM   28  N   UNL     1      -5.883  15.691  68.520  1.00  0.00    -0.098 NA 
HETATM   29  O   UNL     1      -7.390  18.756  65.129  1.00  0.00    -0.344 OA 
HETATM   30  C   UNL     1      -5.924  16.828  67.745  1.00  0.00    -0.136 C  
HETATM   31  O   UNL     1      -5.130  17.757  67.798  1.00  0.00    -0.132 OA 
HETATM   32  P   UNL     1      -7.726  18.294  66.503  1.00  0.00    -0.260 P  
HETATM   33  N   UNL     1      -7.094  16.843  67.032  1.00  0.00    -0.178 N  
HETATM   34  N   UNL     1      -7.861  15.724  67.420  1.00  0.00    -0.159 NA 
ENDBRANCH  24  25
ENDBRANCH  19  24
BRANCH  20  35
HETATM   35  C   UNL     1      -7.343  10.928  68.345  1.00  0.00    -0.094 A  
HETATM   36  C   UNL     1      -6.103   8.833  68.156  1.00  0.00    -0.051 A  
HETATM   37  F   UNL     1      -5.199   7.852  70.102  1.00  0.00    -0.023 F  
HETATM   38  C   UNL     1      -6.843   9.862  67.566  1.00  0.00    -0.081 A  
HETATM   39  C   UNL     1      -6.334   9.907  70.311  1.00  0.00    -0.094 A  
HETATM   40  C   UNL     1      -7.060  10.945  69.719  1.00  0.00    -0.092 A  
HETATM   41  C   UNL     1      -5.870   8.859  69.529  1.00  0.00    -0.033 A  
ENDBRANCH  20  35
ENDBRANCH  17  18
ENDBRANCH   2  17
TORSDOF 6
ENDMDL
MODEL      265
REMARK 921   NORMALIZED FREE ENERGY PREDICTED BY IDOCK:   -1.93 KCAL/MOL
REMARK 922        TOTAL FREE ENERGY PREDICTED BY IDOCK:   -3.50 KCAL/MOL
REMARK 923 INTER-LIGAND FREE ENERGY PREDICTED BY IDOCK:   -5.30 KCAL/MOL
REMARK 924 INTRA-LIGAND FREE ENERGY PREDICTED BY IDOCK:    1.80 KCAL/MOL
REMARK 927      BINDING AFFINITY PREDICTED BY RF-SCORE:    0.00 PKD
ROOT
HETATM    1  C   UNL     1     -11.371   7.325  68.446  1.00  0.00     0.364 C  
HETATM    2  C   UNL     1     -11.224   8.307  69.601  1.00  0.00     0.095 C  
ENDROOT
BRANCH   2   3
HETATM    3  C   UNL     1     -11.666   9.709  69.235  1.00  0.00     0.317 A  
HETATM    4  F   UNL     1      -9.726  12.098  66.265  1.00  0.00    -0.215 F  
HETATM    5  F   UNL     1     -11.148  13.712  66.568  1.00  0.00    -0.294 F  
HETATM    6  C   UNL     1     -12.286  10.476  70.230  1.00  0.00    -0.393 A  
HETATM    7  C   UNL     1     -12.422  11.856  70.094  1.00  0.00    -0.151 A  
HETATM    8  F   UNL     1     -11.747  11.929  65.476  1.00  0.00    -0.397 F  
HETATM    9  C   UNL     1     -12.869  12.681  71.280  1.00  0.00    -0.250 C  
HETATM   10  C   UNL     1     -12.020  12.462  68.895  1.00  0.00    -0.289 A  
HETATM   11  C   UNL     1     -11.031  12.354  66.553  1.00  0.00    -0.272 C  
HETATM   12  C   UNL     1     -11.479  11.701  67.841  1.00  0.00    -0.381 A  
HETATM   13  F   UNL     1     -13.320  11.928  72.321  1.00  0.00    -0.610 F  
HETATM   14  F   UNL     1     -11.853  13.434  71.778  1.00  0.00     0.064 F  
HETATM   15  C   UNL     1     -11.298  10.321  68.026  1.00  0.00    -0.219 A  
HETATM   16  F   UNL     1     -13.872  13.543  70.974  1.00  0.00    -0.126 F  
ENDBRANCH   2   3
BRANCH   2  17
HETATM   17  O   UNL     1      -9.872   8.316  70.090  1.00  0.00    -0.182 OA 
BRANCH  17  18
HETATM   18  C   UNL     1      -8.935   7.628  69.226  1.00  0.00    -0.135 C  
HETATM   19  N   UNL     1      -7.056   9.300  69.453  1.00  0.00    -0.052 NA 
HETATM   20  C   UNL     1      -7.414   7.867  69.630  1.00  0.00    -0.092 C  
HETATM   21  O   UNL     1      -9.122   7.991  67.847  1.00  0.00    -0.132 OA 
HETATM   22  C   UNL     1      -8.812   9.376  67.652  1.00  0.00    -0.115 C  
HETATM   23  C   UNL     1      -7.370   9.700  68.061  1.00  0.00    -0.082 C  
BRANCH  19  24
HETATM   24  C   UNL     1      -5.708   9.734  69.861  1.00  0.00    -0.041 C  
BRANCH  24  25
HETATM   25  C   UNL     1      -5.544  11.235  70.014  1.00  0.00    -0.095 C  
HETATM   26  O   UNL     1      -7.191  14.286  67.828  1.00  0.00    -0.141 OA 
HETATM   27  O   UNL     1      -7.396  15.172  70.112  1.00  0.00    -0.078 OA 
HETATM   28  N   UNL     1      -5.265  11.803  71.161  1.00  0.00    -0.232 NA 
HETATM   29  O   UNL     1      -5.395  15.910  68.654  1.00  0.00    -0.098 OA 
HETATM   30  C   UNL     1      -5.337  13.156  70.918  1.00  0.00    -0.171 C  
HETATM   31  O   UNL     1      -5.377  14.033  71.770  1.00  0.00    -0.178 OA 
HETATM   32  P   UNL     1      -6.264  14.770  69.055  1.00  0.00    -0.106 P  
HETATM   33  N   UNL     1      -5.539  13.362  69.579  1.00  0.00    -0.089 N  
HETATM   34  N   UNL     1      -5.681  12.103  68.957  1.00  0.00    -0.059 NA 
ENDBRANCH  24  25
ENDBRANCH  19  24
BRANCH  20  35
HETATM   35  C   UNL     1      -7.153   7.265  71.009  1.00  0.00    -0.064 A  
HETATM   36  C   UNL     1      -5.755   5.891  72.465  1.00  0.00    -0.032 A  
HETATM   37  F   UNL     1      -6.604   5.196  74.554  1.00  0.00    -0.060 F  
HETATM   38  C   UNL     1      -5.948   6.574  71.260  1.00  0.00    -0.036 A  
HETATM   39  C   UNL     1      -7.955   6.574  73.201  1.00  0.00    -0.103 A  
HETATM   40  C   UNL     1      -8.143   7.271  72.004  1.00  0.00    -0.099 A  
HETATM   41  C   UNL     1      -6.770   5.886  73.418  1.00  0.00    -0.075 A  
ENDBRANCH  20  35
ENDBRANCH  17  18
ENDBRANCH   2  17
TORSDOF 6
ENDMDL
MODEL      266
REMARK 921   NORMALIZED FREE ENERGY PREDICTED BY IDOCK:   -1.86 KCAL/MOL
REMARK 922        TOTAL FREE ENERGY PREDICTED BY IDOCK:   -3.41 KCAL/MOL
REMARK 923 INTER-LIGAND FREE ENERGY PREDICTED BY IDOCK:   -2.79 KCAL/MOL
REMARK 924 INTRA-LIGAND FREE ENERGY PREDICTED BY IDOCK:   -0.62 KCAL/MOL
REMARK 927      BINDING AFFINITY PREDICTED BY RF-SCORE:    0.00 PKD
ROOT
HETATM    1  C   UNL     1     -10.103   3.051  71.392  1.00  0.00     0.056 C  
HETATM    2  C   UNL     1      -9.861   4.511  71.753  1.00  0.00    -0.186 C  
ENDROOT
BRANCH   2   3
HETATM    3  C   UNL     1     -10.763   5.458  70.989  1.00  0.00    -0.239 A  
HETATM    4  F   UNL     1      -9.786   7.075  67.153  1.00  0.00    -0.162 F  
HETATM    5  F   UNL     1     -11.678   8.139  67.067  1.00  0.00     0.867 F  
HETATM    6  C   UNL     1     -11.606   6.294  71.733  1.00  0.00    -0.358 A  
HETATM    7  C   UNL     1     -12.213   7.405  71.151  1.00  0.00    -0.357 A  
HETATM    8  F   UNL     1     -11.627   5.990  66.742  1.00  0.00    -0.156 F  
HETATM    9  C   UNL     1     -12.913   8.418  72.029  1.00  0.00    -0.358 C  
HETATM   10  C   UNL     1     -12.052   7.623  69.774  1.00  0.00     0.837 A  
HETATM   11  C   UNL     1     -11.098   6.985  67.504  1.00  0.00    -0.160 C  
HETATM   12  C   UNL     1     -11.285   6.746  68.985  1.00  0.00    -0.214 A  
HETATM   13  F   UNL     1     -13.069   7.999  73.316  1.00  0.00     0.356 F  
HETATM   14  F   UNL     1     -12.219   9.584  72.101  1.00  0.00    -0.426 F  
HETATM   15  C   UNL     1     -10.636   5.667  69.606  1.00  0.00    -0.401 A  
HETATM   16  F   UNL     1     -14.154   8.736  71.581  1.00  0.00    -0.404 F  
ENDBRANCH   2   3
BRANCH   2  17
HETATM   17  O   UNL     1      -8.480   4.860  71.556  1.00  0.00    -0.116 OA 
BRANCH  17  18
HETATM   18  C   UNL     1      -7.955   5.755  72.566  1.00  0.00    -0.103 C  
HETATM   19  N   UNL     1      -5.952   6.538  71.243  1.00  0.00    -0.035 NA 
HETATM   20  C   UNL     1      -7.171   7.000  71.958  1.00  0.00    -0.081 C  
HETATM   21  O   UNL     1      -7.101   5.064  73.494  1.00  0.00    -0.074 OA 
HETATM   22  C   UNL     1      -5.930   4.581  72.824  1.00  0.00    -0.016 C  
HETATM   23  C   UNL     1      -5.137   5.720  72.172  1.00  0.00    -0.017 C  
BRANCH  19  24
HETATM   24  C   UNL     1      -5.139   7.544  70.536  1.00  0.00    -0.023 C  
BRANCH  24  25
HETATM   25  C   UNL     1      -5.235   7.486  69.022  1.00  0.00    -0.015 C  
HETATM   26  O   UNL     1      -6.878   4.609  66.609  1.00  0.00    -0.050 OA 
HETATM   27  O   UNL     1      -7.641   6.661  65.491  1.00  0.00    -0.079 OA 
HETATM   28  N   UNL     1      -5.265   8.561  68.274  1.00  0.00    -0.033 NA 
HETATM   29  O   UNL     1      -5.534   5.457  64.604  1.00  0.00    -0.015 OA 
HETATM   30  C   UNL     1      -5.492   8.101  66.996  1.00  0.00    -0.037 C  
HETATM   31  O   UNL     1      -5.824   8.788  66.038  1.00  0.00    -0.046 OA 
HETATM   32  P   UNL     1      -6.281   5.882  65.819  1.00  0.00    -0.039 P  
HETATM   33  N   UNL     1      -5.466   6.732  67.000  1.00  0.00    -0.013 N  
HETATM   34  N   UNL     1      -5.298   6.299  68.332  1.00  0.00    -0.007 NA 
ENDBRANCH  24  25
ENDBRANCH  19  24
BRANCH  20  35
HETATM   35  C   UNL     1      -8.140   7.872  71.162  1.00  0.00    -0.093 A  
HETATM   36  C   UNL     1      -8.973   8.644  69.001  1.00  0.00    -0.142 A  
HETATM   37  F   UNL     1     -10.375  10.540  68.919  1.00  0.00    -0.170 F  
HETATM   38  C   UNL     1      -8.204   7.754  69.757  1.00  0.00    -0.129 A  
HETATM   39  C   UNL     1      -9.641   9.784  71.027  1.00  0.00     0.231 A  
HETATM   40  C   UNL     1      -8.884   8.886  71.786  1.00  0.00    -0.171 A  
HETATM   41  C   UNL     1      -9.672   9.661  69.645  1.00  0.00    -0.213 A  
ENDBRANCH  20  35
ENDBRANCH  17  18
ENDBRANCH   2  17
TORSDOF 6
ENDMDL
MODEL      267
REMARK 921   NORMALIZED FREE ENERGY PREDICTED BY IDOCK:   -1.77 KCAL/MOL
REMARK 922        TOTAL FREE ENERGY PREDICTED BY IDOCK:   -3.30 KCAL/MOL
REMARK 923 INTER-LIGAND FREE ENERGY PREDICTED BY IDOCK:   -6.30 KCAL/MOL
REMARK 924 INTRA-LIGAND FREE ENERGY PREDICTED BY IDOCK:    3.00 KCAL/MOL
REMARK 927      BINDING AFFINITY PREDICTED BY RF-SCORE:    0.00 PKD
ROOT
HETATM    1  C   UNL     1     -10.470  10.234  68.287  1.00  0.00    -0.230 C  
HETATM    2  C   UNL     1      -9.372   9.789  67.330  1.00  0.00    -0.138 C  
ENDROOT
BRANCH   2   3
HETATM    3  C   UNL     1      -9.213   8.283  67.284  1.00  0.00    -0.165 A  
HETATM    4  F   UNL     1      -9.479   5.773  70.735  1.00  0.00    -0.164 F  
HETATM    5  F   UNL     1      -9.169   3.996  69.525  1.00  0.00    -0.146 F  
HETATM    6  C   UNL     1      -8.394   7.746  66.282  1.00  0.00    -0.131 A  
HETATM    7  C   UNL     1      -7.929   6.435  66.360  1.00  0.00    -0.110 A  
HETATM    8  F   UNL     1     -11.090   5.013  69.486  1.00  0.00    -0.091 F  
HETATM    9  C   UNL     1      -6.858   5.966  65.401  1.00  0.00    -0.055 C  
HETATM   10  C   UNL     1      -8.377   5.617  67.409  1.00  0.00    -0.100 A  
HETATM   11  C   UNL     1      -9.747   5.230  69.517  1.00  0.00    -0.178 C  
HETATM   12  C   UNL     1      -9.274   6.104  68.377  1.00  0.00    -0.111 A  
HETATM   13  F   UNL     1      -6.620   6.844  64.388  1.00  0.00    -0.039 F  
HETATM   14  F   UNL     1      -5.666   5.790  66.028  1.00  0.00    -0.012 F  
HETATM   15  C   UNL     1      -9.682   7.446  68.309  1.00  0.00    -0.159 A  
HETATM   16  F   UNL     1      -7.160   4.780  64.812  1.00  0.00    -0.056 F  
ENDBRANCH   2   3
BRANCH   2  17
HETATM   17  O   UNL     1      -8.123  10.418  67.663  1.00  0.00    -0.106 OA 
BRANCH  17  18
HETATM   18  C   UNL     1      -7.735  11.468  66.744  1.00  0.00    -0.136 C  
HETATM   19  N   UNL     1      -9.640  13.037  67.283  1.00  0.00    -0.218 NA 
HETATM   20  C   UNL     1      -8.158  12.922  67.237  1.00  0.00    -0.163 C  
HETATM   21  O   UNL     1      -8.265  11.242  65.427  1.00  0.00     0.062 OA 
HETATM   22  C   UNL     1      -9.695  11.317  65.447  1.00  0.00    -0.231 C  
HETATM   23  C   UNL     1     -10.186  12.678  65.952  1.00  0.00    -0.274 C  
BRANCH  19  24
HETATM   24  C   UNL     1     -10.223  14.287  67.800  1.00  0.00    -0.235 C  
BRANCH  24  25
HETATM   25  C   UNL     1      -9.796  15.541  67.059  1.00  0.00    -0.232 C  
HETATM   26  O   UNL     1     -11.024  19.420  67.553  1.00  0.00    -0.464 OA 
HETATM   27  O   UNL     1      -8.605  19.723  67.235  1.00  0.00    -0.298 OA 
HETATM   28  N   UNL     1      -8.618  15.666  66.500  1.00  0.00    -0.287 NA 
HETATM   29  O   UNL     1     -10.185  20.032  65.214  1.00  0.00    -0.259 OA 
HETATM   30  C   UNL     1      -8.566  16.970  66.062  1.00  0.00    -0.129 C  
HETATM   31  O   UNL     1      -7.559  17.562  65.699  1.00  0.00    -0.480 OA 
HETATM   32  P   UNL     1      -9.890  19.218  66.424  1.00  0.00    -0.418 P  
HETATM   33  N   UNL     1      -9.786  17.561  66.264  1.00  0.00    -0.277 N  
HETATM   34  N   UNL     1     -10.620  16.634  66.925  1.00  0.00    -0.274 NA 
ENDBRANCH  24  25
ENDBRANCH  19  24
BRANCH  20  35
HETATM   35  C   UNL     1      -7.407  13.262  68.522  1.00  0.00    -0.115 A  
HETATM   36  C   UNL     1      -7.156  14.690  70.488  1.00  0.00     0.451 A  
HETATM   37  F   UNL     1      -5.169  14.566  71.753  1.00  0.00    -0.132 F  
HETATM   38  C   UNL     1      -7.904  14.262  69.386  1.00  0.00     0.171 A  
HETATM   39  C   UNL     1      -5.404  13.129  69.900  1.00  0.00    -0.095 A  
HETATM   40  C   UNL     1      -6.158  12.689  68.807  1.00  0.00    -0.071 A  
HETATM   41  C   UNL     1      -5.904  14.127  70.724  1.00  0.00    -0.203 A  
ENDBRANCH  20  35
ENDBRANCH  17  18
ENDBRANCH   2  17
TORSDOF 6
ENDMDL
MODEL      268
REMARK 921   NORMALIZED FREE ENERGY PREDICTED BY IDOCK:   -1.76 KCAL/MOL
REMARK 922        TOTAL FREE ENERGY PREDICTED BY IDOCK:   -3.28 KCAL/MOL
REMARK 923 INTER-LIGAND FREE ENERGY PREDICTED BY IDOCK:   -5.43 KCAL/MOL
REMARK 924 INTRA-LIGAND FREE ENERGY PREDICTED BY IDOCK:    2.16 KCAL/MOL
REMARK 927      BINDING AFFINITY PREDICTED BY RF-SCORE:    0.00 PKD
ROOT
HETATM    1  C   UNL     1      -7.182   8.843  67.249  1.00  0.00    -0.083 C  
HETATM    2  C   UNL     1      -8.298   7.829  67.034  1.00  0.00    -0.117 C  
ENDROOT
BRANCH   2   3
HETATM    3  C   UNL     1      -7.779   6.475  66.596  1.00  0.00    -0.099 A  
HETATM    4  F   UNL     1      -5.181   4.055  68.980  1.00  0.00    -0.008 F  
HETATM    5  F   UNL     1      -5.174   2.493  67.471  1.00  0.00    -0.010 F  
HETATM    6  C   UNL     1      -7.618   6.254  65.222  1.00  0.00    -0.090 A  
HETATM    7  C   UNL     1      -6.851   5.191  64.749  1.00  0.00    -0.049 A  
HETATM    8  F   UNL     1      -6.919   2.768  68.738  1.00  0.00    -0.042 F  
HETATM    9  C   UNL     1      -6.497   5.123  63.280  1.00  0.00    -0.026 C  
HETATM   10  C   UNL     1      -6.320   4.275  65.670  1.00  0.00    -0.036 A  
HETATM   11  C   UNL     1      -5.961   3.445  68.048  1.00  0.00    -0.027 C  
HETATM   12  C   UNL     1      -6.544   4.422  67.051  1.00  0.00    -0.046 A  
HETATM   13  F   UNL     1      -7.181   6.022  62.519  1.00  0.00    -0.043 F  
HETATM   14  F   UNL     1      -5.180   5.382  63.070  1.00  0.00    -0.011 F  
HETATM   15  C   UNL     1      -7.271   5.534  67.506  1.00  0.00    -0.075 A  
HETATM   16  F   UNL     1      -6.740   3.903  62.735  1.00  0.00    -0.027 F  
ENDBRANCH   2   3
BRANCH   2  17
HETATM   17  O   UNL     1      -9.262   8.328  66.092  1.00  0.00    -0.188 OA 
BRANCH  17  18
HETATM   18  C   UNL     1     -10.614   8.375  66.612  1.00  0.00    -0.029 C  
HETATM   19  N   UNL     1      -9.979   8.621  69.043  1.00  0.00    -0.187 NA 
HETATM   20  C   UNL     1     -10.749   9.247  67.936  1.00  0.00    -0.188 C  
HETATM   21  O   UNL     1     -11.133   7.057  66.857  1.00  0.00    -0.359 OA 
HETATM   22  C   UNL     1     -10.389   6.417  67.901  1.00  0.00    -0.190 C  
HETATM   23  C   UNL     1     -10.434   7.220  69.206  1.00  0.00    -0.216 C  
BRANCH  19  24
HETATM   24  C   UNL     1      -9.912   9.332  70.332  1.00  0.00    -0.237 C  
BRANCH  24  25
HETATM   25  C   UNL     1      -9.056   8.655  71.387  1.00  0.00    -0.229 C  
HETATM   26  O   UNL     1      -5.155   7.414  71.193  1.00  0.00    -0.026 OA 
HETATM   27  O   UNL     1      -5.231   8.394  73.446  1.00  0.00    -0.045 OA 
HETATM   28  N   UNL     1      -9.259   8.813  72.671  1.00  0.00    -0.296 NA 
HETATM   29  O   UNL     1      -5.508   5.839  73.178  1.00  0.00    -0.025 OA 
HETATM   30  C   UNL     1      -8.210   8.163  73.283  1.00  0.00    -0.199 C  
HETATM   31  O   UNL     1      -7.893   8.269  74.460  1.00  0.00    -0.233 OA 
HETATM   32  P   UNL     1      -5.861   7.174  72.623  1.00  0.00    -0.040 P  
HETATM   33  N   UNL     1      -7.466   7.517  72.331  1.00  0.00    -0.072 N  
HETATM   34  N   UNL     1      -8.006   7.827  71.064  1.00  0.00    -0.089 NA 
ENDBRANCH  24  25
ENDBRANCH  19  24
BRANCH  20  35
HETATM   35  C   UNL     1     -10.426  10.706  67.621  1.00  0.00    -0.267 A  
HETATM   36  C   UNL     1     -10.267  13.026  68.366  1.00  0.00    -0.246 A  
HETATM   37  F   UNL     1     -10.044  14.738  66.758  1.00  0.00    -0.243 F  
HETATM   38  C   UNL     1     -10.414  11.666  68.656  1.00  0.00    -0.234 A  
HETATM   39  C   UNL     1     -10.130  12.505  66.008  1.00  0.00    -0.268 A  
HETATM   40  C   UNL     1     -10.262  11.144  66.297  1.00  0.00    -0.286 A  
HETATM   41  C   UNL     1     -10.142  13.433  67.040  1.00  0.00    -0.247 A  
ENDBRANCH  20  35
ENDBRANCH  17  18
ENDBRANCH   2  17
TORSDOF 6
ENDMDL
MODEL      269
REMARK 921   NORMALIZED FREE ENERGY PREDICTED BY IDOCK:   -1.55 KCAL/MOL
REMARK 922        TOTAL FREE ENERGY PREDICTED BY IDOCK:   -3.00 KCAL/MOL
REMARK 923 INTER-LIGAND FREE ENERGY PREDICTED BY IDOCK:   -3.74 KCAL/MOL
REMARK 924 INTRA-LIGAND FREE ENERGY PREDICTED BY IDOCK:    0.74 KCAL/MOL
REMARK 927      BINDING AFFINITY PREDICTED BY RF-SCORE:    0.00 PKD
ROOT
HETATM    1  C   UNL     1      -6.809  13.327  68.592  1.00  0.00    -0.099 C  
HETATM    2  C   UNL     1      -7.750  13.766  67.478  1.00  0.00    -0.176 C  
ENDROOT
BRANCH   2   3
HETATM    3  C   UNL     1      -7.879  15.273  67.383  1.00  0.00    -0.220 A  
HETATM    4  F   UNL     1      -6.477  17.958  70.401  1.00  0.00     0.003 F  
HETATM    5  F   UNL     1      -7.111  19.676  69.233  1.00  0.00    -0.365 F  
HETATM    6  C   UNL     1      -8.959  15.788  66.656  1.00  0.00    -0.313 A  
HETATM    7  C   UNL     1      -9.344  17.121  66.787  1.00  0.00    -0.268 A  
HETATM    8  F   UNL     1      -5.325  18.575  68.662  1.00  0.00    -0.175 F  
HETATM    9  C   UNL     1     -10.652  17.582  66.183  1.00  0.00    -0.211 C  
HETATM   10  C   UNL     1      -8.569  17.975  67.585  1.00  0.00    -0.247 A  
HETATM   11  C   UNL     1      -6.594  18.420  69.126  1.00  0.00    -0.268 C  
HETATM   12  C   UNL     1      -7.424  17.504  68.254  1.00  0.00    -0.237 A  
HETATM   13  F   UNL     1     -11.219  16.659  65.357  1.00  0.00    -0.185 F  
HETATM   14  F   UNL     1     -11.581  17.845  67.139  1.00  0.00     0.272 F  
HETATM   15  C   UNL     1      -7.091  16.144  68.152  1.00  0.00    -0.137 A  
HETATM   16  F   UNL     1     -10.523  18.718  65.451  1.00  0.00    -0.339 F  
ENDBRANCH   2   3
BRANCH   2  17
HETATM   17  O   UNL     1      -9.043  13.158  67.637  1.00  0.00    -0.182 OA 
BRANCH  17  18
HETATM   18  C   UNL     1      -9.299  12.674  68.978  1.00  0.00     0.463 C  
HETATM   19  N   UNL     1     -10.797  10.754  68.309  1.00  0.00    -0.210 NA 
HETATM   20  C   UNL     1      -9.551  11.103  69.042  1.00  0.00    -0.083 C  
HETATM   21  O   UNL     1     -10.408  13.358  69.586  1.00  0.00     0.394 OA 
HETATM   22  C   UNL     1     -11.620  13.063  68.881  1.00  0.00    -0.311 C  
HETATM   23  C   UNL     1     -11.914  11.558  68.860  1.00  0.00    -0.299 C  
BRANCH  19  24
HETATM   24  C   UNL     1     -11.153   9.330  68.183  1.00  0.00     0.110 C  
BRANCH  24  25
HETATM   25  C   UNL     1     -10.213   8.516  67.314  1.00  0.00    -0.276 C  
HETATM   26  O   UNL     1      -8.909   4.656  67.768  1.00  0.00    -0.103 OA 
HETATM   27  O   UNL     1      -9.327   4.736  65.347  1.00  0.00    -0.155 OA 
HETATM   28  N   UNL     1     -10.069   8.733  66.030  1.00  0.00    -0.122 NA 
HETATM   29  O   UNL     1      -6.921   5.096  66.217  1.00  0.00    -0.064 OA 
HETATM   30  C   UNL     1      -9.253   7.718  65.583  1.00  0.00     0.143 C  
HETATM   31  O   UNL     1      -9.064   7.416  64.412  1.00  0.00     0.806 OA 
HETATM   32  P   UNL     1      -8.362   5.393  66.442  1.00  0.00    -0.113 P  
HETATM   33  N   UNL     1      -8.824   6.981  66.656  1.00  0.00    -0.126 N  
HETATM   34  N   UNL     1      -9.447   7.490  67.816  1.00  0.00    -0.140 NA 
ENDBRANCH  24  25
ENDBRANCH  19  24
BRANCH  20  35
HETATM   35  C   UNL     1      -8.283  10.366  68.620  1.00  0.00    -0.121 A  
HETATM   36  C   UNL     1      -6.724   9.716  66.855  1.00  0.00    -0.075 A  
HETATM   37  F   UNL     1      -5.146   8.016  67.283  1.00  0.00    -0.024 F  
HETATM   38  C   UNL     1      -7.795  10.497  67.302  1.00  0.00    -0.107 A  
HETATM   39  C   UNL     1      -6.592   8.662  69.029  1.00  0.00    -0.048 A  
HETATM   40  C   UNL     1      -7.653   9.453  69.480  1.00  0.00    -0.086 A  
HETATM   41  C   UNL     1      -6.143   8.794  67.722  1.00  0.00    -0.048 A  
ENDBRANCH  20  35
ENDBRANCH  17  18
ENDBRANCH   2  17
TORSDOF 6
ENDMDL
MODEL      270
REMARK 921   NORMALIZED FREE ENERGY PREDICTED BY IDOCK:   -1.24 KCAL/MOL
REMARK 922        TOTAL FREE ENERGY PREDICTED BY IDOCK:   -2.58 KCAL/MOL
REMARK 923 INTER-LIGAND FREE ENERGY PREDICTED BY IDOCK:   -5.45 KCAL/MOL
REMARK 924 INTRA-LIGAND FREE ENERGY PREDICTED BY IDOCK:    2.87 KCAL/MOL
REMARK 927      BINDING AFFINITY PREDICTED BY RF-SCORE:    0.00 PKD
ROOT
HETATM    1  C   UNL     1      -7.639   9.234  66.816  1.00  0.00    -0.090 C  
HETATM    2  C   UNL     1      -8.620   8.102  67.095  1.00  0.00    -0.124 C  
ENDROOT
BRANCH   2   3
HETATM    3  C   UNL     1      -7.954   6.741  67.095  1.00  0.00    -0.116 A  
HETATM    4  F   UNL     1      -9.312   3.447  64.729  1.00  0.00    -0.125 F  
HETATM    5  F   UNL     1      -7.697   2.194  65.462  1.00  0.00    -0.067 F  
HETATM    6  C   UNL     1      -7.302   6.336  68.266  1.00  0.00    -0.086 A  
HETATM    7  C   UNL     1      -6.959   5.002  68.474  1.00  0.00    -0.057 A  
HETATM    8  F   UNL     1      -7.286   3.742  63.992  1.00  0.00    -0.047 F  
HETATM    9  C   UNL     1      -6.483   4.559  69.839  1.00  0.00    -0.032 C  
HETATM   10  C   UNL     1      -7.182   4.075  67.445  1.00  0.00    -0.067 A  
HETATM   11  C   UNL     1      -8.007   3.474  65.114  1.00  0.00    -0.086 C  
HETATM   12  C   UNL     1      -7.752   4.473  66.221  1.00  0.00    -0.094 A  
HETATM   13  F   UNL     1      -6.221   5.597  70.682  1.00  0.00    -0.025 F  
HETATM   14  F   UNL     1      -7.411   3.794  70.470  1.00  0.00    -0.040 F  
HETATM   15  C   UNL     1      -8.143   5.812  66.059  1.00  0.00    -0.110 A  
HETATM   16  F   UNL     1      -5.346   3.818  69.787  1.00  0.00    -0.006 F  
ENDBRANCH   2   3
BRANCH   2  17
HETATM   17  O   UNL     1      -9.709   8.131  66.157  1.00  0.00    -0.187 OA 
BRANCH  17  18
HETATM   18  C   UNL     1     -11.016   8.153  66.781  1.00  0.00     0.491 C  
HETATM   19  N   UNL     1     -10.195   8.421  69.154  1.00  0.00    -0.207 NA 
HETATM   20  C   UNL     1     -11.063   9.028  68.110  1.00  0.00     0.220 C  
HETATM   21  O   UNL     1     -11.487   6.826  67.069  1.00  0.00    -0.209 OA 
HETATM   22  C   UNL     1     -10.651   6.205  68.052  1.00  0.00    -0.268 C  
HETATM   23  C   UNL     1     -10.608   7.011  69.355  1.00  0.00    -0.230 C  
BRANCH  19  24
HETATM   24  C   UNL     1     -10.041   9.138  70.432  1.00  0.00    -0.218 C  
BRANCH  24  25
HETATM   25  C   UNL     1      -9.860   8.243  71.644  1.00  0.00    -0.199 C  
HETATM   26  O   UNL     1     -10.268   4.178  71.981  1.00  0.00    -0.179 OA 
HETATM   27  O   UNL     1      -8.248   4.567  73.327  1.00  0.00    -0.098 OA 
HETATM   28  N   UNL     1      -9.064   8.549  72.638  1.00  0.00    -0.324 NA 
HETATM   29  O   UNL     1     -10.531   4.368  74.519  1.00  0.00    -0.245 OA 
HETATM   30  C   UNL     1      -9.069   7.442  73.457  1.00  0.00    -0.213 C  
HETATM   31  O   UNL     1      -8.280   7.221  74.365  1.00  0.00    -0.152 OA 
HETATM   32  P   UNL     1      -9.810   4.917  73.339  1.00  0.00    -0.157 P  
HETATM   33  N   UNL     1      -9.983   6.537  72.982  1.00  0.00    -0.166 N  
HETATM   34  N   UNL     1     -10.521   7.044  71.780  1.00  0.00    -0.202 NA 
ENDBRANCH  24  25
ENDBRANCH  19  24
BRANCH  20  35
HETATM   35  C   UNL     1     -10.795  10.491  67.767  1.00  0.00    -0.347 A  
HETATM   36  C   UNL     1     -10.778  12.287  66.113  1.00  0.00    -0.296 A  
HETATM   37  F   UNL     1      -9.650  14.299  66.610  1.00  0.00    -0.244 F  
HETATM   38  C   UNL     1     -11.149  10.995  66.497  1.00  0.00    -0.174 A  
HETATM   39  C   UNL     1      -9.701  12.611  68.254  1.00  0.00    -0.216 A  
HETATM   40  C   UNL     1     -10.085  11.325  68.645  1.00  0.00    -0.216 A  
HETATM   41  C   UNL     1     -10.043  13.077  66.993  1.00  0.00    -0.243 A  
ENDBRANCH  20  35
ENDBRANCH  17  18
ENDBRANCH   2  17
TORSDOF 6
ENDMDL
MODEL      271
REMARK 921   NORMALIZED FREE ENERGY PREDICTED BY IDOCK:   -1.02 KCAL/MOL
REMARK 922        TOTAL FREE ENERGY PREDICTED BY IDOCK:   -2.29 KCAL/MOL
REMARK 923 INTER-LIGAND FREE ENERGY PREDICTED BY IDOCK:   -1.34 KCAL/MOL
REMARK 924 INTRA-LIGAND FREE ENERGY PREDICTED BY IDOCK:   -0.95 KCAL/MOL
REMARK 927      BINDING AFFINITY PREDICTED BY RF-SCORE:    0.00 PKD
ROOT
HETATM    1  C   UNL     1     -10.097   9.029  66.217  1.00  0.00    -0.311 C  
HETATM    2  C   UNL     1      -9.734   8.830  67.683  1.00  0.00    -0.169 C  
ENDROOT
BRANCH   2   3
HETATM    3  C   UNL     1      -9.954   7.406  68.150  1.00  0.00    -0.190 A  
HETATM    4  F   UNL     1      -9.450   6.146  72.205  1.00  0.00    -0.150 F  
HETATM    5  F   UNL     1     -10.039   4.118  71.698  1.00  0.00    -0.239 F  
HETATM    6  C   UNL     1      -9.724   6.377  67.228  1.00  0.00    -0.155 A  
HETATM    7  C   UNL     1      -9.577   5.056  67.647  1.00  0.00    -0.173 A  
HETATM    8  F   UNL     1     -11.543   5.682  71.833  1.00  0.00    -0.310 F  
HETATM    9  C   UNL     1      -9.089   4.013  66.666  1.00  0.00    -0.142 C  
HETATM   10  C   UNL     1      -9.765   4.749  69.003  1.00  0.00    -0.248 A  
HETATM   11  C   UNL     1     -10.279   5.426  71.401  1.00  0.00    -0.216 C  
HETATM   12  C   UNL     1     -10.089   5.752  69.936  1.00  0.00    -0.273 A  
HETATM   13  F   UNL     1      -9.061   4.456  65.378  1.00  0.00    -0.123 F  
HETATM   14  F   UNL     1      -7.822   3.613  66.949  1.00  0.00    -0.078 F  
HETATM   15  C   UNL     1     -10.174   7.083  69.499  1.00  0.00    -0.208 A  
HETATM   16  F   UNL     1      -9.855   2.892  66.665  1.00  0.00    -0.046 F  
ENDBRANCH   2   3
BRANCH   2  17
HETATM   17  O   UNL     1     -10.459   9.752  68.514  1.00  0.00    -0.195 OA 
BRANCH  17  18
HETATM   18  C   UNL     1     -10.890  10.949  67.820  1.00  0.00    -0.259 C  
HETATM   19  N   UNL     1      -9.862  12.600  69.431  1.00  0.00     0.712 NA 
HETATM   20  C   UNL     1      -9.894  12.176  68.006  1.00  0.00    -0.202 C  
HETATM   21  O   UNL     1     -12.212  11.346  68.221  1.00  0.00    -0.588 OA 
HETATM   22  C   UNL     1     -12.218  11.732  69.601  1.00  0.00    -0.185 C  
HETATM   23  C   UNL     1     -11.248  12.887  69.873  1.00  0.00     0.164 C  
BRANCH  19  24
HETATM   24  C   UNL     1      -8.927  13.671  69.817  1.00  0.00     1.837 C  
BRANCH  24  25
HETATM   25  C   UNL     1      -9.184  15.008  69.146  1.00  0.00    -0.183 C  
HETATM   26  O   UNL     1      -9.151  15.992  65.168  1.00  0.00     0.138 OA 
HETATM   27  O   UNL     1     -11.120  17.238  65.950  1.00  0.00     0.072 OA 
HETATM   28  N   UNL     1      -9.943  15.933  69.679  1.00  0.00    -0.271 NA 
HETATM   29  O   UNL     1      -8.860  18.470  65.735  1.00  0.00    -0.419 OA 
HETATM   30  C   UNL     1     -10.037  16.917  68.721  1.00  0.00    -0.295 C  
HETATM   31  O   UNL     1     -10.839  17.841  68.721  1.00  0.00    -0.107 OA 
HETATM   32  P   UNL     1      -9.533  17.210  66.153  1.00  0.00    -0.087 P  
HETATM   33  N   UNL     1      -9.213  16.602  67.672  1.00  0.00    -0.208 N  
HETATM   34  N   UNL     1      -8.636  15.340  67.930  1.00  0.00    -0.150 NA 
ENDBRANCH  24  25
ENDBRANCH  19  24
BRANCH  20  35
HETATM   35  C   UNL     1      -8.549  11.842  67.364  1.00  0.00    -0.164 A  
HETATM   36  C   UNL     1      -7.128  11.798  65.379  1.00  0.00     1.826 A  
HETATM   37  F   UNL     1      -5.132  10.540  65.421  1.00  0.00    -0.051 F  
HETATM   38  C   UNL     1      -8.290  12.222  66.030  1.00  0.00     0.533 A  
HETATM   39  C   UNL     1      -6.447  10.613  67.375  1.00  0.00    -0.059 A  
HETATM   40  C   UNL     1      -7.602  11.050  68.032  1.00  0.00    -0.092 A  
HETATM   41  C   UNL     1      -6.224  10.983  66.057  1.00  0.00    -0.075 A  
ENDBRANCH  20  35
ENDBRANCH  17  18
ENDBRANCH   2  17
TORSDOF 6
ENDMDL
MODEL      272
REMARK 921   NORMALIZED FREE ENERGY PREDICTED BY IDOCK:   -0.91 KCAL/MOL
REMARK 922        TOTAL FREE ENERGY PREDICTED BY IDOCK:   -2.13 KCAL/MOL
REMARK 923 INTER-LIGAND FREE ENERGY PREDICTED BY IDOCK:   -5.08 KCAL/MOL
REMARK 924 INTRA-LIGAND FREE ENERGY PREDICTED BY IDOCK:    2.95 KCAL/MOL
REMARK 927      BINDING AFFINITY PREDICTED BY RF-SCORE:    0.00 PKD
ROOT
HETATM    1  C   UNL     1      -7.856  10.234  69.530  1.00  0.00    -0.172 C  
HETATM    2  C   UNL     1      -8.984  10.054  68.522  1.00  0.00    -0.124 C  
ENDROOT
BRANCH   2   3
HETATM    3  C   UNL     1      -8.564   9.240  67.316  1.00  0.00    -0.125 A  
HETATM    4  F   UNL     1      -8.580  10.759  63.319  1.00  0.00    -0.170 F  
HETATM    5  F   UNL     1      -7.806   8.880  62.551  1.00  0.00    -0.114 F  
HETATM    6  C   UNL     1      -8.750   7.853  67.371  1.00  0.00    -0.128 A  
HETATM    7  C   UNL     1      -8.709   7.075  66.216  1.00  0.00    -0.154 A  
HETATM    8  F   UNL     1      -6.485  10.245  63.610  1.00  0.00    -0.126 F  
HETATM    9  C   UNL     1      -9.154   5.631  66.274  1.00  0.00    -0.148 C  
HETATM   10  C   UNL     1      -8.374   7.686  64.998  1.00  0.00    -0.078 A  
HETATM   11  C   UNL     1      -7.744   9.727  63.617  1.00  0.00    -0.137 C  
HETATM   12  C   UNL     1      -8.091   9.063  64.931  1.00  0.00    -0.137 A  
HETATM   13  F   UNL     1      -9.340   5.174  67.544  1.00  0.00    -0.113 F  
HETATM   14  F   UNL     1     -10.338   5.445  65.635  1.00  0.00    -0.107 F  
HETATM   15  C   UNL     1      -8.197   9.835  66.098  1.00  0.00    -0.120 A  
HETATM   16  F   UNL     1      -8.267   4.782  65.693  1.00  0.00    -0.106 F  
ENDBRANCH   2   3
BRANCH   2  17
HETATM   17  O   UNL     1      -9.507  11.329  68.114  1.00  0.00    -0.170 OA 
BRANCH  17  18
HETATM   18  C   UNL     1      -8.732  11.970  67.071  1.00  0.00    -0.188 C  
HETATM   19  N   UNL     1      -9.577  14.314  67.486  1.00  0.00    -0.212 NA 
HETATM   20  C   UNL     1      -8.350  13.478  67.409  1.00  0.00    -0.194 C  
HETATM   21  O   UNL     1      -9.410  11.926  65.804  1.00  0.00    -0.226 OA 
HETATM   22  C   UNL     1     -10.614  12.700  65.857  1.00  0.00    -0.273 C  
HETATM   23  C   UNL     1     -10.335  14.163  66.221  1.00  0.00    -0.292 C  
BRANCH  19  24
HETATM   24  C   UNL     1      -9.432  15.727  67.876  1.00  0.00    -0.212 C  
BRANCH  24  25
HETATM   25  C   UNL     1      -8.410  16.506  67.069  1.00  0.00    -0.190 C  
HETATM   26  O   UNL     1      -8.236  20.516  66.238  1.00  0.00    -0.091 OA 
HETATM   27  O   UNL     1      -5.874  20.025  66.712  1.00  0.00    -0.171 OA 
HETATM   28  N   UNL     1      -7.167  16.117  66.935  1.00  0.00    -0.222 NA 
HETATM   29  O   UNL     1      -6.675  20.085  64.256  1.00  0.00    -0.253 OA 
HETATM   30  C   UNL     1      -6.539  17.142  66.264  1.00  0.00    -0.155 C  
HETATM   31  O   UNL     1      -5.329  17.285  66.148  1.00  0.00    -0.290 OA 
HETATM   32  P   UNL     1      -7.007  19.658  65.642  1.00  0.00    -0.248 P  
HETATM   33  N   UNL     1      -7.472  18.077  65.899  1.00  0.00    -0.227 N  
HETATM   34  N   UNL     1      -8.721  17.679  66.421  1.00  0.00    -0.368 NA 
ENDBRANCH  24  25
ENDBRANCH  19  24
BRANCH  20  35
HETATM   35  C   UNL     1      -7.427  13.509  68.625  1.00  0.00    -0.108 A  
HETATM   36  C   UNL     1      -5.509  12.591  69.825  1.00  0.00    -0.092 A  
HETATM   37  F   UNL     1      -5.171  13.187  72.083  1.00  0.00    -0.151 F  
HETATM   38  C   UNL     1      -6.281  12.686  68.663  1.00  0.00    -0.070 A  
HETATM   39  C   UNL     1      -6.995  14.142  70.937  1.00  0.00     1.029 A  
HETATM   40  C   UNL     1      -7.759  14.250  69.771  1.00  0.00     0.400 A  
HETATM   41  C   UNL     1      -5.885  13.310  70.957  1.00  0.00    -0.051 A  
ENDBRANCH  20  35
ENDBRANCH  17  18
ENDBRANCH   2  17
TORSDOF 6
ENDMDL
MODEL      273
REMARK 921   NORMALIZED FREE ENERGY PREDICTED BY IDOCK:   -0.75 KCAL/MOL
REMARK 922        TOTAL FREE ENERGY PREDICTED BY IDOCK:   -1.91 KCAL/MOL
REMARK 923 INTER-LIGAND FREE ENERGY PREDICTED BY IDOCK:   -5.38 KCAL/MOL
REMARK 924 INTRA-LIGAND FREE ENERGY PREDICTED BY IDOCK:    3.46 KCAL/MOL
REMARK 927      BINDING AFFINITY PREDICTED BY RF-SCORE:    0.00 PKD
ROOT
HETATM    1  C   UNL     1     -12.118  12.155  70.710  1.00  0.00    -0.279 C  
HETATM    2  C   UNL     1     -11.833  11.119  69.631  1.00  0.00    -0.348 C  
ENDROOT
BRANCH   2   3
HETATM    3  C   UNL     1     -10.547  10.357  69.879  1.00  0.00    -0.299 A  
HETATM    4  F   UNL     1      -7.966   8.997  66.752  1.00  0.00    -0.102 F  
HETATM    5  F   UNL     1      -6.572   8.171  68.198  1.00  0.00    -0.051 F  
HETATM    6  C   UNL     1     -10.476   9.559  71.028  1.00  0.00    -0.377 A  
HETATM    7  C   UNL     1      -9.491   8.584  71.167  1.00  0.00    -0.249 A  
HETATM    8  F   UNL     1      -6.663  10.321  67.885  1.00  0.00    -0.064 F  
HETATM    9  C   UNL     1      -9.587   7.583  72.296  1.00  0.00    -0.155 C  
HETATM   10  C   UNL     1      -8.499   8.476  70.180  1.00  0.00    -0.126 A  
HETATM   11  C   UNL     1      -7.435   9.205  67.987  1.00  0.00    -0.084 C  
HETATM   12  C   UNL     1      -8.494   9.328  69.060  1.00  0.00    -0.132 A  
HETATM   13  F   UNL     1     -10.541   7.897  73.216  1.00  0.00    -0.383 F  
HETATM   14  F   UNL     1      -9.905   6.342  71.841  1.00  0.00    -0.161 F  
HETATM   15  C   UNL     1      -9.531  10.263  68.914  1.00  0.00    -0.190 A  
HETATM   16  F   UNL     1      -8.425   7.452  72.986  1.00  0.00    -0.122 F  
ENDBRANCH   2   3
BRANCH   2  17
HETATM   17  O   UNL     1     -11.813  11.732  68.331  1.00  0.00    -0.364 OA 
BRANCH  17  18
HETATM   18  C   UNL     1     -12.202  13.128  68.339  1.00  0.00    -0.029 C  
HETATM   19  N   UNL     1     -10.029  14.036  67.427  1.00  0.00    -0.241 NA 
HETATM   20  C   UNL     1     -11.497  13.984  67.197  1.00  0.00    -0.352 C  
HETATM   21  O   UNL     1     -11.949  13.741  69.615  1.00  0.00    -0.303 OA 
HETATM   22  C   UNL     1     -10.541  13.778  69.877  1.00  0.00     0.599 C  
HETATM   23  C   UNL     1      -9.781  14.552  68.794  1.00  0.00    -0.210 C  
BRANCH  19  24
HETATM   24  C   UNL     1      -9.193  14.714  66.421  1.00  0.00    -0.249 C  
BRANCH  24  25
HETATM   25  C   UNL     1      -8.805  16.138  66.774  1.00  0.00    -0.244 C  
HETATM   26  O   UNL     1     -11.148  19.484  67.105  1.00  0.00    -0.446 OA 
HETATM   27  O   UNL     1      -9.656  19.755  69.040  1.00  0.00    -0.340 OA 
HETATM   28  N   UNL     1      -7.763  16.425  67.515  1.00  0.00    -0.135 NA 
HETATM   29  O   UNL     1      -9.103  21.000  66.844  1.00  0.00    -0.062 OA 
HETATM   30  C   UNL     1      -7.832  17.786  67.718  1.00  0.00    -0.216 C  
HETATM   31  O   UNL     1      -7.188  18.417  68.546  1.00  0.00    -0.264 OA 
HETATM   32  P   UNL     1      -9.590  19.726  67.441  1.00  0.00    -0.407 P  
HETATM   33  N   UNL     1      -8.862  18.299  66.976  1.00  0.00    -0.260 N  
HETATM   34  N   UNL     1      -9.524  17.227  66.341  1.00  0.00    -0.294 NA 
ENDBRANCH  24  25
ENDBRANCH  19  24
BRANCH  20  35
HETATM   35  C   UNL     1     -11.955  13.482  65.829  1.00  0.00    -0.439 A  
HETATM   36  C   UNL     1     -13.222  13.858  63.775  1.00  0.00     1.727 A  
HETATM   37  F   UNL     1     -13.643  12.038  62.334  1.00  0.00     0.608 F  
HETATM   38  C   UNL     1     -12.667  14.341  64.964  1.00  0.00    -0.297 A  
HETATM   39  C   UNL     1     -12.363  11.653  64.275  1.00  0.00    -0.048 A  
HETATM   40  C   UNL     1     -11.795  12.138  65.457  1.00  0.00    -0.350 A  
HETATM   41  C   UNL     1     -13.076  12.511  63.451  1.00  0.00     0.360 A  
ENDBRANCH  20  35
ENDBRANCH  17  18
ENDBRANCH   2  17
TORSDOF 6
ENDMDL
MODEL      274
REMARK 921   NORMALIZED FREE ENERGY PREDICTED BY IDOCK:   -0.71 KCAL/MOL
REMARK 922        TOTAL FREE ENERGY PREDICTED BY IDOCK:   -1.86 KCAL/MOL
REMARK 923 INTER-LIGAND FREE ENERGY PREDICTED BY IDOCK:   -5.39 KCAL/MOL
REMARK 924 INTRA-LIGAND FREE ENERGY PREDICTED BY IDOCK:    3.53 KCAL/MOL
REMARK 927      BINDING AFFINITY PREDICTED BY RF-SCORE:    0.00 PKD
ROOT
HETATM    1  C   UNL     1      -9.309   6.380  71.894  1.00  0.00    -0.154 C  
HETATM    2  C   UNL     1      -8.458   7.496  71.300  1.00  0.00    -0.116 C  
ENDROOT
BRANCH   2   3
HETATM    3  C   UNL     1      -9.251   8.761  71.044  1.00  0.00    -0.278 A  
HETATM    4  F   UNL     1     -13.509   8.987  71.366  1.00  0.00    -0.351 F  
HETATM    5  F   UNL     1     -13.482  11.101  70.869  1.00  0.00    -0.200 F  
HETATM    6  C   UNL     1      -8.725   9.684  70.132  1.00  0.00    -0.263 A  
HETATM    7  C   UNL     1      -9.519  10.692  69.590  1.00  0.00     0.063 A  
HETATM    8  F   UNL     1     -12.856  10.443  72.844  1.00  0.00     0.093 F  
HETATM    9  C   UNL     1      -8.995  11.514  68.434  1.00  0.00    -0.173 C  
HETATM   10  C   UNL     1     -10.836  10.839  70.050  1.00  0.00    -0.218 A  
HETATM   11  C   UNL     1     -12.786  10.128  71.522  1.00  0.00    -0.436 C  
HETATM   12  C   UNL     1     -11.361   9.982  71.035  1.00  0.00    -0.434 A  
HETATM   13  F   UNL     1      -7.670  11.316  68.189  1.00  0.00    -0.094 F  
HETATM   14  F   UNL     1      -9.636  11.213  67.274  1.00  0.00    -0.165 F  
HETATM   15  C   UNL     1     -10.560   8.937  71.522  1.00  0.00    -0.399 A  
HETATM   16  F   UNL     1      -9.150  12.850  68.623  1.00  0.00    -0.174 F  
ENDBRANCH   2   3
BRANCH   2  17
HETATM   17  O   UNL     1      -7.811   7.053  70.095  1.00  0.00    -0.105 OA 
BRANCH  17  18
HETATM   18  C   UNL     1      -6.745   6.099  70.323  1.00  0.00    -0.050 C  
HETATM   19  N   UNL     1      -8.005   4.064  69.518  1.00  0.00    -0.056 NA 
HETATM   20  C   UNL     1      -6.773   4.871  69.311  1.00  0.00    -0.048 C  
HETATM   21  O   UNL     1      -6.758   5.602  71.672  1.00  0.00    -0.054 OA 
HETATM   22  C   UNL     1      -7.950   4.844  71.910  1.00  0.00    -0.109 C  
HETATM   23  C   UNL     1      -8.075   3.661  70.943  1.00  0.00    -0.065 C  
BRANCH  19  24
HETATM   24  C   UNL     1      -8.253   2.929  68.611  1.00  0.00    -0.063 C  
BRANCH  24  25
HETATM   25  C   UNL     1      -8.784   3.315  67.243  1.00  0.00    -0.120 C  
HETATM   26  O   UNL     1      -8.267   1.471  63.619  1.00  0.00    -0.061 OA 
HETATM   27  O   UNL     1     -10.647   2.077  63.509  1.00  0.00    -0.160 OA 
HETATM   28  N   UNL     1      -9.891   3.996  67.079  1.00  0.00    -0.179 NA 
HETATM   29  O   UNL     1      -8.906   3.618  62.383  1.00  0.00    -0.084 OA 
HETATM   30  C   UNL     1     -10.099   4.020  65.718  1.00  0.00    -0.099 C  
HETATM   31  O   UNL     1     -11.138   4.348  65.161  1.00  0.00    -0.230 OA 
HETATM   32  P   UNL     1      -9.209   2.778  63.573  1.00  0.00    -0.101 P  
HETATM   33  N   UNL     1      -9.025   3.449  65.089  1.00  0.00    -0.132 N  
HETATM   34  N   UNL     1      -8.138   2.972  66.078  1.00  0.00    -0.085 NA 
ENDBRANCH  24  25
ENDBRANCH  19  24
BRANCH  20  35
HETATM   35  C   UNL     1      -6.519   5.374  67.891  1.00  0.00    -0.048 A  
HETATM   36  C   UNL     1      -7.190   6.790  66.018  1.00  0.00    -0.067 A  
HETATM   37  F   UNL     1      -6.207   6.440  63.902  1.00  0.00    -0.025 F  
HETATM   38  C   UNL     1      -7.308   6.418  67.361  1.00  0.00    -0.087 A  
HETATM   39  C   UNL     1      -5.490   5.098  65.702  1.00  0.00    -0.013 A  
HETATM   40  C   UNL     1      -5.597   4.735  67.048  1.00  0.00    -0.014 A  
HETATM   41  C   UNL     1      -6.291   6.113  65.198  1.00  0.00    -0.038 A  
ENDBRANCH  20  35
ENDBRANCH  17  18
ENDBRANCH   2  17
TORSDOF 6
ENDMDL
MODEL      275
REMARK 921   NORMALIZED FREE ENERGY PREDICTED BY IDOCK:   -0.65 KCAL/MOL
REMARK 922        TOTAL FREE ENERGY PREDICTED BY IDOCK:   -1.78 KCAL/MOL
REMARK 923 INTER-LIGAND FREE ENERGY PREDICTED BY IDOCK:   -0.95 KCAL/MOL
REMARK 924 INTRA-LIGAND FREE ENERGY PREDICTED BY IDOCK:   -0.83 KCAL/MOL
REMARK 927      BINDING AFFINITY PREDICTED BY RF-SCORE:    0.00 PKD
ROOT
HETATM    1  C   UNL     1      -7.534  12.078  70.273  1.00  0.00     2.262 C  
HETATM    2  C   UNL     1      -8.139  12.300  68.892  1.00  0.00     0.160 C  
ENDROOT
BRANCH   2   3
HETATM    3  C   UNL     1      -9.620  12.616  68.949  1.00  0.00     0.218 A  
HETATM    4  F   UNL     1     -11.203  16.577  68.643  1.00  0.00    -0.329 F  
HETATM    5  F   UNL     1     -13.236  15.827  68.791  1.00  0.00     0.845 F  
HETATM    6  C   UNL     1     -10.439  11.760  69.695  1.00  0.00     0.411 A  
HETATM    7  C   UNL     1     -11.724  12.143  70.075  1.00  0.00    -0.330 A  
HETATM    8  F   UNL     1     -12.121  15.579  66.941  1.00  0.00     0.049 F  
HETATM    9  C   UNL     1     -12.486  11.306  71.077  1.00  0.00    -0.400 C  
HETATM   10  C   UNL     1     -12.231  13.366  69.612  1.00  0.00    -0.279 A  
HETATM   11  C   UNL     1     -12.001  15.531  68.295  1.00  0.00    -0.039 C  
HETATM   12  C   UNL     1     -11.462  14.205  68.784  1.00  0.00    -0.333 A  
HETATM   13  F   UNL     1     -11.896  10.106  71.336  1.00  0.00    -0.402 F  
HETATM   14  F   UNL     1     -12.592  11.934  72.277  1.00  0.00    -0.214 F  
HETATM   15  C   UNL     1     -10.150  13.823  68.464  1.00  0.00    -0.225 A  
HETATM   16  F   UNL     1     -13.753  11.026  70.676  1.00  0.00     0.144 F  
ENDBRANCH   2   3
BRANCH   2  17
HETATM   17  O   UNL     1      -7.898  11.165  68.044  1.00  0.00    -0.106 OA 
BRANCH  17  18
HETATM   18  C   UNL     1      -6.674  11.262  67.275  1.00  0.00    -0.104 C  
HETATM   19  N   UNL     1      -6.312   8.778  66.997  1.00  0.00    -0.059 NA 
HETATM   20  C   UNL     1      -6.475  10.056  66.255  1.00  0.00    -0.081 C  
HETATM   21  O   UNL     1      -5.519  11.358  68.127  1.00  0.00    -0.043 OA 
HETATM   22  C   UNL     1      -5.355  10.149  68.878  1.00  0.00    -0.035 C  
HETATM   23  C   UNL     1      -5.198   8.928  67.964  1.00  0.00    -0.035 C  
BRANCH  19  24
HETATM   24  C   UNL     1      -6.203   7.532  66.219  1.00  0.00    -0.041 C  
BRANCH  24  25
HETATM   25  C   UNL     1      -7.479   6.714  66.148  1.00  0.00    -0.081 C  
HETATM   26  O   UNL     1      -8.397   3.494  63.783  1.00  0.00    -0.089 OA 
HETATM   27  O   UNL     1      -9.359   2.795  65.934  1.00  0.00    -0.122 OA 
HETATM   28  N   UNL     1      -8.293   6.582  67.165  1.00  0.00    -0.113 NA 
HETATM   29  O   UNL     1     -10.899   3.871  64.161  1.00  0.00    -0.287 OA 
HETATM   30  C   UNL     1      -9.239   5.670  66.752  1.00  0.00    -0.128 C  
HETATM   31  O   UNL     1     -10.038   5.093  67.477  1.00  0.00    -0.169 OA 
HETATM   32  P   UNL     1      -9.562   3.919  64.813  1.00  0.00    -0.192 P  
HETATM   33  N   UNL     1      -9.029   5.373  65.432  1.00  0.00    -0.152 N  
HETATM   34  N   UNL     1      -7.867   6.052  65.007  1.00  0.00    -0.101 NA 
ENDBRANCH  24  25
ENDBRANCH  19  24
BRANCH  20  35
HETATM   35  C   UNL     1      -7.577  10.095  65.199  1.00  0.00    -0.141 A  
HETATM   36  C   UNL     1      -8.351  10.834  63.004  1.00  0.00    -0.086 A  
HETATM   37  F   UNL     1     -10.646  10.675  62.480  1.00  0.00     0.033 F  
HETATM   38  C   UNL     1      -7.318  10.654  63.929  1.00  0.00     0.227 A  
HETATM   39  C   UNL     1      -9.924   9.894  64.583  1.00  0.00    -0.072 A  
HETATM   40  C   UNL     1      -8.889   9.700  65.503  1.00  0.00    -0.204 A  
HETATM   41  C   UNL     1      -9.649  10.465  63.349  1.00  0.00    -0.312 A  
ENDBRANCH  20  35
ENDBRANCH  17  18
ENDBRANCH   2  17
TORSDOF 6
ENDMDL
MODEL      276
REMARK 921   NORMALIZED FREE ENERGY PREDICTED BY IDOCK:   -0.38 KCAL/MOL
REMARK 922        TOTAL FREE ENERGY PREDICTED BY IDOCK:   -1.42 KCAL/MOL
REMARK 923 INTER-LIGAND FREE ENERGY PREDICTED BY IDOCK:   -1.55 KCAL/MOL
REMARK 924 INTRA-LIGAND FREE ENERGY PREDICTED BY IDOCK:    0.13 KCAL/MOL
REMARK 927      BINDING AFFINITY PREDICTED BY RF-SCORE:    0.00 PKD
ROOT
HETATM    1  C   UNL     1      -9.528  13.928  68.847  1.00  0.00     0.047 C  
HETATM    2  C   UNL     1     -10.528  12.849  68.452  1.00  0.00    -0.251 C  
ENDROOT
BRANCH   2   3
HETATM    3  C   UNL     1     -11.646  12.692  69.462  1.00  0.00    -0.348 A  
HETATM    4  F   UNL     1     -12.496  15.566  72.513  1.00  0.00    -0.368 F  
HETATM    5  F   UNL     1     -14.172  14.384  73.225  1.00  0.00     0.112 F  
HETATM    6  C   UNL     1     -12.018  11.391  69.822  1.00  0.00    -0.422 A  
HETATM    7  C   UNL     1     -12.784  11.151  70.961  1.00  0.00    -0.476 A  
HETATM    8  F   UNL     1     -14.356  15.526  71.384  1.00  0.00    -0.549 F  
HETATM    9  C   UNL     1     -12.961   9.733  71.456  1.00  0.00    -0.407 C  
HETATM   10  C   UNL     1     -13.270  12.244  71.694  1.00  0.00    -0.356 A  
HETATM   11  C   UNL     1     -13.499  14.746  72.097  1.00  0.00    -0.391 C  
HETATM   12  C   UNL     1     -12.988  13.565  71.301  1.00  0.00    -0.384 A  
HETATM   13  F   UNL     1     -12.521   8.795  70.572  1.00  0.00    -0.094 F  
HETATM   14  F   UNL     1     -12.271   9.513  72.605  1.00  0.00    -0.250 F  
HETATM   15  C   UNL     1     -12.166  13.779  70.184  1.00  0.00    -0.425 A  
HETATM   16  F   UNL     1     -14.257   9.424  71.720  1.00  0.00    -0.328 F  
ENDBRANCH   2   3
BRANCH   2  17
HETATM   17  O   UNL     1      -9.861  11.594  68.238  1.00  0.00    -0.187 OA 
BRANCH  17  18
HETATM   18  C   UNL     1      -9.375  11.415  66.885  1.00  0.00    -0.181 C  
HETATM   19  N   UNL     1      -7.467   9.867  67.468  1.00  0.00    -0.090 NA 
HETATM   20  C   UNL     1      -8.697   9.995  66.643  1.00  0.00    -0.129 C  
HETATM   21  O   UNL     1      -8.451  12.452  66.513  1.00  0.00    -0.088 OA 
HETATM   22  C   UNL     1      -7.266  12.371  67.314  1.00  0.00    -0.125 C  
HETATM   23  C   UNL     1      -6.572  11.011  67.169  1.00  0.00    -0.089 C  
BRANCH  19  24
HETATM   24  C   UNL     1      -6.745   8.583  67.444  1.00  0.00    -0.063 C  
BRANCH  24  25
HETATM   25  C   UNL     1      -7.152   7.606  68.533  1.00  0.00    -0.081 C  
HETATM   26  O   UNL     1      -5.959   3.735  69.156  1.00  0.00    -0.022 OA 
HETATM   27  O   UNL     1      -5.959   4.609  71.454  1.00  0.00    -0.016 OA 
HETATM   28  N   UNL     1      -7.549   7.994  69.719  1.00  0.00    -0.090 NA 
HETATM   29  O   UNL     1      -8.014   3.287  70.613  1.00  0.00    -0.046 OA 
HETATM   30  C   UNL     1      -7.689   6.834  70.448  1.00  0.00    -0.100 C  
HETATM   31  O   UNL     1      -7.813   6.764  71.663  1.00  0.00    -0.099 OA 
HETATM   32  P   UNL     1      -6.985   4.303  70.263  1.00  0.00    -0.038 P  
HETATM   33  N   UNL     1      -7.487   5.759  69.623  1.00  0.00    -0.074 N  
HETATM   34  N   UNL     1      -7.129   6.244  68.347  1.00  0.00    -0.080 NA 
ENDBRANCH  24  25
ENDBRANCH  19  24
BRANCH  20  35
HETATM   35  C   UNL     1      -9.744   8.896  66.806  1.00  0.00    -0.282 A  
HETATM   36  C   UNL     1     -11.864   8.145  67.757  1.00  0.00     2.941 A  
HETATM   37  F   UNL     1     -12.397   5.847  67.708  1.00  0.00     2.140 F  
HETATM   38  C   UNL     1     -10.960   9.171  67.468  1.00  0.00    -0.010 A  
HETATM   39  C   UNL     1     -10.373   6.545  66.724  1.00  0.00    -0.279 A  
HETATM   40  C   UNL     1      -9.475   7.573  66.421  1.00  0.00    -0.208 A  
HETATM   41  C   UNL     1     -11.552   6.837  67.394  1.00  0.00     0.638 A  
ENDBRANCH  20  35
ENDBRANCH  17  18
ENDBRANCH   2  17
TORSDOF 6
ENDMDL
MODEL      277
REMARK 921   NORMALIZED FREE ENERGY PREDICTED BY IDOCK:   -0.23 KCAL/MOL
REMARK 922        TOTAL FREE ENERGY PREDICTED BY IDOCK:   -1.21 KCAL/MOL
REMARK 923 INTER-LIGAND FREE ENERGY PREDICTED BY IDOCK:   -8.44 KCAL/MOL
REMARK 924 INTRA-LIGAND FREE ENERGY PREDICTED BY IDOCK:    7.23 KCAL/MOL
REMARK 927      BINDING AFFINITY PREDICTED BY RF-SCORE:    0.00 PKD
ROOT
HETATM    1  C   UNL     1      -9.526  13.928  68.839  1.00  0.00     0.047 C  
HETATM    2  C   UNL     1     -10.489  12.816  68.444  1.00  0.00    -0.243 C  
ENDROOT
BRANCH   2   3
HETATM    3  C   UNL     1     -11.601  12.621  69.454  1.00  0.00    -0.369 A  
HETATM    4  F   UNL     1     -12.535  15.456  72.516  1.00  0.00    -0.354 F  
HETATM    5  F   UNL     1     -14.175  14.221  73.225  1.00  0.00     0.150 F  
HETATM    6  C   UNL     1     -11.934  11.308  69.809  1.00  0.00    -0.431 A  
HETATM    7  C   UNL     1     -12.692  11.040  70.947  1.00  0.00    -0.452 A  
HETATM    8  F   UNL     1     -14.394  15.364  71.388  1.00  0.00    -0.536 F  
HETATM    9  C   UNL     1     -12.826   9.616  71.436  1.00  0.00    -0.379 C  
HETATM   10  C   UNL     1     -13.210  12.115  71.685  1.00  0.00    -0.358 A  
HETATM   11  C   UNL     1     -13.513  14.608  72.098  1.00  0.00    -0.395 C  
HETATM   12  C   UNL     1     -12.968  13.446  71.297  1.00  0.00    -0.368 A  
HETATM   13  F   UNL     1     -12.357   8.695  70.548  1.00  0.00    -0.131 F  
HETATM   14  F   UNL     1     -12.129   9.412  72.585  1.00  0.00    -0.261 F  
HETATM   15  C   UNL     1     -12.153  13.689  70.180  1.00  0.00    -0.431 A  
HETATM   16  F   UNL     1     -14.111   9.267  71.700  1.00  0.00    -0.388 F  
ENDBRANCH   2   3
BRANCH   2  17
HETATM   17  O   UNL     1      -9.780  11.584  68.230  1.00  0.00    -0.185 OA 
BRANCH  17  18
HETATM   18  C   UNL     1      -9.304  11.412  66.873  1.00  0.00    -0.181 C  
HETATM   19  N   UNL     1     -10.356  13.508  65.934  1.00  0.00    -0.293 NA 
HETATM   20  C   UNL     1      -9.066  12.790  66.111  1.00  0.00     0.059 C  
HETATM   21  O   UNL     1     -10.196  10.591  66.099  1.00  0.00    -0.235 OA 
HETATM   22  C   UNL     1     -11.459  11.246  65.937  1.00  0.00     0.223 C  
HETATM   23  C   UNL     1     -11.311  12.607  65.246  1.00  0.00    -0.315 C  
BRANCH  19  24
HETATM   24  C   UNL     1     -10.326  14.849  65.325  1.00  0.00    -0.396 C  
BRANCH  24  25
HETATM   25  C   UNL     1     -10.234  15.995  66.316  1.00  0.00    -0.316 C  
HETATM   26  O   UNL     1      -9.829  20.016  65.638  1.00  0.00    -0.336 OA 
HETATM   27  O   UNL     1     -11.472  20.005  67.466  1.00  0.00     0.273 OA 
HETATM   28  N   UNL     1     -10.771  15.943  67.509  1.00  0.00    -0.315 NA 
HETATM   29  O   UNL     1      -8.977  20.380  68.023  1.00  0.00    -0.174 OA 
HETATM   30  C   UNL     1     -10.594  17.202  68.037  1.00  0.00    -0.374 C  
HETATM   31  O   UNL     1     -11.153  17.645  69.032  1.00  0.00     0.266 OA 
HETATM   32  P   UNL     1      -9.945  19.611  67.194  1.00  0.00    -0.459 P  
HETATM   33  N   UNL     1      -9.832  17.947  67.176  1.00  0.00    -0.297 N  
HETATM   34  N   UNL     1      -9.581  17.169  66.026  1.00  0.00    -0.494 NA 
ENDBRANCH  24  25
ENDBRANCH  19  24
BRANCH  20  35
HETATM   35  C   UNL     1      -7.944  13.564  66.799  1.00  0.00     0.354 A  
HETATM   36  C   UNL     1      -6.131  13.619  68.434  1.00  0.00    -0.096 A  
HETATM   37  F   UNL     1      -5.207  15.698  69.059  1.00  0.00    -0.095 F  
HETATM   38  C   UNL     1      -7.067  12.901  67.684  1.00  0.00    -0.151 A  
HETATM   39  C   UNL     1      -6.911  15.677  67.431  1.00  0.00    -0.234 A  
HETATM   40  C   UNL     1      -7.838  14.958  66.669  1.00  0.00     0.347 A  
HETATM   41  C   UNL     1      -6.074  15.005  68.310  1.00  0.00    -0.120 A  
ENDBRANCH  20  35
ENDBRANCH  17  18
ENDBRANCH   2  17
TORSDOF 6
ENDMDL
MODEL      278
REMARK 921   NORMALIZED FREE ENERGY PREDICTED BY IDOCK:   -0.17 KCAL/MOL
REMARK 922        TOTAL FREE ENERGY PREDICTED BY IDOCK:   -1.13 KCAL/MOL
REMARK 923 INTER-LIGAND FREE ENERGY PREDICTED BY IDOCK:   -4.07 KCAL/MOL
REMARK 924 INTRA-LIGAND FREE ENERGY PREDICTED BY IDOCK:    2.94 KCAL/MOL
REMARK 927      BINDING AFFINITY PREDICTED BY RF-SCORE:    0.00 PKD
ROOT
HETATM    1  C   UNL     1      -6.755  10.983  65.986  1.00  0.00    -0.024 C  
HETATM    2  C   UNL     1      -7.815   9.929  66.281  1.00  0.00    -0.108 C  
ENDROOT
BRANCH   2   3
HETATM    3  C   UNL     1      -7.329   8.520  66.011  1.00  0.00    -0.081 A  
HETATM    4  F   UNL     1      -8.975   5.992  62.981  1.00  0.00     0.123 F  
HETATM    5  F   UNL     1      -7.570   4.410  63.472  1.00  0.00    -0.055 F  
HETATM    6  C   UNL     1      -6.791   7.802  67.087  1.00  0.00    -0.069 A  
HETATM    7  C   UNL     1      -6.631   6.419  67.019  1.00  0.00    -0.058 A  
HETATM    8  F   UNL     1      -6.894   6.156  62.366  1.00  0.00    -0.034 F  
HETATM    9  C   UNL     1      -6.282   5.647  68.272  1.00  0.00    -0.030 C  
HETATM   10  C   UNL     1      -6.919   5.761  65.814  1.00  0.00    -0.068 A  
HETATM   11  C   UNL     1      -7.698   5.764  63.392  1.00  0.00    -0.089 C  
HETATM   12  C   UNL     1      -7.372   6.473  64.688  1.00  0.00    -0.081 A  
HETATM   13  F   UNL     1      -5.932   6.447  69.318  1.00  0.00    -0.018 F  
HETATM   14  F   UNL     1      -7.330   4.901  68.709  1.00  0.00    -0.058 F  
HETATM   15  C   UNL     1      -7.582   7.856  64.800  1.00  0.00    -0.110 A  
HETATM   16  F   UNL     1      -5.247   4.787  68.091  1.00  0.00    -0.008 F  
ENDBRANCH   2   3
BRANCH   2  17
HETATM   17  O   UNL     1      -9.017  10.199  65.540  1.00  0.00    -0.156 OA 
BRANCH  17  18
HETATM   18  C   UNL     1     -10.193  10.351  66.372  1.00  0.00    -0.230 C  
HETATM   19  N   UNL     1      -9.059   9.839  68.569  1.00  0.00    -0.127 NA 
HETATM   20  C   UNL     1      -9.861  10.859  67.843  1.00  0.00    -0.172 C  
HETATM   21  O   UNL     1     -10.948   9.130  66.450  1.00  0.00     0.229 OA 
HETATM   22  C   UNL     1     -10.187   8.118  67.119  1.00  0.00    -0.296 C  
HETATM   23  C   UNL     1      -9.788   8.549  68.536  1.00  0.00    -0.173 C  
BRANCH  19  24
HETATM   24  C   UNL     1      -8.579  10.166  69.923  1.00  0.00    -0.072 C  
BRANCH  24  25
HETATM   25  C   UNL     1      -9.161   9.304  71.028  1.00  0.00    -0.202 C  
HETATM   26  O   UNL     1     -11.159   5.733  70.786  1.00  0.00    -0.275 OA 
HETATM   27  O   UNL     1      -9.709   5.337  72.732  1.00  0.00    -0.148 OA 
HETATM   28  N   UNL     1      -8.686   9.302  72.248  1.00  0.00     0.119 NA 
HETATM   29  O   UNL     1     -12.154   6.079  73.118  1.00  0.00     0.344 OA 
HETATM   30  C   UNL     1      -9.379   8.307  72.901  1.00  0.00    -0.254 C  
HETATM   31  O   UNL     1      -9.080   7.820  73.983  1.00  0.00    -0.263 OA 
HETATM   32  P   UNL     1     -10.933   6.270  72.289  1.00  0.00    -0.288 P  
HETATM   33  N   UNL     1     -10.353   7.819  72.071  1.00  0.00    -0.205 N  
HETATM   34  N   UNL     1     -10.230   8.464  70.821  1.00  0.00    -0.191 NA 
ENDBRANCH  24  25
ENDBRANCH  19  24
BRANCH  20  35
HETATM   35  C   UNL     1      -9.273  12.267  67.776  1.00  0.00    -0.191 A  
HETATM   36  C   UNL     1      -7.957  14.040  68.817  1.00  0.00    -0.081 A  
HETATM   37  F   UNL     1      -8.042  16.218  67.913  1.00  0.00    -0.141 F  
HETATM   38  C   UNL     1      -8.387  12.710  68.781  1.00  0.00     0.138 A  
HETATM   39  C   UNL     1      -9.275  14.517  66.846  1.00  0.00    -0.267 A  
HETATM   40  C   UNL     1      -9.694  13.183  66.799  1.00  0.00    -0.246 A  
HETATM   41  C   UNL     1      -8.420  14.935  67.855  1.00  0.00    -0.153 A  
ENDBRANCH  20  35
ENDBRANCH  17  18
ENDBRANCH   2  17
TORSDOF 6
ENDMDL
MODEL      279
REMARK 921   NORMALIZED FREE ENERGY PREDICTED BY IDOCK:    0.21 KCAL/MOL
REMARK 922        TOTAL FREE ENERGY PREDICTED BY IDOCK:   -0.62 KCAL/MOL
REMARK 923 INTER-LIGAND FREE ENERGY PREDICTED BY IDOCK:   -6.75 KCAL/MOL
REMARK 924 INTRA-LIGAND FREE ENERGY PREDICTED BY IDOCK:    6.13 KCAL/MOL
REMARK 927      BINDING AFFINITY PREDICTED BY RF-SCORE:    0.00 PKD
ROOT
HETATM    1  C   UNL     1     -12.312  12.095  71.063  1.00  0.00    -0.331 C  
HETATM    2  C   UNL     1     -12.184  11.055  69.957  1.00  0.00    -0.343 C  
ENDROOT
BRANCH   2   3
HETATM    3  C   UNL     1     -10.928  10.219  70.085  1.00  0.00    -0.377 A  
HETATM    4  F   UNL     1      -9.341   8.898  73.830  1.00  0.00     0.190 F  
HETATM    5  F   UNL     1      -7.724   7.849  72.828  1.00  0.00    -0.099 F  
HETATM    6  C   UNL     1      -9.943  10.370  69.101  1.00  0.00    -0.237 A  
HETATM    7  C   UNL     1      -8.645   9.908  69.305  1.00  0.00    -0.169 A  
HETATM    8  F   UNL     1      -9.734   7.019  72.805  1.00  0.00    -0.157 F  
HETATM    9  C   UNL     1      -7.553  10.300  68.335  1.00  0.00    -0.092 C  
HETATM   10  C   UNL     1      -8.356   9.191  70.476  1.00  0.00    -0.222 A  
HETATM   11  C   UNL     1      -9.040   8.185  72.711  1.00  0.00    -0.259 C  
HETATM   12  C   UNL     1      -9.351   8.945  71.440  1.00  0.00    -0.338 A  
HETATM   13  F   UNL     1      -8.024  10.900  67.206  1.00  0.00    -0.113 F  
HETATM   14  F   UNL     1      -6.683  11.184  68.890  1.00  0.00    -0.057 F  
HETATM   15  C   UNL     1     -10.637   9.472  71.238  1.00  0.00    -0.358 A  
HETATM   16  F   UNL     1      -6.811   9.241  67.920  1.00  0.00    -0.067 F  
ENDBRANCH   2   3
BRANCH   2  17
HETATM   17  O   UNL     1     -12.245  11.681  68.664  1.00  0.00    -0.455 OA 
BRANCH  17  18
HETATM   18  C   UNL     1     -12.391  13.121  68.719  1.00  0.00     0.131 C  
HETATM   19  N   UNL     1      -9.936  13.666  68.482  1.00  0.00    -0.229 NA 
HETATM   20  C   UNL     1     -11.279  13.898  67.886  1.00  0.00    -0.278 C  
HETATM   21  O   UNL     1     -12.390  13.602  70.074  1.00  0.00    -0.322 OA 
HETATM   22  C   UNL     1     -11.116  13.365  70.684  1.00  0.00     1.363 C  
HETATM   23  C   UNL     1      -9.980  14.048  69.914  1.00  0.00     1.034 C  
BRANCH  19  24
HETATM   24  C   UNL     1      -8.764  14.236  67.795  1.00  0.00    -0.179 C  
BRANCH  24  25
HETATM   25  C   UNL     1      -8.764  15.751  67.690  1.00  0.00    -0.170 C  
HETATM   26  O   UNL     1     -11.145  18.220  65.446  1.00  0.00    -0.323 OA 
HETATM   27  O   UNL     1     -11.046  19.455  67.569  1.00  0.00    -0.417 OA 
HETATM   28  N   UNL     1      -8.357  16.527  68.663  1.00  0.00    -0.224 NA 
HETATM   29  O   UNL     1      -9.447  20.122  65.653  1.00  0.00    -0.205 OA 
HETATM   30  C   UNL     1      -8.640  17.808  68.242  1.00  0.00    -0.277 C  
HETATM   31  O   UNL     1      -8.636  18.808  68.946  1.00  0.00    -0.297 OA 
HETATM   32  P   UNL     1     -10.080  18.989  66.380  1.00  0.00    -0.451 P  
HETATM   33  N   UNL     1      -9.103  17.765  66.953  1.00  0.00    -0.251 N  
HETATM   34  N   UNL     1      -9.196  16.411  66.564  1.00  0.00    -0.255 NA 
ENDBRANCH  24  25
ENDBRANCH  19  24
BRANCH  20  35
HETATM   35  C   UNL     1     -11.432  13.569  66.402  1.00  0.00    -0.356 A  
HETATM   36  C   UNL     1     -11.842  14.329  64.118  1.00  0.00    -0.338 A  
HETATM   37  F   UNL     1     -12.340  12.739  62.448  1.00  0.00     0.364 F  
HETATM   38  C   UNL     1     -11.553  14.610  65.457  1.00  0.00    -0.335 A  
HETATM   39  C   UNL     1     -11.886  11.965  64.628  1.00  0.00    -0.282 A  
HETATM   40  C   UNL     1     -11.583  12.244  65.964  1.00  0.00    -0.451 A  
HETATM   41  C   UNL     1     -12.021  13.007  63.721  1.00  0.00    -0.518 A  
ENDBRANCH  20  35
ENDBRANCH  17  18
ENDBRANCH   2  17
TORSDOF 6
ENDMDL
MODEL      280
REMARK 921   NORMALIZED FREE ENERGY PREDICTED BY IDOCK:    0.29 KCAL/MOL
REMARK 922        TOTAL FREE ENERGY PREDICTED BY IDOCK:   -0.51 KCAL/MOL
REMARK 923 INTER-LIGAND FREE ENERGY PREDICTED BY IDOCK:   -1.80 KCAL/MOL
REMARK 924 INTRA-LIGAND FREE ENERGY PREDICTED BY IDOCK:    1.29 KCAL/MOL
REMARK 927      BINDING AFFINITY PREDICTED BY RF-SCORE:    0.00 PKD
ROOT
HETATM    1  C   UNL     1      -7.213   6.039  68.687  1.00  0.00    -0.084 C  
HETATM    2  C   UNL     1      -6.101   6.995  68.273  1.00  0.00    -0.034 C  
ENDROOT
BRANCH   2   3
HETATM    3  C   UNL     1      -5.888   8.111  69.275  1.00  0.00    -0.034 A  
HETATM    4  F   UNL     1      -7.292   7.961  73.312  1.00  0.00    -0.098 F  
HETATM    5  F   UNL     1      -6.427   9.908  73.734  1.00  0.00     0.545 F  
HETATM    6  C   UNL     1      -5.792   9.418  68.781  1.00  0.00    -0.040 A  
HETATM    7  C   UNL     1      -5.929  10.518  69.625  1.00  0.00    -0.051 A  
HETATM    8  F   UNL     1      -5.142   8.162  73.577  1.00  0.00    -0.040 F  
HETATM    9  C   UNL     1      -6.064  11.901  69.031  1.00  0.00    -0.071 C  
HETATM   10  C   UNL     1      -6.064  10.301  71.005  1.00  0.00     0.020 A  
HETATM   11  C   UNL     1      -6.230   8.762  73.024  1.00  0.00    -0.029 C  
HETATM   12  C   UNL     1      -6.070   8.999  71.538  1.00  0.00    -0.070 A  
HETATM   13  F   UNL     1      -5.803  11.942  67.694  1.00  0.00    -0.052 F  
HETATM   14  F   UNL     1      -7.324  12.389  69.178  1.00  0.00    -0.097 F  
HETATM   15  C   UNL     1      -5.990   7.906  70.660  1.00  0.00    -0.033 A  
HETATM   16  F   UNL     1      -5.232  12.807  69.606  1.00  0.00    -0.070 F  
ENDBRANCH   2   3
BRANCH   2  17
HETATM   17  O   UNL     1      -6.356   7.533  66.965  1.00  0.00    -0.049 OA 
BRANCH  17  18
HETATM   18  C   UNL     1      -7.655   8.160  66.835  1.00  0.00    -0.095 C  
HETATM   19  N   UNL     1      -7.884   7.835  64.341  1.00  0.00    -0.134 NA 
HETATM   20  C   UNL     1      -8.531   7.556  65.651  1.00  0.00    -0.132 C  
HETATM   21  O   UNL     1      -7.541   9.583  66.662  1.00  0.00    -0.096 OA 
HETATM   22  C   UNL     1      -6.893   9.882  65.420  1.00  0.00    -0.112 C  
HETATM   23  C   UNL     1      -7.655   9.295  64.226  1.00  0.00    -0.112 C  
BRANCH  19  24
HETATM   24  C   UNL     1      -8.505   7.276  63.128  1.00  0.00     0.290 C  
BRANCH  24  25
HETATM   25  C   UNL     1      -8.182   5.817  62.864  1.00  0.00    -0.089 C  
HETATM   26  O   UNL     1      -5.145   3.498  64.348  1.00  0.00    -0.008 OA 
HETATM   27  O   UNL     1      -7.036   1.932  64.455  1.00  0.00    -0.040 OA 
HETATM   28  N   UNL     1      -9.094   4.940  62.528  1.00  0.00    -0.106 NA 
HETATM   29  O   UNL     1      -5.428   1.822  62.435  1.00  0.00    -0.003 OA 
HETATM   30  C   UNL     1      -8.440   3.728  62.517  1.00  0.00    -0.081 C  
HETATM   31  O   UNL     1      -8.975   2.628  62.485  1.00  0.00    -0.081 OA 
HETATM   32  P   UNL     1      -6.162   2.719  63.369  1.00  0.00    -0.019 P  
HETATM   33  N   UNL     1      -7.103   3.938  62.729  1.00  0.00    -0.039 N  
HETATM   34  N   UNL     1      -6.905   5.315  62.962  1.00  0.00    -0.036 NA 
ENDBRANCH  24  25
ENDBRANCH  19  24
BRANCH  20  35
HETATM   35  C   UNL     1      -8.857   6.096  65.953  1.00  0.00    -0.151 A  
HETATM   36  C   UNL     1     -10.438   4.428  66.779  1.00  0.00     0.186 A  
HETATM   37  F   UNL     1      -9.669   2.249  67.254  1.00  0.00    -0.112 F  
HETATM   38  C   UNL     1     -10.159   5.732  66.357  1.00  0.00    -0.182 A  
HETATM   39  C   UNL     1      -8.130   3.815  66.397  1.00  0.00    -0.097 A  
HETATM   40  C   UNL     1      -7.854   5.114  65.960  1.00  0.00    -0.103 A  
HETATM   41  C   UNL     1      -9.413   3.486  66.809  1.00  0.00    -0.165 A  
ENDBRANCH  20  35
ENDBRANCH  17  18
ENDBRANCH   2  17
TORSDOF 6
ENDMDL
MODEL      281
REMARK 921   NORMALIZED FREE ENERGY PREDICTED BY IDOCK:    0.43 KCAL/MOL
REMARK 922        TOTAL FREE ENERGY PREDICTED BY IDOCK:   -0.33 KCAL/MOL
REMARK 923 INTER-LIGAND FREE ENERGY PREDICTED BY IDOCK:   -4.24 KCAL/MOL
REMARK 924 INTRA-LIGAND FREE ENERGY PREDICTED BY IDOCK:    3.91 KCAL/MOL
REMARK 927      BINDING AFFINITY PREDICTED BY RF-SCORE:    0.00 PKD
ROOT
HETATM    1  C   UNL     1      -7.069  10.933  65.650  1.00  0.00     0.062 C  
HETATM    2  C   UNL     1      -8.422  10.308  65.966  1.00  0.00    -0.140 C  
ENDROOT
BRANCH   2   3
HETATM    3  C   UNL     1      -8.370   8.794  66.005  1.00  0.00    -0.130 A  
HETATM    4  F   UNL     1      -6.751   6.568  69.277  1.00  0.00    -0.044 F  
HETATM    5  F   UNL     1      -7.234   4.689  68.300  1.00  0.00    -0.060 F  
HETATM    6  C   UNL     1      -8.269   8.116  64.783  1.00  0.00    -0.137 A  
HETATM    7  C   UNL     1      -7.887   6.777  64.733  1.00  0.00    -0.119 A  
HETATM    8  F   UNL     1      -8.812   5.870  69.218  1.00  0.00    -0.115 F  
HETATM    9  C   UNL     1      -7.552   6.147  63.400  1.00  0.00    -0.085 C  
HETATM   10  C   UNL     1      -7.702   6.079  65.936  1.00  0.00    -0.096 A  
HETATM   11  C   UNL     1      -7.674   5.967  68.478  1.00  0.00    -0.094 C  
HETATM   12  C   UNL     1      -7.887   6.712  67.179  1.00  0.00    -0.105 A  
HETATM   13  F   UNL     1      -7.890   6.926  62.335  1.00  0.00    -0.088 F  
HETATM   14  F   UNL     1      -6.220   5.909  63.279  1.00  0.00    -0.023 F  
HETATM   15  C   UNL     1      -8.215   8.078  67.202  1.00  0.00    -0.117 A  
HETATM   16  F   UNL     1      -8.174   4.955  63.209  1.00  0.00    -0.083 F  
ENDBRANCH   2   3
BRANCH   2  17
HETATM   17  O   UNL     1      -9.418  10.755  65.032  1.00  0.00    -0.210 OA 
BRANCH  17  18
HETATM   18  C   UNL     1     -10.701  11.043  65.641  1.00  0.00    -0.148 C  
HETATM   19  N   UNL     1      -9.963  10.714  68.034  1.00  0.00    -0.157 NA 
HETATM   20  C   UNL     1     -10.578  11.687  67.092  1.00  0.00    -0.232 C  
HETATM   21  O   UNL     1     -11.529   9.870  65.711  1.00  0.00     1.498 OA 
HETATM   22  C   UNL     1     -10.945   8.902  66.590  1.00  0.00     0.529 C  
HETATM   23  C   UNL     1     -10.753   9.460  68.005  1.00  0.00    -0.190 C  
BRANCH  19  24
HETATM   24  C   UNL     1      -9.686  11.160  69.410  1.00  0.00     0.175 C  
BRANCH  24  25
HETATM   25  C   UNL     1     -10.392  10.361  70.490  1.00  0.00     0.285 C  
HETATM   26  O   UNL     1     -14.339   9.303  70.806  1.00  0.00     0.089 OA 
HETATM   27  O   UNL     1     -13.232   7.228  71.520  1.00  0.00    -0.376 OA 
HETATM   28  N   UNL     1      -9.780   9.462  71.220  1.00  0.00    -0.221 NA 
HETATM   29  O   UNL     1     -14.074   8.883  73.316  1.00  0.00    -0.248 OA 
HETATM   30  C   UNL     1     -10.773   8.872  71.970  1.00  0.00    -0.319 C  
HETATM   31  O   UNL     1     -10.666   7.831  72.604  1.00  0.00    -0.282 OA 
HETATM   32  P   UNL     1     -13.403   8.747  71.995  1.00  0.00    -0.449 P  
HETATM   33  N   UNL     1     -11.952   9.534  71.753  1.00  0.00    -0.382 N  
HETATM   34  N   UNL     1     -11.727  10.526  70.775  1.00  0.00    -0.348 NA 
ENDBRANCH  24  25
ENDBRANCH  19  24
BRANCH  20  35
HETATM   35  C   UNL     1      -9.905  13.053  66.988  1.00  0.00    -0.238 A  
HETATM   36  C   UNL     1      -9.795  15.262  65.952  1.00  0.00    -0.385 A  
HETATM   37  F   UNL     1      -7.874  16.592  66.280  1.00  0.00    -0.282 F  
HETATM   38  C   UNL     1     -10.473  14.060  66.177  1.00  0.00    -0.297 A  
HETATM   39  C   UNL     1      -7.974  14.493  67.346  1.00  0.00    -0.221 A  
HETATM   40  C   UNL     1      -8.658  13.296  67.584  1.00  0.00    -0.196 A  
HETATM   41  C   UNL     1      -8.543  15.459  66.529  1.00  0.00    -0.259 A  
ENDBRANCH  20  35
ENDBRANCH  17  18
ENDBRANCH   2  17
TORSDOF 6
ENDMDL
MODEL      282
REMARK 921   NORMALIZED FREE ENERGY PREDICTED BY IDOCK:    0.62 KCAL/MOL
REMARK 922        TOTAL FREE ENERGY PREDICTED BY IDOCK:   -0.07 KCAL/MOL
REMARK 923 INTER-LIGAND FREE ENERGY PREDICTED BY IDOCK:   -5.46 KCAL/MOL
REMARK 924 INTRA-LIGAND FREE ENERGY PREDICTED BY IDOCK:    5.39 KCAL/MOL
REMARK 927      BINDING AFFINITY PREDICTED BY RF-SCORE:    0.00 PKD
ROOT
HETATM    1  C   UNL     1      -7.843  10.240  69.516  1.00  0.00    -0.172 C  
HETATM    2  C   UNL     1      -9.014  10.034  68.564  1.00  0.00    -0.124 C  
ENDROOT
BRANCH   2   3
HETATM    3  C   UNL     1      -8.671   9.115  67.409  1.00  0.00    -0.118 A  
HETATM    4  F   UNL     1      -5.466   6.287  67.509  1.00  0.00    -0.004 F  
HETATM    5  F   UNL     1      -5.951   5.595  65.508  1.00  0.00    -0.022 F  
HETATM    6  C   UNL     1      -8.960   9.565  66.114  1.00  0.00    -0.191 A  
HETATM    7  C   UNL     1      -8.391   8.955  64.998  1.00  0.00    -0.174 A  
HETATM    8  F   UNL     1      -7.199   5.011  67.190  1.00  0.00    -0.070 F  
HETATM    9  C   UNL     1      -8.525   9.610  63.641  1.00  0.00    -0.188 C  
HETATM   10  C   UNL     1      -7.601   7.810  65.179  1.00  0.00    -0.094 A  
HETATM   11  C   UNL     1      -6.507   6.057  66.664  1.00  0.00    -0.050 C  
HETATM   12  C   UNL     1      -7.371   7.282  66.463  1.00  0.00    -0.080 A  
HETATM   13  F   UNL     1      -9.409  10.646  63.627  1.00  0.00    -0.202 F  
HETATM   14  F   UNL     1      -7.343  10.125  63.215  1.00  0.00    -0.129 F  
HETATM   15  C   UNL     1      -7.906   7.950  67.576  1.00  0.00    -0.122 A  
HETATM   16  F   UNL     1      -8.938   8.747  62.677  1.00  0.00    -0.198 F  
ENDBRANCH   2   3
BRANCH   2  17
HETATM   17  O   UNL     1      -9.501  11.296  68.078  1.00  0.00    -0.162 OA 
BRANCH  17  18
HETATM   18  C   UNL     1      -8.677  11.878  67.038  1.00  0.00    -0.181 C  
HETATM   19  N   UNL     1      -9.471  14.256  67.339  1.00  0.00    -0.206 NA 
HETATM   20  C   UNL     1      -8.265  13.387  67.332  1.00  0.00    -0.183 C  
HETATM   21  O   UNL     1      -9.316  11.803  65.752  1.00  0.00    -0.232 OA 
HETATM   22  C   UNL     1     -10.501  12.609  65.739  1.00  0.00    -0.277 C  
HETATM   23  C   UNL     1     -10.194  14.077  66.057  1.00  0.00    -0.304 C  
BRANCH  19  24
HETATM   24  C   UNL     1      -9.300  15.679  67.681  1.00  0.00    -0.206 C  
BRANCH  24  25
HETATM   25  C   UNL     1      -8.247  16.405  66.865  1.00  0.00    -0.218 C  
HETATM   26  O   UNL     1      -7.965  20.378  65.898  1.00  0.00    -0.140 OA 
HETATM   27  O   UNL     1      -5.624  19.851  66.430  1.00  0.00    -0.171 OA 
HETATM   28  N   UNL     1      -7.011  15.983  66.767  1.00  0.00    -0.234 NA 
HETATM   29  O   UNL     1      -6.383  19.842  63.960  1.00  0.00    -0.303 OA 
HETATM   30  C   UNL     1      -6.349  16.969  66.071  1.00  0.00     0.339 C  
HETATM   31  O   UNL     1      -5.134  17.080  65.971  1.00  0.00    -0.348 OA 
HETATM   32  P   UNL     1      -6.748  19.472  65.354  1.00  0.00    -0.183 P  
HETATM   33  N   UNL     1      -7.253  17.912  65.658  1.00  0.00    -0.142 N  
HETATM   34  N   UNL     1      -8.520  17.561  66.172  1.00  0.00    -0.484 NA 
ENDBRANCH  24  25
ENDBRANCH  19  24
BRANCH  20  35
HETATM   35  C   UNL     1      -7.379  13.440  68.575  1.00  0.00    -0.111 A  
HETATM   36  C   UNL     1      -5.742  12.360  70.030  1.00  0.00    -0.141 A  
HETATM   37  F   UNL     1      -5.314  13.280  72.161  1.00  0.00    -0.158 F  
HETATM   38  C   UNL     1      -6.454  12.405  68.827  1.00  0.00    -0.084 A  
HETATM   39  C   UNL     1      -6.852  14.383  70.757  1.00  0.00     0.494 A  
HETATM   40  C   UNL     1      -7.552  14.437  69.548  1.00  0.00     0.083 A  
HETATM   41  C   UNL     1      -5.962  13.345  70.991  1.00  0.00     0.028 A  
ENDBRANCH  20  35
ENDBRANCH  17  18
ENDBRANCH   2  17
TORSDOF 6
ENDMDL
MODEL      283
REMARK 921   NORMALIZED FREE ENERGY PREDICTED BY IDOCK:    1.14 KCAL/MOL
REMARK 922        TOTAL FREE ENERGY PREDICTED BY IDOCK:    0.64 KCAL/MOL
REMARK 923 INTER-LIGAND FREE ENERGY PREDICTED BY IDOCK:   -6.45 KCAL/MOL
REMARK 924 INTRA-LIGAND FREE ENERGY PREDICTED BY IDOCK:    7.09 KCAL/MOL
REMARK 927      BINDING AFFINITY PREDICTED BY RF-SCORE:    0.00 PKD
ROOT
HETATM    1  C   UNL     1      -9.588  12.417  67.653  1.00  0.00    -0.193 C  
HETATM    2  C   UNL     1     -10.169  12.011  69.002  1.00  0.00     0.040 C  
ENDROOT
BRANCH   2   3
HETATM    3  C   UNL     1      -9.557  10.733  69.540  1.00  0.00     0.023 A  
HETATM    4  F   UNL     1      -5.998   8.969  67.958  1.00  0.00    -0.046 F  
HETATM    5  F   UNL     1      -6.079   7.373  69.429  1.00  0.00    -0.027 F  
HETATM    6  C   UNL     1     -10.420   9.793  70.117  1.00  0.00    -0.338 A  
HETATM    7  C   UNL     1     -10.012   8.478  70.330  1.00  0.00    -0.203 A  
HETATM    8  F   UNL     1      -5.440   9.364  70.024  1.00  0.00    -0.031 F  
HETATM    9  C   UNL     1     -11.034   7.435  70.723  1.00  0.00    -0.255 C  
HETATM   10  C   UNL     1      -8.682   8.127  70.054  1.00  0.00    -0.131 A  
HETATM   11  C   UNL     1      -6.337   8.699  69.248  1.00  0.00    -0.042 C  
HETATM   12  C   UNL     1      -7.768   9.077  69.560  1.00  0.00    -0.082 A  
HETATM   13  F   UNL     1     -12.245   7.964  71.054  1.00  0.00    -0.309 F  
HETATM   14  F   UNL     1     -11.273   6.562  69.710  1.00  0.00    -0.314 F  
HETATM   15  C   UNL     1      -8.220  10.380  69.298  1.00  0.00    -0.163 A  
HETATM   16  F   UNL     1     -10.643   6.689  71.789  1.00  0.00    -0.222 F  
ENDBRANCH   2   3
BRANCH   2  17
HETATM   17  O   UNL     1     -11.599  11.892  68.922  1.00  0.00    -0.259 OA 
BRANCH  17  18
HETATM   18  C   UNL     1     -12.287  13.165  68.860  1.00  0.00     0.118 C  
HETATM   19  N   UNL     1     -10.316  14.518  68.047  1.00  0.00    -0.227 NA 
HETATM   20  C   UNL     1     -11.718  14.134  67.733  1.00  0.00    -0.373 C  
HETATM   21  O   UNL     1     -12.261  13.844  70.127  1.00  0.00    -0.324 OA 
HETATM   22  C   UNL     1     -10.916  14.201  70.471  1.00  0.00     0.504 C  
HETATM   23  C   UNL     1     -10.278  15.103  69.409  1.00  0.00    -0.240 C  
BRANCH  19  24
HETATM   24  C   UNL     1      -9.587  15.345  67.071  1.00  0.00    -0.218 C  
BRANCH  24  25
HETATM   25  C   UNL     1      -8.354  16.038  67.621  1.00  0.00    -0.151 C  
HETATM   26  O   UNL     1      -7.667  20.024  68.287  1.00  0.00    -0.290 OA 
HETATM   27  O   UNL     1      -6.669  19.026  70.299  1.00  0.00     0.113 OA 
HETATM   28  N   UNL     1      -7.514  15.448  68.435  1.00  0.00    -0.112 NA 
HETATM   29  O   UNL     1      -5.139  19.633  68.308  1.00  0.00    -0.184 OA 
HETATM   30  C   UNL     1      -6.626  16.431  68.810  1.00  0.00    -0.154 C  
HETATM   31  O   UNL     1      -5.832  16.360  69.738  1.00  0.00    -0.169 OA 
HETATM   32  P   UNL     1      -6.450  19.057  68.714  1.00  0.00    -0.276 P  
HETATM   33  N   UNL     1      -6.893  17.572  68.099  1.00  0.00    -0.192 N  
HETATM   34  N   UNL     1      -8.035  17.337  67.303  1.00  0.00    -0.183 NA 
ENDBRANCH  24  25
ENDBRANCH  19  24
BRANCH  20  35
HETATM   35  C   UNL     1     -11.963  13.516  66.358  1.00  0.00    -0.459 A  
HETATM   36  C   UNL     1     -11.261  11.977  64.596  1.00  0.00    -0.380 A  
HETATM   37  F   UNL     1     -12.260  12.137  62.465  1.00  0.00     0.166 F  
HETATM   38  C   UNL     1     -11.148  12.455  65.906  1.00  0.00    -0.349 A  
HETATM   39  C   UNL     1     -13.006  13.594  64.160  1.00  0.00     0.462 A  
HETATM   40  C   UNL     1     -12.905  14.063  65.474  1.00  0.00    -0.453 A  
HETATM   41  C   UNL     1     -12.181  12.565  63.731  1.00  0.00    -0.525 A  
ENDBRANCH  20  35
ENDBRANCH  17  18
ENDBRANCH   2  17
TORSDOF 6
ENDMDL
MODEL      284
REMARK 921   NORMALIZED FREE ENERGY PREDICTED BY IDOCK:    1.46 KCAL/MOL
REMARK 922        TOTAL FREE ENERGY PREDICTED BY IDOCK:    1.06 KCAL/MOL
REMARK 923 INTER-LIGAND FREE ENERGY PREDICTED BY IDOCK:   -3.06 KCAL/MOL
REMARK 924 INTRA-LIGAND FREE ENERGY PREDICTED BY IDOCK:    4.12 KCAL/MOL
REMARK 927      BINDING AFFINITY PREDICTED BY RF-SCORE:    0.00 PKD
ROOT
HETATM    1  C   UNL     1     -12.617  14.529  67.349  1.00  0.00     0.525 C  
HETATM    2  C   UNL     1     -11.281  15.257  67.291  1.00  0.00    -0.306 C  
ENDROOT
BRANCH   2   3
HETATM    3  C   UNL     1     -10.694  15.509  68.665  1.00  0.00    -0.252 A  
HETATM    4  F   UNL     1      -6.890  14.011  69.919  1.00  0.00    -0.120 F  
HETATM    5  F   UNL     1      -7.098  14.972  71.856  1.00  0.00     1.173 F  
HETATM    6  C   UNL     1     -11.586  15.687  69.730  1.00  0.00    -0.360 A  
HETATM    7  C   UNL     1     -11.156  15.592  71.052  1.00  0.00    -0.365 A  
HETATM    8  F   UNL     1      -6.622  16.163  70.100  1.00  0.00    -0.164 F  
HETATM    9  C   UNL     1     -12.177  15.546  72.166  1.00  0.00    -0.404 C  
HETATM   10  C   UNL     1      -9.788  15.416  71.310  1.00  0.00     1.785 A  
HETATM   11  C   UNL     1      -7.384  15.121  70.532  1.00  0.00     0.692 C  
HETATM   12  C   UNL     1      -8.857  15.326  70.258  1.00  0.00     0.787 A  
HETATM   13  F   UNL     1     -13.441  15.838  71.752  1.00  0.00    -0.501 F  
HETATM   14  F   UNL     1     -12.247  14.312  72.731  1.00  0.00    -0.278 F  
HETATM   15  C   UNL     1      -9.323  15.366  68.935  1.00  0.00    -0.218 A  
HETATM   16  F   UNL     1     -11.899  16.413  73.173  1.00  0.00    -0.551 F  
ENDBRANCH   2   3
BRANCH   2  17
HETATM   17  O   UNL     1     -11.406  16.490  66.563  1.00  0.00     0.272 OA 
BRANCH  17  18
HETATM   18  C   UNL     1     -10.474  16.613  65.460  1.00  0.00    -0.267 C  
HETATM   19  N   UNL     1      -8.818  14.898  66.292  1.00  0.00    -0.170 NA 
HETATM   20  C   UNL     1      -9.691  15.264  65.145  1.00  0.00    -0.001 C  
HETATM   21  O   UNL     1      -9.526  17.671  65.684  1.00  0.00    -0.473 OA 
HETATM   22  C   UNL     1      -8.689  17.359  66.804  1.00  0.00    -0.255 C  
HETATM   23  C   UNL     1      -7.928  16.044  66.597  1.00  0.00    -0.256 C  
BRANCH  19  24
HETATM   24  C   UNL     1      -8.076  13.627  66.222  1.00  0.00     1.327 C  
BRANCH  24  25
HETATM   25  C   UNL     1      -8.436  12.622  67.300  1.00  0.00    -0.193 C  
HETATM   26  O   UNL     1     -12.070  10.968  68.229  1.00  0.00    -0.604 OA 
HETATM   27  O   UNL     1     -10.592   9.013  68.428  1.00  0.00    -0.207 OA 
HETATM   28  N   UNL     1      -7.579  11.749  67.770  1.00  0.00    -0.118 NA 
HETATM   29  O   UNL     1     -11.233  10.325  70.560  1.00  0.00    -0.300 OA 
HETATM   30  C   UNL     1      -8.312  10.943  68.612  1.00  0.00    -0.148 C  
HETATM   31  O   UNL     1      -7.948   9.867  69.066  1.00  0.00    -0.089 OA 
HETATM   32  P   UNL     1     -10.843  10.431  69.128  1.00  0.00    -0.267 P  
HETATM   33  N   UNL     1      -9.583  11.444  68.718  1.00  0.00    -0.169 N  
HETATM   34  N   UNL     1      -9.692  12.557  67.858  1.00  0.00    -0.199 NA 
ENDBRANCH  24  25
ENDBRANCH  19  24
BRANCH  20  35
HETATM   35  C   UNL     1     -10.679  14.200  64.674  1.00  0.00    -0.408 A  
HETATM   36  C   UNL     1     -11.128  11.876  64.073  1.00  0.00    -0.459 A  
HETATM   37  F   UNL     1     -13.134  11.345  62.949  1.00  0.00    -0.403 F  
HETATM   38  C   UNL     1     -10.292  12.843  64.639  1.00  0.00    -0.366 A  
HETATM   39  C   UNL     1     -12.762  13.588  63.571  1.00  0.00     0.163 A  
HETATM   40  C   UNL     1     -11.933  14.553  64.151  1.00  0.00    -0.346 A  
HETATM   41  C   UNL     1     -12.351  12.263  63.529  1.00  0.00    -0.565 A  
ENDBRANCH  20  35
ENDBRANCH  17  18
ENDBRANCH   2  17
TORSDOF 6
ENDMDL
MODEL      285
REMARK 921   NORMALIZED FREE ENERGY PREDICTED BY IDOCK:    1.53 KCAL/MOL
REMARK 922        TOTAL FREE ENERGY PREDICTED BY IDOCK:    1.16 KCAL/MOL
REMARK 923 INTER-LIGAND FREE ENERGY PREDICTED BY IDOCK:   -3.09 KCAL/MOL
REMARK 924 INTRA-LIGAND FREE ENERGY PREDICTED BY IDOCK:    4.25 KCAL/MOL
REMARK 927      BINDING AFFINITY PREDICTED BY RF-SCORE:    0.00 PKD
ROOT
HETATM    1  C   UNL     1      -9.370  14.768  64.979  1.00  0.00     1.011 C  
HETATM    2  C   UNL     1     -10.564  14.274  65.785  1.00  0.00    -0.309 C  
ENDROOT
BRANCH   2   3
HETATM    3  C   UNL     1     -10.974  15.244  66.874  1.00  0.00    -0.315 A  
HETATM    4  F   UNL     1      -8.754  18.762  67.864  1.00  0.00    -0.286 F  
HETATM    5  F   UNL     1     -10.208  19.309  69.382  1.00  0.00    -0.417 F  
HETATM    6  C   UNL     1     -11.697  14.733  67.960  1.00  0.00    -0.360 A  
HETATM    7  C   UNL     1     -11.826  15.459  69.143  1.00  0.00    -0.357 A  
HETATM    8  F   UNL     1     -10.682  19.582  67.277  1.00  0.00    -0.498 F  
HETATM    9  C   UNL     1     -12.397  14.786  70.371  1.00  0.00    -0.344 C  
HETATM   10  C   UNL     1     -11.307  16.761  69.200  1.00  0.00     0.079 A  
HETATM   11  C   UNL     1     -10.083  18.731  68.154  1.00  0.00    -0.379 C  
HETATM   12  C   UNL     1     -10.657  17.333  68.091  1.00  0.00    -0.386 A  
HETATM   13  F   UNL     1     -12.948  13.568  70.112  1.00  0.00    -0.196 F  
HETATM   14  F   UNL     1     -11.442  14.569  71.313  1.00  0.00    -0.331 F  
HETATM   15  C   UNL     1     -10.488  16.560  66.931  1.00  0.00    -0.282 A  
HETATM   16  F   UNL     1     -13.369  15.521  70.971  1.00  0.00    -0.479 F  
ENDBRANCH   2   3
BRANCH   2  17
HETATM   17  O   UNL     1     -10.299  12.974  66.340  1.00  0.00    -0.271 OA 
BRANCH  17  18
HETATM   18  C   UNL     1      -8.944  12.512  66.119  1.00  0.00     0.078 C  
HETATM   19  N   UNL     1      -8.286  12.380  68.553  1.00  0.00    -0.127 NA 
HETATM   20  C   UNL     1      -8.393  11.593  67.296  1.00  0.00    -0.158 C  
HETATM   21  O   UNL     1      -8.038  13.608  65.909  1.00  0.00     1.673 OA 
HETATM   22  C   UNL     1      -7.937  14.403  67.097  1.00  0.00    -0.119 C  
HETATM   23  C   UNL     1      -7.451  13.578  68.294  1.00  0.00    -0.122 C  
BRANCH  19  24
HETATM   24  C   UNL     1      -7.874  11.676  69.780  1.00  0.00     1.024 C  
BRANCH  24  25
HETATM   25  C   UNL     1      -7.036  10.432  69.547  1.00  0.00    -0.113 C  
HETATM   26  O   UNL     1      -7.596   6.607  70.909  1.00  0.00    -0.086 OA 
HETATM   27  O   UNL     1      -6.894   6.189  68.591  1.00  0.00    -0.065 OA 
HETATM   28  N   UNL     1      -6.296  10.267  68.479  1.00  0.00    -0.051 NA 
HETATM   29  O   UNL     1      -5.137   6.045  70.479  1.00  0.00    -0.012 OA 
HETATM   30  C   UNL     1      -5.815   8.980  68.572  1.00  0.00    -0.042 C  
HETATM   31  O   UNL     1      -5.280   8.350  67.669  1.00  0.00    -0.032 OA 
HETATM   32  P   UNL     1      -6.311   6.793  69.953  1.00  0.00    -0.041 P  
HETATM   33  N   UNL     1      -6.188   8.447  69.778  1.00  0.00    -0.032 N  
HETATM   34  N   UNL     1      -6.999   9.390  70.444  1.00  0.00    -0.086 NA 
ENDBRANCH  24  25
ENDBRANCH  19  24
BRANCH  20  35
HETATM   35  C   UNL     1      -9.214  10.307  67.366  1.00  0.00    -0.155 A  
HETATM   36  C   UNL     1      -9.553   7.996  66.655  1.00  0.00    -0.297 A  
HETATM   37  F   UNL     1     -11.618   6.946  67.102  1.00  0.00    -0.361 F  
HETATM   38  C   UNL     1      -8.749   9.137  66.728  1.00  0.00    -0.138 A  
HETATM   39  C   UNL     1     -11.301   9.155  67.859  1.00  0.00     0.626 A  
HETATM   40  C   UNL     1     -10.492  10.292  67.947  1.00  0.00    -0.253 A  
HETATM   41  C   UNL     1     -10.830   8.023  67.209  1.00  0.00    -0.089 A  
ENDBRANCH  20  35
ENDBRANCH  17  18
ENDBRANCH   2  17
TORSDOF 6
ENDMDL
MODEL      286
REMARK 921   NORMALIZED FREE ENERGY PREDICTED BY IDOCK:    1.63 KCAL/MOL
REMARK 922        TOTAL FREE ENERGY PREDICTED BY IDOCK:    1.30 KCAL/MOL
REMARK 923 INTER-LIGAND FREE ENERGY PREDICTED BY IDOCK:   -5.43 KCAL/MOL
REMARK 924 INTRA-LIGAND FREE ENERGY PREDICTED BY IDOCK:    6.73 KCAL/MOL
REMARK 927      BINDING AFFINITY PREDICTED BY RF-SCORE:    0.00 PKD
ROOT
HETATM    1  C   UNL     1      -8.956   9.015  69.403  1.00  0.00    -0.145 C  
HETATM    2  C   UNL     1     -10.087   8.982  68.383  1.00  0.00    -0.191 C  
ENDROOT
BRANCH   2   3
HETATM    3  C   UNL     1      -9.630   8.500  67.022  1.00  0.00    -0.246 A  
HETATM    4  F   UNL     1      -7.738   4.722  66.365  1.00  0.00    -0.087 F  
HETATM    5  F   UNL     1      -7.614   5.102  64.230  1.00  0.00    -0.060 F  
HETATM    6  C   UNL     1      -9.252   9.468  66.083  1.00  0.00    -0.226 A  
HETATM    7  C   UNL     1      -8.519   9.123  64.949  1.00  0.00    -0.191 A  
HETATM    8  F   UNL     1      -9.521   4.567  65.127  1.00  0.00    -0.146 F  
HETATM    9  C   UNL     1      -7.920  10.212  64.089  1.00  0.00    -0.154 C  
HETATM   10  C   UNL     1      -8.249   7.768  64.703  1.00  0.00    -0.080 A  
HETATM   11  C   UNL     1      -8.396   5.306  65.328  1.00  0.00    -0.139 C  
HETATM   12  C   UNL     1      -8.698   6.766  65.583  1.00  0.00    -0.086 A  
HETATM   13  F   UNL     1      -8.369  11.458  64.406  1.00  0.00     0.194 F  
HETATM   14  F   UNL     1      -6.568  10.262  64.212  1.00  0.00    -0.123 F  
HETATM   15  C   UNL     1      -9.384   7.145  66.748  1.00  0.00    -0.199 A  
HETATM   16  F   UNL     1      -8.178  10.042  62.767  1.00  0.00    -0.127 F  
ENDBRANCH   2   3
BRANCH   2  17
HETATM   17  O   UNL     1     -10.712  10.272  68.279  1.00  0.00    -0.205 OA 
BRANCH  17  18
HETATM   18  C   UNL     1     -10.198  11.083  67.195  1.00  0.00    -0.206 C  
HETATM   19  N   UNL     1     -10.544  13.318  68.320  1.00  0.00    -0.244 NA 
HETATM   20  C   UNL     1      -9.524  12.439  67.689  1.00  0.00    -0.190 C  
HETATM   21  O   UNL     1     -11.218  11.386  66.228  1.00  0.00    -0.270 OA 
HETATM   22  C   UNL     1     -12.232  12.208  66.818  1.00  0.00     0.397 C  
HETATM   23  C   UNL     1     -11.655  13.522  67.359  1.00  0.00    -0.356 C  
BRANCH  19  24
HETATM   24  C   UNL     1     -10.093  14.586  68.918  1.00  0.00    -0.224 C  
BRANCH  24  25
HETATM   25  C   UNL     1      -9.923  15.728  67.933  1.00  0.00    -0.227 C  
HETATM   26  O   UNL     1      -9.647  19.759  68.618  1.00  0.00    -0.358 OA 
HETATM   27  O   UNL     1      -7.928  19.452  66.888  1.00  0.00    -0.251 OA 
HETATM   28  N   UNL     1      -9.335  15.579  66.772  1.00  0.00    -0.230 NA 
HETATM   29  O   UNL     1     -10.280  20.263  66.191  1.00  0.00    -0.418 OA 
HETATM   30  C   UNL     1      -9.255  16.848  66.244  1.00  0.00    -0.267 C  
HETATM   31  O   UNL     1      -8.569  17.182  65.288  1.00  0.00     0.450 OA 
HETATM   32  P   UNL     1      -9.514  19.336  67.068  1.00  0.00    -0.359 P  
HETATM   33  N   UNL     1      -9.921  17.718  67.066  1.00  0.00    -0.309 N  
HETATM   34  N   UNL     1     -10.373  17.000  68.194  1.00  0.00    -0.328 NA 
ENDBRANCH  24  25
ENDBRANCH  19  24
BRANCH  20  35
HETATM   35  C   UNL     1      -8.289  12.118  68.527  1.00  0.00    -0.093 A  
HETATM   36  C   UNL     1      -6.865  10.457  69.611  1.00  0.00    -0.108 A  
HETATM   37  F   UNL     1      -5.254  11.171  71.180  1.00  0.00    -0.097 F  
HETATM   38  C   UNL     1      -7.902  10.776  68.729  1.00  0.00    -0.129 A  
HETATM   39  C   UNL     1      -6.567  12.806  70.105  1.00  0.00     0.324 A  
HETATM   40  C   UNL     1      -7.594  13.127  69.211  1.00  0.00     0.367 A  
HETATM   41  C   UNL     1      -6.218  11.478  70.303  1.00  0.00    -0.089 A  
ENDBRANCH  20  35
ENDBRANCH  17  18
ENDBRANCH   2  17
TORSDOF 6
ENDMDL
MODEL      287
REMARK 921   NORMALIZED FREE ENERGY PREDICTED BY IDOCK:    2.71 KCAL/MOL
REMARK 922        TOTAL FREE ENERGY PREDICTED BY IDOCK:    2.76 KCAL/MOL
REMARK 923 INTER-LIGAND FREE ENERGY PREDICTED BY IDOCK:   -3.03 KCAL/MOL
REMARK 924 INTRA-LIGAND FREE ENERGY PREDICTED BY IDOCK:    5.79 KCAL/MOL
REMARK 927      BINDING AFFINITY PREDICTED BY RF-SCORE:    0.00 PKD
ROOT
HETATM    1  C   UNL     1     -11.588  15.039  68.670  1.00  0.00    -0.347 C  
HETATM    2  C   UNL     1     -10.411  15.571  67.862  1.00  0.00    -0.266 C  
ENDROOT
BRANCH   2   3
HETATM    3  C   UNL     1      -9.297  16.107  68.737  1.00  0.00    -0.229 A  
HETATM    4  F   UNL     1      -7.491  19.942  68.178  1.00  0.00    -0.314 F  
HETATM    5  F   UNL     1      -6.196  19.635  69.896  1.00  0.00    -0.298 F  
HETATM    6  C   UNL     1      -8.430  15.178  69.327  1.00  0.00    -0.209 A  
HETATM    7  C   UNL     1      -7.206  15.575  69.861  1.00  0.00    -0.028 A  
HETATM    8  F   UNL     1      -8.300  20.101  70.192  1.00  0.00     0.234 F  
HETATM    9  C   UNL     1      -6.194  14.527  70.266  1.00  0.00    -0.176 C  
HETATM   10  C   UNL     1      -6.893  16.942  69.896  1.00  0.00     0.325 A  
HETATM   11  C   UNL     1      -7.446  19.379  69.416  1.00  0.00    -0.160 C  
HETATM   12  C   UNL     1      -7.788  17.906  69.394  1.00  0.00     0.301 A  
HETATM   13  F   UNL     1      -6.700  13.262  70.269  1.00  0.00     0.018 F  
HETATM   14  F   UNL     1      -5.134  14.501  69.417  1.00  0.00    -0.087 F  
HETATM   15  C   UNL     1      -8.988  17.475  68.807  1.00  0.00    -0.211 A  
HETATM   16  F   UNL     1      -5.687  14.735  71.508  1.00  0.00    -0.128 F  
ENDBRANCH   2   3
BRANCH   2  17
HETATM   17  O   UNL     1     -10.848  16.574  66.930  1.00  0.00    -0.225 OA 
BRANCH  17  18
HETATM   18  C   UNL     1     -10.159  16.526  65.656  1.00  0.00    -0.251 C  
HETATM   19  N   UNL     1      -8.569  14.660  66.260  1.00  0.00     0.127 NA 
HETATM   20  C   UNL     1      -9.616  15.076  65.289  1.00  0.00     0.043 C  
HETATM   21  O   UNL     1      -9.073  17.467  65.606  1.00  0.00    -0.459 OA 
HETATM   22  C   UNL     1      -8.061  17.107  66.554  1.00  0.00    -0.283 C  
HETATM   23  C   UNL     1      -7.512  15.699  66.294  1.00  0.00     1.021 C  
BRANCH  19  24
HETATM   24  C   UNL     1      -8.005  13.304  66.135  1.00  0.00     1.720 C  
BRANCH  24  25
HETATM   25  C   UNL     1      -8.320  12.377  67.295  1.00  0.00    -0.184 C  
HETATM   26  O   UNL     1     -11.852  10.566  68.316  1.00  0.00    -0.406 OA 
HETATM   27  O   UNL     1     -10.250   8.744  68.714  1.00  0.00    -0.197 OA 
HETATM   28  N   UNL     1      -7.416  11.612  67.854  1.00  0.00    -0.099 NA 
HETATM   29  O   UNL     1     -11.023  10.194  70.708  1.00  0.00    -0.320 OA 
HETATM   30  C   UNL     1      -8.110  10.836  68.755  1.00  0.00    -0.143 C  
HETATM   31  O   UNL     1      -7.684   9.832  69.311  1.00  0.00    -0.085 OA 
HETATM   32  P   UNL     1     -10.611  10.198  69.278  1.00  0.00    -0.261 P  
HETATM   33  N   UNL     1      -9.414  11.255  68.797  1.00  0.00    -0.172 N  
HETATM   34  N   UNL     1      -9.579  12.276  67.837  1.00  0.00    -0.197 NA 
ENDBRANCH  24  25
ENDBRANCH  19  24
BRANCH  20  35
HETATM   35  C   UNL     1     -10.794  14.122  65.106  1.00  0.00    -0.380 A  
HETATM   36  C   UNL     1     -11.615  11.879  64.597  1.00  0.00    -0.320 A  
HETATM   37  F   UNL     1     -13.905  11.574  64.117  1.00  0.00     0.191 F  
HETATM   38  C   UNL     1     -10.562  12.743  64.914  1.00  0.00    -0.336 A  
HETATM   39  C   UNL     1     -13.158  13.741  64.667  1.00  0.00     0.322 A  
HETATM   40  C   UNL     1     -12.108  14.603  64.998  1.00  0.00    -0.349 A  
HETATM   41  C   UNL     1     -12.903  12.392  64.462  1.00  0.00    -0.212 A  
ENDBRANCH  20  35
ENDBRANCH  17  18
ENDBRANCH   2  17
TORSDOF 6
ENDMDL
MODEL      288
REMARK 921   NORMALIZED FREE ENERGY PREDICTED BY IDOCK:    3.08 KCAL/MOL
REMARK 922        TOTAL FREE ENERGY PREDICTED BY IDOCK:    3.26 KCAL/MOL
REMARK 923 INTER-LIGAND FREE ENERGY PREDICTED BY IDOCK:   -5.23 KCAL/MOL
REMARK 924 INTRA-LIGAND FREE ENERGY PREDICTED BY IDOCK:    8.49 KCAL/MOL
REMARK 927      BINDING AFFINITY PREDICTED BY RF-SCORE:    0.00 PKD
ROOT
HETATM    1  C   UNL     1      -7.904  10.307  68.394  1.00  0.00    -0.102 C  
HETATM    2  C   UNL     1      -6.906   9.380  67.712  1.00  0.00    -0.079 C  
ENDROOT
BRANCH   2   3
HETATM    3  C   UNL     1      -7.144   9.262  66.221  1.00  0.00    -0.087 A  
HETATM    4  F   UNL     1     -10.740  10.543  64.294  1.00  0.00    -0.397 F  
HETATM    5  F   UNL     1      -9.959   9.968  62.350  1.00  0.00    -0.224 F  
HETATM    6  C   UNL     1      -6.506   8.217  65.541  1.00  0.00    -0.049 A  
HETATM    7  C   UNL     1      -6.915   7.832  64.267  1.00  0.00    -0.068 A  
HETATM    8  F   UNL     1      -9.232  11.772  63.321  1.00  0.00    -0.240 F  
HETATM    9  C   UNL     1      -6.376   6.554  63.664  1.00  0.00    -0.030 C  
HETATM   10  C   UNL     1      -7.915   8.575  63.621  1.00  0.00    -0.161 A  
HETATM   11  C   UNL     1      -9.597  10.483  63.559  1.00  0.00    -0.326 C  
HETATM   12  C   UNL     1      -8.509   9.689  64.245  1.00  0.00    -0.188 A  
HETATM   13  F   UNL     1      -5.341   6.020  64.372  1.00  0.00    -0.015 F  
HETATM   14  F   UNL     1      -7.327   5.586  63.608  1.00  0.00    -0.045 F  
HETATM   15  C   UNL     1      -8.120  10.020  65.553  1.00  0.00    -0.137 A  
HETATM   16  F   UNL     1      -5.921   6.719  62.396  1.00  0.00    -0.035 F  
ENDBRANCH   2   3
BRANCH   2  17
HETATM   17  O   UNL     1      -6.917   8.082  68.329  1.00  0.00    -0.069 OA 
BRANCH  17  18
HETATM   18  C   UNL     1      -6.902   8.124  69.777  1.00  0.00    -0.040 C  
HETATM   19  N   UNL     1      -9.233   9.054  70.061  1.00  0.00    -0.168 NA 
HETATM   20  C   UNL     1      -8.341   7.922  70.427  1.00  0.00    -0.121 C  
HETATM   21  O   UNL     1      -6.329   9.349  70.265  1.00  0.00    -0.047 OA 
HETATM   22  C   UNL     1      -7.154  10.463  69.900  1.00  0.00    -0.159 C  
HETATM   23  C   UNL     1      -8.576  10.323  70.455  1.00  0.00     0.707 C  
BRANCH  19  24
HETATM   24  C   UNL     1     -10.638   9.001  70.499  1.00  0.00    -0.227 C  
BRANCH  24  25
HETATM   25  C   UNL     1     -11.417  10.287  70.291  1.00  0.00    -0.317 C  
HETATM   26  O   UNL     1     -12.166  13.347  72.912  1.00  0.00     0.556 OA 
HETATM   27  O   UNL     1     -11.671  14.595  70.853  1.00  0.00    -0.298 OA 
HETATM   28  N   UNL     1     -11.542  10.857  69.119  1.00  0.00    -0.296 NA 
HETATM   29  O   UNL     1     -14.135  14.148  71.488  1.00  0.00    -0.352 OA 
HETATM   30  C   UNL     1     -12.185  12.049  69.366  1.00  0.00    -0.097 C  
HETATM   31  O   UNL     1     -12.282  12.984  68.582  1.00  0.00    -0.223 OA 
HETATM   32  P   UNL     1     -12.762  13.577  71.432  1.00  0.00    -0.210 P  
HETATM   33  N   UNL     1     -12.543  12.101  70.687  1.00  0.00    -0.225 N  
HETATM   34  N   UNL     1     -12.045  10.943  71.324  1.00  0.00    -0.276 NA 
ENDBRANCH  24  25
ENDBRANCH  19  24
BRANCH  20  35
HETATM   35  C   UNL     1      -8.853   6.519  70.106  1.00  0.00    -0.144 A  
HETATM   36  C   UNL     1      -9.070   4.171  70.739  1.00  0.00    -0.175 A  
HETATM   37  F   UNL     1      -9.766   2.602  69.119  1.00  0.00    -0.212 F  
HETATM   38  C   UNL     1      -8.745   5.491  71.066  1.00  0.00    -0.134 A  
HETATM   39  C   UNL     1      -9.628   4.870  68.491  1.00  0.00    -0.210 A  
HETATM   40  C   UNL     1      -9.318   6.192  68.822  1.00  0.00    -0.123 A  
HETATM   41  C   UNL     1      -9.495   3.872  69.447  1.00  0.00    -0.190 A  
ENDBRANCH  20  35
ENDBRANCH  17  18
ENDBRANCH   2  17
TORSDOF 6
ENDMDL
MODEL      289
REMARK 921   NORMALIZED FREE ENERGY PREDICTED BY IDOCK:    3.43 KCAL/MOL
REMARK 922        TOTAL FREE ENERGY PREDICTED BY IDOCK:    3.73 KCAL/MOL
REMARK 923 INTER-LIGAND FREE ENERGY PREDICTED BY IDOCK:   -3.78 KCAL/MOL
REMARK 924 INTRA-LIGAND FREE ENERGY PREDICTED BY IDOCK:    7.51 KCAL/MOL
REMARK 927      BINDING AFFINITY PREDICTED BY RF-SCORE:    0.00 PKD
ROOT
HETATM    1  C   UNL     1     -13.029  14.508  65.310  1.00  0.00     0.009 C  
HETATM    2  C   UNL     1     -12.848  13.134  65.943  1.00  0.00     0.169 C  
ENDROOT
BRANCH   2   3
HETATM    3  C   UNL     1     -12.587  13.208  67.433  1.00  0.00     0.592 A  
HETATM    4  F   UNL     1     -10.915  16.633  69.372  1.00  0.00    -0.284 F  
HETATM    5  F   UNL     1     -11.056  15.663  71.311  1.00  0.00    -0.350 F  
HETATM    6  C   UNL     1     -12.304  12.011  68.103  1.00  0.00     0.545 A  
HETATM    7  C   UNL     1     -11.735  12.016  69.375  1.00  0.00    -0.402 A  
HETATM    8  F   UNL     1     -12.847  16.443  70.355  1.00  0.00     0.140 F  
HETATM    9  C   UNL     1     -11.219  10.724  69.966  1.00  0.00    -0.291 C  
HETATM   10  C   UNL     1     -11.541  13.244  70.027  1.00  0.00    -0.212 A  
HETATM   11  C   UNL     1     -11.683  15.783  70.106  1.00  0.00    -0.356 C  
HETATM   12  C   UNL     1     -11.904  14.457  69.413  1.00  0.00    -0.369 A  
HETATM   13  F   UNL     1     -11.584   9.622  69.254  1.00  0.00    -0.131 F  
HETATM   14  F   UNL     1      -9.861  10.702  70.014  1.00  0.00    -0.162 F  
HETATM   15  C   UNL     1     -12.421  14.428  68.107  1.00  0.00     0.214 A  
HETATM   16  F   UNL     1     -11.651  10.514  71.236  1.00  0.00    -0.402 F  
ENDBRANCH   2   3
BRANCH   2  17
HETATM   17  O   UNL     1     -11.800  12.405  65.282  1.00  0.00    -0.379 OA 
BRANCH  17  18
HETATM   18  C   UNL     1     -10.964  13.228  64.432  1.00  0.00    -0.393 C  
HETATM   19  N   UNL     1      -9.236  13.791  66.186  1.00  0.00    -0.079 NA 
HETATM   20  C   UNL     1      -9.425  13.192  64.838  1.00  0.00     0.488 C  
HETATM   21  O   UNL     1     -11.416  14.593  64.407  1.00  0.00    -0.342 OA 
HETATM   22  C   UNL     1     -11.273  15.187  65.702  1.00  0.00    -0.296 C  
HETATM   23  C   UNL     1      -9.819  15.154  66.187  1.00  0.00    -0.300 C  
BRANCH  19  24
HETATM   24  C   UNL     1      -7.885  13.768  66.773  1.00  0.00     0.522 C  
BRANCH  24  25
HETATM   25  C   UNL     1      -7.428  15.089  67.365  1.00  0.00    -0.205 C  
HETATM   26  O   UNL     1      -9.193  18.784  67.193  1.00  0.00    -0.279 OA 
HETATM   27  O   UNL     1      -8.442  18.723  69.533  1.00  0.00     0.228 OA 
HETATM   28  N   UNL     1      -6.678  15.163  68.435  1.00  0.00    -0.104 NA 
HETATM   29  O   UNL     1      -6.976  19.922  67.776  1.00  0.00    -0.247 OA 
HETATM   30  C   UNL     1      -6.601  16.506  68.728  1.00  0.00    -0.161 C  
HETATM   31  O   UNL     1      -6.195  16.987  69.778  1.00  0.00    -0.231 OA 
HETATM   32  P   UNL     1      -7.831  18.736  68.054  1.00  0.00    -0.289 P  
HETATM   33  N   UNL     1      -7.217  17.218  67.733  1.00  0.00    -0.157 N  
HETATM   34  N   UNL     1      -7.775  16.302  66.816  1.00  0.00    -0.242 NA 
ENDBRANCH  24  25
ENDBRANCH  19  24
BRANCH  20  35
HETATM   35  C   UNL     1      -8.878  11.781  64.636  1.00  0.00     0.597 A  
HETATM   36  C   UNL     1      -8.362   9.928  63.131  1.00  0.00    -0.166 A  
HETATM   37  F   UNL     1      -7.872   7.808  64.043  1.00  0.00    -0.108 F  
HETATM   38  C   UNL     1      -8.719  11.265  63.332  1.00  0.00     0.127 A  
HETATM   39  C   UNL     1      -8.303   9.589  65.525  1.00  0.00    -0.137 A  
HETATM   40  C   UNL     1      -8.645  10.929  65.727  1.00  0.00    -0.176 A  
HETATM   41  C   UNL     1      -8.172   9.099  64.234  1.00  0.00    -0.161 A  
ENDBRANCH  20  35
ENDBRANCH  17  18
ENDBRANCH   2  17
TORSDOF 6
ENDMDL
MODEL      290
REMARK 921   NORMALIZED FREE ENERGY PREDICTED BY IDOCK:    3.43 KCAL/MOL
REMARK 922        TOTAL FREE ENERGY PREDICTED BY IDOCK:    3.74 KCAL/MOL
REMARK 923 INTER-LIGAND FREE ENERGY PREDICTED BY IDOCK:   -5.61 KCAL/MOL
REMARK 924 INTRA-LIGAND FREE ENERGY PREDICTED BY IDOCK:    9.34 KCAL/MOL
REMARK 927      BINDING AFFINITY PREDICTED BY RF-SCORE:    0.00 PKD
ROOT
HETATM    1  C   UNL     1     -13.033  13.857  67.063  1.00  0.00     1.169 C  
HETATM    2  C   UNL     1     -12.482  12.877  68.092  1.00  0.00     0.562 C  
ENDROOT
BRANCH   2   3
HETATM    3  C   UNL     1     -11.811  13.572  69.258  1.00  0.00    -0.392 A  
HETATM    4  F   UNL     1     -13.893  16.066  72.039  1.00  0.00    -0.473 F  
HETATM    5  F   UNL     1     -12.070  16.410  73.168  1.00  0.00    -0.525 F  
HETATM    6  C   UNL     1     -10.462  13.924  69.116  1.00  0.00    -0.074 A  
HETATM    7  C   UNL     1      -9.864  14.840  69.978  1.00  0.00     0.325 A  
HETATM    8  F   UNL     1     -13.099  14.501  73.326  1.00  0.00    -0.538 F  
HETATM    9  C   UNL     1      -8.489  15.381  69.653  1.00  0.00    -0.124 C  
HETATM   10  C   UNL     1     -10.604  15.336  71.062  1.00  0.00     0.089 A  
HETATM   11  C   UNL     1     -12.738  15.470  72.441  1.00  0.00    -0.397 C  
HETATM   12  C   UNL     1     -11.933  14.927  71.282  1.00  0.00    -0.393 A  
HETATM   13  F   UNL     1      -7.876  14.717  68.635  1.00  0.00    -0.113 F  
HETATM   14  F   UNL     1      -8.540  16.683  69.270  1.00  0.00    -0.239 F  
HETATM   15  C   UNL     1     -12.531  14.048  70.365  1.00  0.00    -0.418 A  
HETATM   16  F   UNL     1      -7.637  15.324  70.709  1.00  0.00     0.395 F  
ENDBRANCH   2   3
BRANCH   2  17
HETATM   17  O   UNL     1     -11.580  11.945  67.472  1.00  0.00    -0.387 OA 
BRANCH  17  18
HETATM   18  C   UNL     1     -11.504  12.077  66.031  1.00  0.00    -0.338 C  
HETATM   19  N   UNL     1      -9.852  13.987  66.005  1.00  0.00    -0.307 NA 
HETATM   20  C   UNL     1     -10.090  12.602  65.521  1.00  0.00    -0.265 C  
HETATM   21  O   UNL     1     -12.540  12.935  65.523  1.00  0.00    -0.559 OA 
HETATM   22  C   UNL     1     -12.353  14.274  65.998  1.00  0.00    -0.395 C  
HETATM   23  C   UNL     1     -10.990  14.840  65.583  1.00  0.00    -0.344 C  
BRANCH  19  24
HETATM   24  C   UNL     1      -8.553  14.614  65.706  1.00  0.00     1.367 C  
BRANCH  24  25
HETATM   25  C   UNL     1      -8.491  16.106  65.975  1.00  0.00    -0.120 C  
HETATM   26  O   UNL     1     -11.281  18.577  67.680  1.00  0.00    -0.126 OA 
HETATM   27  O   UNL     1      -9.213  19.408  68.717  1.00  0.00    -0.368 OA 
HETATM   28  N   UNL     1      -7.364  16.744  66.171  1.00  0.00    -0.155 NA 
HETATM   29  O   UNL     1     -10.160  20.632  66.648  1.00  0.00    -0.327 OA 
HETATM   30  C   UNL     1      -7.732  18.026  66.515  1.00  0.00    -0.249 C  
HETATM   31  O   UNL     1      -6.997  18.872  67.006  1.00  0.00    -0.201 OA 
HETATM   32  P   UNL     1      -9.902  19.308  67.275  1.00  0.00    -0.389 P  
HETATM   33  N   UNL     1      -9.090  18.151  66.390  1.00  0.00    -0.270 N  
HETATM   34  N   UNL     1      -9.618  16.892  66.033  1.00  0.00    -0.468 NA 
ENDBRANCH  24  25
ENDBRANCH  19  24
BRANCH  20  35
HETATM   35  C   UNL     1      -9.015  11.570  65.853  1.00  0.00    -0.152 A  
HETATM   36  C   UNL     1      -7.471   9.835  65.099  1.00  0.00    -0.122 A  
HETATM   37  F   UNL     1      -6.455   8.425  66.696  1.00  0.00    -0.052 F  
HETATM   38  C   UNL     1      -8.349  10.885  64.814  1.00  0.00     0.094 A  
HETATM   39  C   UNL     1      -7.890  10.131  67.463  1.00  0.00    -0.102 A  
HETATM   40  C   UNL     1      -8.756  11.191  67.180  1.00  0.00    -0.141 A  
HETATM   41  C   UNL     1      -7.263   9.458  66.424  1.00  0.00    -0.089 A  
ENDBRANCH  20  35
ENDBRANCH  17  18
ENDBRANCH   2  17
TORSDOF 6
ENDMDL
MODEL      291
REMARK 921   NORMALIZED FREE ENERGY PREDICTED BY IDOCK:    3.81 KCAL/MOL
REMARK 922        TOTAL FREE ENERGY PREDICTED BY IDOCK:    4.24 KCAL/MOL
REMARK 923 INTER-LIGAND FREE ENERGY PREDICTED BY IDOCK:   -6.23 KCAL/MOL
REMARK 924 INTRA-LIGAND FREE ENERGY PREDICTED BY IDOCK:   10.47 KCAL/MOL
REMARK 927      BINDING AFFINITY PREDICTED BY RF-SCORE:    0.00 PKD
ROOT
HETATM    1  C   UNL     1      -9.364   6.461  71.934  1.00  0.00    -0.154 C  
HETATM    2  C   UNL     1      -8.863   7.891  71.781  1.00  0.00    -0.126 C  
ENDROOT
BRANCH   2   3
HETATM    3  C   UNL     1      -9.816   8.761  70.987  1.00  0.00    -0.293 A  
HETATM    4  F   UNL     1      -8.574  12.165  68.717  1.00  0.00    -0.133 F  
HETATM    5  F   UNL     1     -10.610  12.524  68.051  1.00  0.00    -0.202 F  
HETATM    6  C   UNL     1     -11.136   8.865  71.445  1.00  0.00    -0.376 A  
HETATM    7  C   UNL     1     -11.977   9.878  70.990  1.00  0.00    -0.456 A  
HETATM    8  F   UNL     1      -9.460  10.891  67.192  1.00  0.00    -0.161 F  
HETATM    9  C   UNL     1     -13.303  10.111  71.678  1.00  0.00    -0.366 C  
HETATM   10  C   UNL     1     -11.519  10.739  69.982  1.00  0.00    -0.412 A  
HETATM   11  C   UNL     1      -9.725  11.534  68.361  1.00  0.00    -0.202 C  
HETATM   12  C   UNL     1     -10.228  10.598  69.437  1.00  0.00    -0.218 A  
HETATM   13  F   UNL     1     -13.636   9.123  72.555  1.00  0.00    -0.432 F  
HETATM   14  F   UNL     1     -13.298  11.262  72.399  1.00  0.00    -0.565 F  
HETATM   15  C   UNL     1      -9.379   9.607  69.955  1.00  0.00    -0.256 A  
HETATM   16  F   UNL     1     -14.340  10.208  70.807  1.00  0.00     0.228 F  
ENDBRANCH   2   3
BRANCH   2  17
HETATM   17  O   UNL     1      -7.553   7.909  71.190  1.00  0.00    -0.075 OA 
BRANCH  17  18
HETATM   18  C   UNL     1      -6.745   6.754  71.528  1.00  0.00    -0.061 C  
HETATM   19  N   UNL     1      -8.289   5.024  70.528  1.00  0.00    -0.099 NA 
HETATM   20  C   UNL     1      -6.901   5.555  70.493  1.00  0.00    -0.049 C  
HETATM   21  O   UNL     1      -7.032   6.277  72.853  1.00  0.00    -0.077 OA 
HETATM   22  C   UNL     1      -8.376   5.785  72.925  1.00  0.00    -0.119 C  
HETATM   23  C   UNL     1      -8.620   4.650  71.924  1.00  0.00    -0.122 C  
BRANCH  19  24
HETATM   24  C   UNL     1      -8.651   3.962  69.572  1.00  0.00    -0.069 C  
BRANCH  24  25
HETATM   25  C   UNL     1      -9.086   4.459  68.206  1.00  0.00    -0.127 C  
HETATM   26  O   UNL     1      -8.817   2.632  64.547  1.00  0.00    -0.103 OA 
HETATM   27  O   UNL     1     -11.061   3.627  64.418  1.00  0.00    -0.238 OA 
HETATM   28  N   UNL     1     -10.062   5.318  68.043  1.00  0.00    -0.162 NA 
HETATM   29  O   UNL     1      -9.069   4.881  63.353  1.00  0.00    -0.086 OA 
HETATM   30  C   UNL     1     -10.239   5.405  66.680  1.00  0.00    -0.243 C  
HETATM   31  O   UNL     1     -11.199   5.913  66.116  1.00  0.00     0.168 OA 
HETATM   32  P   UNL     1      -9.529   4.078  64.519  1.00  0.00    -0.174 P  
HETATM   33  N   UNL     1      -9.263   4.677  66.053  1.00  0.00    -0.136 N  
HETATM   34  N   UNL     1      -8.485   4.039  67.043  1.00  0.00    -0.100 NA 
ENDBRANCH  24  25
ENDBRANCH  19  24
BRANCH  20  35
HETATM   35  C   UNL     1      -6.371   5.988  69.128  1.00  0.00    -0.041 A  
HETATM   36  C   UNL     1      -6.511   7.484  67.203  1.00  0.00    -0.061 A  
HETATM   37  F   UNL     1      -5.336   6.936  65.232  1.00  0.00    -0.023 F  
HETATM   38  C   UNL     1      -6.874   7.154  68.512  1.00  0.00    -0.076 A  
HETATM   39  C   UNL     1      -5.127   5.503  67.091  1.00  0.00    -0.005 A  
HETATM   40  C   UNL     1      -5.478   5.180  68.406  1.00  0.00    -0.011 A  
HETATM   41  C   UNL     1      -5.651   6.644  66.500  1.00  0.00    -0.014 A  
ENDBRANCH  20  35
ENDBRANCH  17  18
ENDBRANCH   2  17
TORSDOF 6
ENDMDL
MODEL      292
REMARK 921   NORMALIZED FREE ENERGY PREDICTED BY IDOCK:    4.35 KCAL/MOL
REMARK 922        TOTAL FREE ENERGY PREDICTED BY IDOCK:    4.98 KCAL/MOL
REMARK 923 INTER-LIGAND FREE ENERGY PREDICTED BY IDOCK:    3.72 KCAL/MOL
REMARK 924 INTRA-LIGAND FREE ENERGY PREDICTED BY IDOCK:    1.26 KCAL/MOL
REMARK 927      BINDING AFFINITY PREDICTED BY RF-SCORE:    0.00 PKD
ROOT
HETATM    1  C   UNL     1      -7.970  15.219  68.511  1.00  0.00    -0.141 C  
HETATM    2  C   UNL     1      -9.178  15.705  67.720  1.00  0.00    -0.193 C  
ENDROOT
BRANCH   2   3
HETATM    3  C   UNL     1      -9.385  17.202  67.832  1.00  0.00    -0.249 A  
HETATM    4  F   UNL     1     -10.714  19.142  71.404  1.00  0.00     1.044 F  
HETATM    5  F   UNL     1     -10.591  21.089  70.448  1.00  0.00     0.309 F  
HETATM    6  C   UNL     1      -9.744  17.897  66.670  1.00  0.00    -0.319 A  
HETATM    7  C   UNL     1     -10.270  19.185  66.736  1.00  0.00    -0.482 A  
HETATM    8  F   UNL     1      -8.773  20.069  71.068  1.00  0.00     0.861 F  
HETATM    9  C   UNL     1     -10.871  19.809  65.497  1.00  0.00    -0.151 C  
HETATM   10  C   UNL     1     -10.344  19.825  67.983  1.00  0.00    -0.567 A  
HETATM   11  C   UNL     1      -9.994  19.865  70.502  1.00  0.00     1.171 C  
HETATM   12  C   UNL     1      -9.903  19.183  69.155  1.00  0.00    -0.359 A  
HETATM   13  F   UNL     1     -10.619  19.102  64.361  1.00  0.00     1.793 F  
HETATM   14  F   UNL     1     -12.224  19.899  65.586  1.00  0.00     1.598 F  
HETATM   15  C   UNL     1      -9.432  17.864  69.069  1.00  0.00    -0.099 A  
HETATM   16  F   UNL     1     -10.417  21.068  65.267  1.00  0.00     0.289 F  
ENDBRANCH   2   3
BRANCH   2  17
HETATM   17  O   UNL     1     -10.365  15.000  68.122  1.00  0.00    -0.235 OA 
BRANCH  17  18
HETATM   18  C   UNL     1     -10.277  14.418  69.446  1.00  0.00     0.021 C  
HETATM   19  N   UNL     1     -11.265  12.174  68.839  1.00  0.00    -0.251 NA 
HETATM   20  C   UNL     1     -10.072  12.840  69.427  1.00  0.00     0.723 C  
HETATM   21  O   UNL     1     -11.431  14.737  70.242  1.00  0.00    -0.256 OA 
HETATM   22  C   UNL     1     -12.603  14.132  69.682  1.00  0.00    -0.040 C  
HETATM   23  C   UNL     1     -12.468  12.608  69.589  1.00  0.00     0.179 C  
BRANCH  19  24
HETATM   24  C   UNL     1     -11.226  10.713  68.657  1.00  0.00    -0.278 C  
BRANCH  24  25
HETATM   25  C   UNL     1     -10.835  10.258  67.263  1.00  0.00    -0.250 C  
HETATM   26  O   UNL     1      -9.654  12.470  64.021  1.00  0.00    -0.021 OA 
HETATM   27  O   UNL     1      -8.097  10.573  63.895  1.00  0.00    -0.129 OA 
HETATM   28  N   UNL     1     -10.329   9.074  67.021  1.00  0.00    -0.269 NA 
HETATM   29  O   UNL     1     -10.230  10.544  62.438  1.00  0.00     0.171 OA 
HETATM   30  C   UNL     1      -9.985   9.097  65.688  1.00  0.00     0.034 C  
HETATM   31  O   UNL     1      -9.270   8.282  65.120  1.00  0.00     0.097 OA 
HETATM   32  P   UNL     1      -9.663  10.877  63.773  1.00  0.00    -0.364 P  
HETATM   33  N   UNL     1     -10.418  10.272  65.132  1.00  0.00    -0.130 N  
HETATM   34  N   UNL     1     -10.985  11.060  66.156  1.00  0.00    -0.154 NA 
ENDBRANCH  24  25
ENDBRANCH  19  24
BRANCH  20  35
HETATM   35  C   UNL     1      -8.724  12.509  68.790  1.00  0.00     0.158 A  
HETATM   36  C   UNL     1      -7.455  11.732  66.853  1.00  0.00    -0.106 A  
HETATM   37  F   UNL     1      -5.191  11.130  67.128  1.00  0.00    -0.037 F  
HETATM   38  C   UNL     1      -8.653  12.181  67.419  1.00  0.00    -0.175 A  
HETATM   39  C   UNL     1      -6.367  11.936  69.004  1.00  0.00    -0.080 A  
HETATM   40  C   UNL     1      -7.560  12.399  69.567  1.00  0.00     0.676 A  
HETATM   41  C   UNL     1      -6.327  11.599  67.659  1.00  0.00    -0.072 A  
ENDBRANCH  20  35
ENDBRANCH  17  18
ENDBRANCH   2  17
TORSDOF 6
ENDMDL
MODEL      293
REMARK 921   NORMALIZED FREE ENERGY PREDICTED BY IDOCK:    4.44 KCAL/MOL
REMARK 922        TOTAL FREE ENERGY PREDICTED BY IDOCK:    5.09 KCAL/MOL
REMARK 923 INTER-LIGAND FREE ENERGY PREDICTED BY IDOCK:   -4.15 KCAL/MOL
REMARK 924 INTRA-LIGAND FREE ENERGY PREDICTED BY IDOCK:    9.24 KCAL/MOL
REMARK 927      BINDING AFFINITY PREDICTED BY RF-SCORE:    0.00 PKD
ROOT
HETATM    1  C   UNL     1     -13.023  13.742  67.140  1.00  0.00     1.371 C  
HETATM    2  C   UNL     1     -12.180  13.068  68.214  1.00  0.00     0.009 C  
ENDROOT
BRANCH   2   3
HETATM    3  C   UNL     1     -11.385  14.059  69.039  1.00  0.00    -0.319 A  
HETATM    4  F   UNL     1      -7.143  13.855  69.534  1.00  0.00    -0.110 F  
HETATM    5  F   UNL     1      -7.150  15.654  70.751  1.00  0.00     0.421 F  
HETATM    6  C   UNL     1     -12.030  14.668  70.123  1.00  0.00    -0.372 A  
HETATM    7  C   UNL     1     -11.305  15.321  71.117  1.00  0.00    -0.402 A  
HETATM    8  F   UNL     1      -7.406  15.801  68.597  1.00  0.00    -0.119 F  
HETATM    9  C   UNL     1     -12.002  15.750  72.389  1.00  0.00    -0.498 C  
HETATM   10  C   UNL     1      -9.916  15.454  70.968  1.00  0.00     1.094 A  
HETATM   11  C   UNL     1      -7.755  15.060  69.684  1.00  0.00    -0.115 C  
HETATM   12  C   UNL     1      -9.254  14.932  69.841  1.00  0.00     0.303 A  
HETATM   13  F   UNL     1     -13.359  15.645  72.321  1.00  0.00    -0.421 F  
HETATM   14  F   UNL     1     -11.623  14.991  73.450  1.00  0.00    -0.460 F  
HETATM   15  C   UNL     1     -10.000  14.227  68.883  1.00  0.00    -0.160 A  
HETATM   16  F   UNL     1     -11.739  17.039  72.725  1.00  0.00    -0.560 F  
ENDBRANCH   2   3
BRANCH   2  17
HETATM   17  O   UNL     1     -11.310  12.083  67.632  1.00  0.00    -0.264 OA 
BRANCH  17  18
HETATM   18  C   UNL     1     -11.327  12.072  66.184  1.00  0.00    -0.351 C  
HETATM   19  N   UNL     1      -9.967  14.177  65.867  1.00  0.00    -0.310 NA 
HETATM   20  C   UNL     1     -10.030  12.728  65.535  1.00  0.00    -0.221 C  
HETATM   21  O   UNL     1     -12.499  12.723  65.663  1.00  0.00    -0.586 OA 
HETATM   22  C   UNL     1     -12.480  14.117  65.994  1.00  0.00    -0.425 C  
HETATM   23  C   UNL     1     -11.234  14.817  65.439  1.00  0.00    -0.347 C  
BRANCH  19  24
HETATM   24  C   UNL     1      -8.787  14.940  65.425  1.00  0.00     1.621 C  
BRANCH  24  25
HETATM   25  C   UNL     1      -8.702  16.352  65.975  1.00  0.00    -0.239 C  
HETATM   26  O   UNL     1     -10.490  17.985  69.281  1.00  0.00    -0.180 OA 
HETATM   27  O   UNL     1      -8.238  18.960  69.428  1.00  0.00     0.007 OA 
HETATM   28  N   UNL     1      -7.663  17.126  65.780  1.00  0.00    -0.335 NA 
HETATM   29  O   UNL     1     -10.139  20.347  68.362  1.00  0.00    -0.293 OA 
HETATM   30  C   UNL     1      -7.905  18.248  66.540  1.00  0.00    -0.252 C  
HETATM   31  O   UNL     1      -7.083  19.108  66.826  1.00  0.00    -0.204 OA 
HETATM   32  P   UNL     1      -9.525  18.996  68.477  1.00  0.00    -0.409 P  
HETATM   33  N   UNL     1      -9.162  18.164  67.078  1.00  0.00    -0.263 N  
HETATM   34  N   UNL     1      -9.712  16.915  66.719  1.00  0.00    -0.255 NA 
ENDBRANCH  24  25
ENDBRANCH  19  24
BRANCH  20  35
HETATM   35  C   UNL     1      -8.803  11.893  65.894  1.00  0.00     0.055 A  
HETATM   36  C   UNL     1      -7.594   9.776  65.754  1.00  0.00    -0.108 A  
HETATM   37  F   UNL     1      -5.769   9.396  67.201  1.00  0.00    -0.042 F  
HETATM   38  C   UNL     1      -8.629  10.613  65.326  1.00  0.00    -0.175 A  
HETATM   39  C   UNL     1      -6.874  11.475  67.319  1.00  0.00    -0.118 A  
HETATM   40  C   UNL     1      -7.899  12.318  66.881  1.00  0.00    -0.045 A  
HETATM   41  C   UNL     1      -6.735  10.212  66.760  1.00  0.00    -0.077 A  
ENDBRANCH  20  35
ENDBRANCH  17  18
ENDBRANCH   2  17
TORSDOF 6
ENDMDL
MODEL      294
REMARK 921   NORMALIZED FREE ENERGY PREDICTED BY IDOCK:    4.46 KCAL/MOL
REMARK 922        TOTAL FREE ENERGY PREDICTED BY IDOCK:    5.13 KCAL/MOL
REMARK 923 INTER-LIGAND FREE ENERGY PREDICTED BY IDOCK:   -1.31 KCAL/MOL
REMARK 924 INTRA-LIGAND FREE ENERGY PREDICTED BY IDOCK:    6.44 KCAL/MOL
REMARK 927      BINDING AFFINITY PREDICTED BY RF-SCORE:    0.00 PKD
ROOT
HETATM    1  C   UNL     1     -11.349  15.205  68.706  1.00  0.00    -0.313 C  
HETATM    2  C   UNL     1     -10.184  15.296  67.729  1.00  0.00    -0.237 C  
ENDROOT
BRANCH   2   3
HETATM    3  C   UNL     1      -9.388  16.575  67.888  1.00  0.00    -0.216 A  
HETATM    4  F   UNL     1      -6.238  17.058  70.739  1.00  0.00     0.137 F  
HETATM    5  F   UNL     1      -5.862  19.084  70.051  1.00  0.00    -0.235 F  
HETATM    6  C   UNL     1     -10.027  17.781  67.574  1.00  0.00    -0.324 A  
HETATM    7  C   UNL     1      -9.505  19.002  67.995  1.00  0.00    -0.370 A  
HETATM    8  F   UNL     1      -5.209  17.392  68.852  1.00  0.00    -0.139 F  
HETATM    9  C   UNL     1     -10.338  20.257  67.855  1.00  0.00    -0.254 C  
HETATM   10  C   UNL     1      -8.268  19.020  68.656  1.00  0.00    -0.399 A  
HETATM   11  C   UNL     1      -6.232  17.842  69.627  1.00  0.00    -0.209 C  
HETATM   12  C   UNL     1      -7.559  17.829  68.902  1.00  0.00    -0.223 A  
HETATM   13  F   UNL     1     -11.457  20.079  67.099  1.00  0.00    -0.281 F  
HETATM   14  F   UNL     1     -10.772  20.709  69.060  1.00  0.00    -0.343 F  
HETATM   15  C   UNL     1      -8.135  16.606  68.520  1.00  0.00    -0.226 A  
HETATM   16  F   UNL     1      -9.654  21.282  67.284  1.00  0.00    -0.572 F  
ENDBRANCH   2   3
BRANCH   2  17
HETATM   17  O   UNL     1     -10.645  15.153  66.375  1.00  0.00    -0.291 OA 
BRANCH  17  18
HETATM   18  C   UNL     1      -9.586  14.891  65.422  1.00  0.00    -0.050 C  
HETATM   19  N   UNL     1      -8.842  12.693  66.419  1.00  0.00    -0.063 NA 
HETATM   20  C   UNL     1      -9.334  13.339  65.173  1.00  0.00     0.617 C  
HETATM   21  O   UNL     1      -8.352  15.515  65.818  1.00  0.00     0.466 OA 
HETATM   22  C   UNL     1      -7.869  14.931  67.034  1.00  0.00    -0.094 C  
HETATM   23  C   UNL     1      -7.640  13.422  66.889  1.00  0.00     0.403 C  
BRANCH  19  24
HETATM   24  C   UNL     1      -8.633  11.235  66.409  1.00  0.00    -0.174 C  
BRANCH  24  25
HETATM   25  C   UNL     1      -9.346  10.485  67.519  1.00  0.00    -0.149 C  
HETATM   26  O   UNL     1      -8.054   9.546  71.294  1.00  0.00    -0.284 OA 
HETATM   27  O   UNL     1     -10.376  10.216  71.739  1.00  0.00     1.059 OA 
HETATM   28  N   UNL     1     -10.651  10.460  67.633  1.00  0.00    -0.236 NA 
HETATM   29  O   UNL     1      -9.819   7.705  71.491  1.00  0.00    -0.166 OA 
HETATM   30  C   UNL     1     -10.896   9.807  68.820  1.00  0.00    -0.188 C  
HETATM   31  O   UNL     1     -11.966   9.780  69.413  1.00  0.00     0.193 OA 
HETATM   32  P   UNL     1      -9.561   9.074  70.968  1.00  0.00    -0.271 P  
HETATM   33  N   UNL     1      -9.711   9.343  69.329  1.00  0.00    -0.166 N  
HETATM   34  N   UNL     1      -8.668   9.779  68.485  1.00  0.00    -0.119 NA 
ENDBRANCH  24  25
ENDBRANCH  19  24
BRANCH  20  35
HETATM   35  C   UNL     1     -10.571  12.720  64.527  1.00  0.00    -0.383 A  
HETATM   36  C   UNL     1     -11.775  10.728  63.790  1.00  0.00     1.693 A  
HETATM   37  F   UNL     1     -13.641  10.972  62.366  1.00  0.00     1.507 F  
HETATM   38  C   UNL     1     -10.728  11.317  64.504  1.00  0.00    -0.390 A  
HETATM   39  C   UNL     1     -12.541  12.919  63.110  1.00  0.00    -0.043 A  
HETATM   40  C   UNL     1     -11.503  13.511  63.837  1.00  0.00    -0.289 A  
HETATM   41  C   UNL     1     -12.663  11.537  63.086  1.00  0.00     0.306 A  
ENDBRANCH  20  35
ENDBRANCH  17  18
ENDBRANCH   2  17
TORSDOF 6
ENDMDL
MODEL      295
REMARK 921   NORMALIZED FREE ENERGY PREDICTED BY IDOCK:    4.55 KCAL/MOL
REMARK 922        TOTAL FREE ENERGY PREDICTED BY IDOCK:    5.25 KCAL/MOL
REMARK 923 INTER-LIGAND FREE ENERGY PREDICTED BY IDOCK:    4.04 KCAL/MOL
REMARK 924 INTRA-LIGAND FREE ENERGY PREDICTED BY IDOCK:    1.21 KCAL/MOL
REMARK 927      BINDING AFFINITY PREDICTED BY RF-SCORE:    0.00 PKD
ROOT
HETATM    1  C   UNL     1     -13.603  11.183  69.522  1.00  0.00     2.937 C  
HETATM    2  C   UNL     1     -12.142  11.454  69.857  1.00  0.00    -0.330 C  
ENDROOT
BRANCH   2   3
HETATM    3  C   UNL     1     -11.879  12.911  70.180  1.00  0.00    -0.319 A  
HETATM    4  F   UNL     1      -8.416  15.038  68.848  1.00  0.00    -0.153 F  
HETATM    5  F   UNL     1      -9.115  16.863  69.796  1.00  0.00     0.099 F  
HETATM    6  C   UNL     1     -12.398  13.415  71.379  1.00  0.00    -0.214 A  
HETATM    7  C   UNL     1     -11.939  14.617  71.913  1.00  0.00    -0.332 A  
HETATM    8  F   UNL     1     -10.035  16.180  67.948  1.00  0.00    -0.228 F  
HETATM    9  C   UNL     1     -12.338  15.009  73.318  1.00  0.00    -0.421 C  
HETATM   10  C   UNL     1     -11.016  15.376  71.179  1.00  0.00    -0.277 A  
HETATM   11  C   UNL     1      -9.540  15.747  69.140  1.00  0.00    -0.255 C  
HETATM   12  C   UNL     1     -10.547  14.938  69.927  1.00  0.00    -0.152 A  
HETATM   13  F   UNL     1     -13.317  14.220  73.841  1.00  0.00     0.161 F  
HETATM   14  F   UNL     1     -11.290  14.920  74.179  1.00  0.00    -0.166 F  
HETATM   15  C   UNL     1     -10.980  13.695  69.438  1.00  0.00    -0.117 A  
HETATM   16  F   UNL     1     -12.795  16.285  73.400  1.00  0.00    -0.505 F  
ENDBRANCH   2   3
BRANCH   2  17
HETATM   17  O   UNL     1     -11.286  11.011  68.791  1.00  0.00    -0.235 OA 
BRANCH  17  18
HETATM   18  C   UNL     1      -9.877  11.240  69.040  1.00  0.00    -0.082 C  
HETATM   19  N   UNL     1      -9.166   8.821  68.908  1.00  0.00    -0.141 NA 
HETATM   20  C   UNL     1      -8.932  10.172  68.333  1.00  0.00    -0.123 C  
HETATM   21  O   UNL     1      -9.587  11.273  70.448  1.00  0.00     1.854 OA 
HETATM   22  C   UNL     1      -9.832   9.989  71.035  1.00  0.00     0.708 C  
HETATM   23  C   UNL     1      -8.987   8.892  70.378  1.00  0.00    -0.182 C  
BRANCH  19  24
HETATM   24  C   UNL     1      -8.441   7.681  68.319  1.00  0.00    -0.125 C  
BRANCH  24  25
HETATM   25  C   UNL     1      -9.326   6.539  67.854  1.00  0.00    -0.111 C  
HETATM   26  O   UNL     1     -10.130   5.230  64.054  1.00  0.00     0.932 OA 
HETATM   27  O   UNL     1      -9.865   3.097  65.246  1.00  0.00    -0.057 OA 
HETATM   28  N   UNL     1      -9.570   5.485  68.593  1.00  0.00    -0.128 NA 
HETATM   29  O   UNL     1     -12.242   4.034  64.862  1.00  0.00     2.171 OA 
HETATM   30  C   UNL     1     -10.283   4.633  67.780  1.00  0.00     0.038 C  
HETATM   31  O   UNL     1     -10.501   3.450  68.002  1.00  0.00     1.237 OA 
HETATM   32  P   UNL     1     -10.837   4.369  65.219  1.00  0.00     0.451 P  
HETATM   33  N   UNL     1     -10.557   5.267  66.596  1.00  0.00    -0.296 N  
HETATM   34  N   UNL     1      -9.933   6.532  66.620  1.00  0.00    -0.166 NA 
ENDBRANCH  24  25
ENDBRANCH  19  24
BRANCH  20  35
HETATM   35  C   UNL     1      -9.063  10.300  66.817  1.00  0.00    -0.161 A  
HETATM   36  C   UNL     1      -8.139   9.900  64.593  1.00  0.00    -0.152 A  
HETATM   37  F   UNL     1      -9.080  11.016  62.739  1.00  0.00    -0.229 F  
HETATM   38  C   UNL     1      -8.122   9.673  65.972  1.00  0.00    -0.112 A  
HETATM   39  C   UNL     1     -10.037  11.375  64.862  1.00  0.00    -0.323 A  
HETATM   40  C   UNL     1     -10.030  11.137  66.240  1.00  0.00    -0.261 A  
HETATM   41  C   UNL     1      -9.089  10.764  64.054  1.00  0.00    -0.197 A  
ENDBRANCH  20  35
ENDBRANCH  17  18
ENDBRANCH   2  17
TORSDOF 6
ENDMDL
MODEL      296
REMARK 921   NORMALIZED FREE ENERGY PREDICTED BY IDOCK:    4.59 KCAL/MOL
REMARK 922        TOTAL FREE ENERGY PREDICTED BY IDOCK:    5.30 KCAL/MOL
REMARK 923 INTER-LIGAND FREE ENERGY PREDICTED BY IDOCK:   -7.60 KCAL/MOL
REMARK 924 INTRA-LIGAND FREE ENERGY PREDICTED BY IDOCK:   12.90 KCAL/MOL
REMARK 927      BINDING AFFINITY PREDICTED BY RF-SCORE:    0.00 PKD
ROOT
HETATM    1  C   UNL     1      -8.979   8.853  70.918  1.00  0.00    -0.273 C  
HETATM    2  C   UNL     1      -7.892   7.859  70.530  1.00  0.00    -0.095 C  
ENDROOT
BRANCH   2   3
HETATM    3  C   UNL     1      -7.614   7.850  69.041  1.00  0.00    -0.099 A  
HETATM    4  F   UNL     1     -10.289   9.478  66.129  1.00  0.00    -0.338 F  
HETATM    5  F   UNL     1      -8.918   8.976  64.521  1.00  0.00    -0.224 F  
HETATM    6  C   UNL     1      -6.826   6.810  68.534  1.00  0.00    -0.074 A  
HETATM    7  C   UNL     1      -6.793   6.532  67.169  1.00  0.00    -0.066 A  
HETATM    8  F   UNL     1      -8.492  10.665  65.821  1.00  0.00    -0.154 F  
HETATM    9  C   UNL     1      -6.132   5.262  66.682  1.00  0.00    -0.030 C  
HETATM   10  C   UNL     1      -7.484   7.377  66.288  1.00  0.00    -0.083 A  
HETATM   11  C   UNL     1      -8.967   9.391  65.818  1.00  0.00    -0.186 C  
HETATM   12  C   UNL     1      -8.209   8.486  66.764  1.00  0.00    -0.105 A  
HETATM   13  F   UNL     1      -5.422   4.619  67.650  1.00  0.00    -0.010 F  
HETATM   14  F   UNL     1      -7.046   4.362  66.232  1.00  0.00    -0.066 F  
HETATM   15  C   UNL     1      -8.275   8.709  68.148  1.00  0.00    -0.115 A  
HETATM   16  F   UNL     1      -5.268   5.476  65.657  1.00  0.00    -0.008 F  
ENDBRANCH   2   3
BRANCH   2  17
HETATM   17  O   UNL     1      -8.226   6.538  70.990  1.00  0.00    -0.118 OA 
BRANCH  17  18
HETATM   18  C   UNL     1      -9.591   6.411  71.458  1.00  0.00    -0.158 C  
HETATM   19  N   UNL     1     -10.500   8.429  70.242  1.00  0.00    -0.213 NA 
HETATM   20  C   UNL     1     -10.665   6.962  70.422  1.00  0.00    -0.246 C  
HETATM   21  O   UNL     1      -9.778   7.063  72.727  1.00  0.00    -0.148 OA 
HETATM   22  C   UNL     1      -9.595   8.477  72.590  1.00  0.00    -0.223 C  
HETATM   23  C   UNL     1     -10.569   9.081  71.572  1.00  0.00    -0.345 C  
BRANCH  19  24
HETATM   24  C   UNL     1     -11.352   9.108  69.251  1.00  0.00     0.261 C  
BRANCH  24  25
HETATM   25  C   UNL     1     -11.289  10.624  69.291  1.00  0.00    -0.282 C  
HETATM   26  O   UNL     1     -10.085  13.271  66.402  1.00  0.00    -0.276 OA 
HETATM   27  O   UNL     1     -12.063  14.417  67.304  1.00  0.00    -0.406 OA 
HETATM   28  N   UNL     1     -12.072  11.345  70.053  1.00  0.00    -0.332 NA 
HETATM   29  O   UNL     1      -9.722  15.095  68.159  1.00  0.00    -0.212 OA 
HETATM   30  C   UNL     1     -11.807  12.651  69.706  1.00  0.00    -0.309 C  
HETATM   31  O   UNL     1     -12.487  13.623  70.008  1.00  0.00    -0.293 OA 
HETATM   32  P   UNL     1     -10.600  13.960  67.765  1.00  0.00    -0.252 P  
HETATM   33  N   UNL     1     -10.764  12.677  68.818  1.00  0.00    -0.230 N  
HETATM   34  N   UNL     1     -10.402  11.344  68.525  1.00  0.00    -0.199 NA 
ENDBRANCH  24  25
ENDBRANCH  19  24
BRANCH  20  35
HETATM   35  C   UNL     1     -10.632   6.112  69.153  1.00  0.00    -0.345 A  
HETATM   36  C   UNL     1      -9.848   4.114  67.989  1.00  0.00    -0.088 A  
HETATM   37  F   UNL     1     -10.076   3.984  65.644  1.00  0.00    -0.186 F  
HETATM   38  C   UNL     1     -10.020   4.841  69.172  1.00  0.00    -0.233 A  
HETATM   39  C   UNL     1     -10.901   5.900  66.743  1.00  0.00    -0.347 A  
HETATM   40  C   UNL     1     -11.087   6.620  67.926  1.00  0.00    -0.310 A  
HETATM   41  C   UNL     1     -10.278   4.660  66.783  1.00  0.00    -0.185 A  
ENDBRANCH  20  35
ENDBRANCH  17  18
ENDBRANCH   2  17
TORSDOF 6
ENDMDL
MODEL      297
REMARK 921   NORMALIZED FREE ENERGY PREDICTED BY IDOCK:    4.83 KCAL/MOL
REMARK 922        TOTAL FREE ENERGY PREDICTED BY IDOCK:    5.62 KCAL/MOL
REMARK 923 INTER-LIGAND FREE ENERGY PREDICTED BY IDOCK:   -6.87 KCAL/MOL
REMARK 924 INTRA-LIGAND FREE ENERGY PREDICTED BY IDOCK:   12.48 KCAL/MOL
REMARK 927      BINDING AFFINITY PREDICTED BY RF-SCORE:    0.00 PKD
ROOT
HETATM    1  C   UNL     1      -8.940  14.098  65.205  1.00  0.00     1.659 C  
HETATM    2  C   UNL     1      -9.431  15.451  65.703  1.00  0.00    -0.220 C  
ENDROOT
BRANCH   2   3
HETATM    3  C   UNL     1      -8.504  16.066  66.731  1.00  0.00    -0.295 A  
HETATM    4  F   UNL     1      -6.940  13.925  70.085  1.00  0.00    -0.009 F  
HETATM    5  F   UNL     1      -5.815  15.666  70.733  1.00  0.00    -0.137 F  
HETATM    6  C   UNL     1      -8.620  17.442  66.970  1.00  0.00    -0.250 A  
HETATM    7  C   UNL     1      -8.059  18.024  68.104  1.00  0.00    -0.276 A  
HETATM    8  F   UNL     1      -5.131  14.507  69.025  1.00  0.00    -0.081 F  
HETATM    9  C   UNL     1      -8.407  19.453  68.458  1.00  0.00    -0.363 C  
HETATM   10  C   UNL     1      -7.283  17.230  68.962  1.00  0.00    -0.227 A  
HETATM   11  C   UNL     1      -6.248  15.002  69.624  1.00  0.00    -0.134 C  
HETATM   12  C   UNL     1      -7.073  15.864  68.695  1.00  0.00    -0.133 A  
HETATM   13  F   UNL     1      -9.078  20.105  67.469  1.00  0.00    -0.381 F  
HETATM   14  F   UNL     1      -9.207  19.517  69.555  1.00  0.00    -0.307 F  
HETATM   15  C   UNL     1      -7.697  15.288  67.577  1.00  0.00    -0.200 A  
HETATM   16  F   UNL     1      -7.314  20.209  68.735  1.00  0.00    -0.325 F  
ENDBRANCH   2   3
BRANCH   2  17
HETATM   17  O   UNL     1     -10.766  15.344  66.228  1.00  0.00    -0.305 OA 
BRANCH  17  18
HETATM   18  C   UNL     1     -11.370  14.044  66.023  1.00  0.00    -0.328 C  
HETATM   19  N   UNL     1      -9.592  12.709  67.220  1.00  0.00    -0.198 NA 
HETATM   20  C   UNL     1     -11.048  13.009  67.189  1.00  0.00    -0.273 C  
HETATM   21  O   UNL     1     -10.983  13.472  64.761  1.00  0.00    -0.334 OA 
HETATM   22  C   UNL     1      -9.576  13.199  64.751  1.00  0.00     0.329 C  
HETATM   23  C   UNL     1      -9.175  12.239  65.877  1.00  0.00    -0.027 C  
BRANCH  19  24
HETATM   24  C   UNL     1      -9.087  11.834  68.292  1.00  0.00    -0.187 C  
BRANCH  24  25
HETATM   25  C   UNL     1      -9.326  10.352  68.067  1.00  0.00    -0.140 C  
HETATM   26  O   UNL     1      -6.737   7.447  66.781  1.00  0.00    -0.060 OA 
HETATM   27  O   UNL     1      -7.937   6.258  68.566  1.00  0.00    -0.103 OA 
HETATM   28  N   UNL     1     -10.238   9.675  68.720  1.00  0.00    -0.189 NA 
HETATM   29  O   UNL     1      -8.690   5.934  66.116  1.00  0.00    -0.131 OA 
HETATM   30  C   UNL     1     -10.051   8.364  68.343  1.00  0.00    -0.198 C  
HETATM   31  O   UNL     1     -10.534   7.385  68.896  1.00  0.00    -0.204 OA 
HETATM   32  P   UNL     1      -8.217   6.912  67.133  1.00  0.00    -0.119 P  
HETATM   33  N   UNL     1      -9.095   8.311  67.362  1.00  0.00    -0.139 N  
HETATM   34  N   UNL     1      -8.598   9.617  67.161  1.00  0.00    -0.131 NA 
ENDBRANCH  24  25
ENDBRANCH  19  24
BRANCH  20  35
HETATM   35  C   UNL     1     -11.670  13.503  68.493  1.00  0.00    -0.392 A  
HETATM   36  C   UNL     1     -12.117  15.339  70.040  1.00  0.00    -0.386 A  
HETATM   37  F   UNL     1     -12.891  14.849  72.214  1.00  0.00    -0.327 F  
HETATM   38  C   UNL     1     -11.687  14.882  68.790  1.00  0.00    -0.353 A  
HETATM   39  C   UNL     1     -12.531  13.057  70.727  1.00  0.00    -0.384 A  
HETATM   40  C   UNL     1     -12.117  12.600  69.471  1.00  0.00    -0.253 A  
HETATM   41  C   UNL     1     -12.520  14.416  71.002  1.00  0.00    -0.355 A  
ENDBRANCH  20  35
ENDBRANCH  17  18
ENDBRANCH   2  17
TORSDOF 6
ENDMDL
MODEL      298
REMARK 921   NORMALIZED FREE ENERGY PREDICTED BY IDOCK:    5.16 KCAL/MOL
REMARK 922        TOTAL FREE ENERGY PREDICTED BY IDOCK:    6.07 KCAL/MOL
REMARK 923 INTER-LIGAND FREE ENERGY PREDICTED BY IDOCK:   -6.66 KCAL/MOL
REMARK 924 INTRA-LIGAND FREE ENERGY PREDICTED BY IDOCK:   12.73 KCAL/MOL
REMARK 927      BINDING AFFINITY PREDICTED BY RF-SCORE:    0.00 PKD
ROOT
HETATM    1  C   UNL     1      -7.484   9.527  68.990  1.00  0.00    -0.074 C  
HETATM    2  C   UNL     1      -6.560   8.348  68.717  1.00  0.00    -0.054 C  
ENDROOT
BRANCH   2   3
HETATM    3  C   UNL     1      -6.773   7.745  67.344  1.00  0.00    -0.068 A  
HETATM    4  F   UNL     1      -5.553   3.785  66.288  1.00  0.00    -0.015 F  
HETATM    5  F   UNL     1      -6.360   4.020  64.285  1.00  0.00    -0.024 F  
HETATM    6  C   UNL     1      -6.798   8.617  66.248  1.00  0.00    -0.070 A  
HETATM    7  C   UNL     1      -6.656   8.140  64.947  1.00  0.00    -0.055 A  
HETATM    8  F   UNL     1      -7.703   3.707  65.966  1.00  0.00    -0.083 F  
HETATM    9  C   UNL     1      -6.442   9.118  63.814  1.00  0.00    -0.089 C  
HETATM   10  C   UNL     1      -6.589   6.755  64.735  1.00  0.00    -0.042 A  
HETATM   11  C   UNL     1      -6.570   4.358  65.589  1.00  0.00    -0.044 C  
HETATM   12  C   UNL     1      -6.656   5.851  65.812  1.00  0.00    -0.047 A  
HETATM   13  F   UNL     1      -6.643  10.416  64.177  1.00  0.00    -0.132 F  
HETATM   14  F   UNL     1      -5.172   9.060  63.333  1.00  0.00    -0.062 F  
HETATM   15  C   UNL     1      -6.740   6.359  67.118  1.00  0.00    -0.060 A  
HETATM   16  F   UNL     1      -7.263   8.890  62.757  1.00  0.00    -0.097 F  
ENDBRANCH   2   3
BRANCH   2  17
HETATM   17  O   UNL     1      -6.703   7.345  69.737  1.00  0.00    -0.042 OA 
BRANCH  17  18
HETATM   18  C   UNL     1      -7.779   7.611  70.670  1.00  0.00    -0.088 C  
HETATM   19  N   UNL     1      -9.348   8.675  69.002  1.00  0.00    -0.146 NA 
HETATM   20  C   UNL     1      -9.220   7.576  69.995  1.00  0.00    -0.151 C  
HETATM   21  O   UNL     1      -7.599   8.871  71.339  1.00  0.00    -0.159 OA 
HETATM   22  C   UNL     1      -7.688   9.949  70.400  1.00  0.00    -0.070 C  
HETATM   23  C   UNL     1      -9.038   9.960  69.672  1.00  0.00    -0.227 C  
BRANCH  19  24
HETATM   24  C   UNL     1     -10.586   8.752  68.207  1.00  0.00    -0.142 C  
BRANCH  24  25
HETATM   25  C   UNL     1     -10.794  10.069  67.482  1.00  0.00    -0.265 C  
HETATM   26  O   UNL     1     -10.512  10.928  63.484  1.00  0.00    -0.333 OA 
HETATM   27  O   UNL     1     -12.518  12.206  64.105  1.00  0.00    -0.431 OA 
HETATM   28  N   UNL     1     -11.579  11.013  67.938  1.00  0.00    -0.545 NA 
HETATM   29  O   UNL     1     -10.241  13.421  63.991  1.00  0.00    -0.336 OA 
HETATM   30  C   UNL     1     -11.607  11.967  66.946  1.00  0.00    -0.318 C  
HETATM   31  O   UNL     1     -12.402  12.894  66.869  1.00  0.00    -0.384 OA 
HETATM   32  P   UNL     1     -10.946  12.178  64.406  1.00  0.00    -0.386 P  
HETATM   33  N   UNL     1     -10.723  11.616  65.960  1.00  0.00    -0.272 N  
HETATM   34  N   UNL     1     -10.170  10.361  66.291  1.00  0.00    -0.230 NA 
ENDBRANCH  24  25
ENDBRANCH  19  24
BRANCH  20  35
HETATM   35  C   UNL     1      -9.511   6.164  69.490  1.00  0.00    -0.156 A  
HETATM   36  C   UNL     1      -9.398   3.750  69.837  1.00  0.00    -0.248 A  
HETATM   37  F   UNL     1      -9.813   2.306  68.017  1.00  0.00    -0.240 F  
HETATM   38  C   UNL     1      -9.278   5.053  70.329  1.00  0.00    -0.190 A  
HETATM   39  C   UNL     1      -9.994   4.629  67.663  1.00  0.00    -0.161 A  
HETATM   40  C   UNL     1      -9.890   5.932  68.159  1.00  0.00    -0.155 A  
HETATM   41  C   UNL     1      -9.740   3.552  68.501  1.00  0.00     0.030 A  
ENDBRANCH  20  35
ENDBRANCH  17  18
ENDBRANCH   2  17
TORSDOF 6
ENDMDL
MODEL      299
REMARK 921   NORMALIZED FREE ENERGY PREDICTED BY IDOCK:    5.29 KCAL/MOL
REMARK 922        TOTAL FREE ENERGY PREDICTED BY IDOCK:    6.25 KCAL/MOL
REMARK 923 INTER-LIGAND FREE ENERGY PREDICTED BY IDOCK:   -6.62 KCAL/MOL
REMARK 924 INTRA-LIGAND FREE ENERGY PREDICTED BY IDOCK:   12.87 KCAL/MOL
REMARK 927      BINDING AFFINITY PREDICTED BY RF-SCORE:    0.00 PKD
ROOT
HETATM    1  C   UNL     1      -8.867   9.340  70.549  1.00  0.00    -0.285 C  
HETATM    2  C   UNL     1      -7.697   8.542  69.988  1.00  0.00    -0.086 C  
ENDROOT
BRANCH   2   3
HETATM    3  C   UNL     1      -7.638   8.579  68.475  1.00  0.00    -0.095 A  
HETATM    4  F   UNL     1     -10.780  10.132  66.026  1.00  0.00    -0.236 F  
HETATM    5  F   UNL     1      -9.635   9.735  64.223  1.00  0.00    -0.332 F  
HETATM    6  C   UNL     1      -6.883   7.591  67.830  1.00  0.00    -0.071 A  
HETATM    7  C   UNL     1      -7.036   7.345  66.467  1.00  0.00    -0.074 A  
HETATM    8  F   UNL     1      -9.104  11.416  65.497  1.00  0.00    -0.208 F  
HETATM    9  C   UNL     1      -6.394   6.121  65.854  1.00  0.00    -0.038 C  
HETATM   10  C   UNL     1      -7.886   8.173  65.719  1.00  0.00    -0.096 A  
HETATM   11  C   UNL     1      -9.515  10.119  65.525  1.00  0.00    -0.230 C  
HETATM   12  C   UNL     1      -8.586   9.233  66.326  1.00  0.00    -0.139 A  
HETATM   13  F   UNL     1      -5.522   5.494  66.691  1.00  0.00    -0.010 F  
HETATM   14  F   UNL     1      -7.320   5.186  65.515  1.00  0.00    -0.067 F  
HETATM   15  C   UNL     1      -8.460   9.423  67.711  1.00  0.00    -0.116 A  
HETATM   16  F   UNL     1      -5.699   6.401  64.722  1.00  0.00    -0.020 F  
ENDBRANCH   2   3
BRANCH   2  17
HETATM   17  O   UNL     1      -7.737   7.184  70.459  1.00  0.00    -0.091 OA 
BRANCH  17  18
HETATM   18  C   UNL     1      -9.005   6.809  71.051  1.00  0.00    -0.145 C  
HETATM   19  N   UNL     1     -10.353   8.704  70.065  1.00  0.00    -0.201 NA 
HETATM   20  C   UNL     1     -10.260   7.223  70.164  1.00  0.00    -0.203 C  
HETATM   21  O   UNL     1      -9.156   7.358  72.371  1.00  0.00    -0.128 OA 
HETATM   22  C   UNL     1      -9.218   8.788  72.310  1.00  0.00    -0.125 C  
HETATM   23  C   UNL     1     -10.381   9.270  71.435  1.00  0.00    -0.321 C  
BRANCH  19  24
HETATM   24  C   UNL     1     -11.405   9.278  69.210  1.00  0.00     0.208 C  
BRANCH  24  25
HETATM   25  C   UNL     1     -11.631  10.768  69.395  1.00  0.00    -0.308 C  
HETATM   26  O   UNL     1     -13.519  12.772  72.431  1.00  0.00    -0.557 OA 
HETATM   27  O   UNL     1     -11.573  14.221  72.042  1.00  0.00     0.211 OA 
HETATM   28  N   UNL     1     -10.833  11.674  68.887  1.00  0.00    -0.215 NA 
HETATM   29  O   UNL     1     -13.831  14.829  70.943  1.00  0.00    -0.282 OA 
HETATM   30  C   UNL     1     -11.288  12.874  69.386  1.00  0.00    -0.201 C  
HETATM   31  O   UNL     1     -10.685  13.937  69.349  1.00  0.00    -0.153 OA 
HETATM   32  P   UNL     1     -12.896  13.725  71.290  1.00  0.00    -0.301 P  
HETATM   33  N   UNL     1     -12.443  12.658  70.091  1.00  0.00    -0.102 N  
HETATM   34  N   UNL     1     -12.692  11.269  70.113  1.00  0.00    -0.111 NA 
ENDBRANCH  24  25
ENDBRANCH  19  24
BRANCH  20  35
HETATM   35  C   UNL     1     -10.228   6.453  68.846  1.00  0.00    -0.215 A  
HETATM   36  C   UNL     1     -11.125   6.101  66.602  1.00  0.00    -0.124 A  
HETATM   37  F   UNL     1     -10.555   4.132  65.431  1.00  0.00    -0.232 F  
HETATM   38  C   UNL     1     -11.028   6.875  67.762  1.00  0.00    -0.280 A  
HETATM   39  C   UNL     1      -9.621   4.471  67.569  1.00  0.00    -0.211 A  
HETATM   40  C   UNL     1      -9.512   5.252  68.723  1.00  0.00    -0.171 A  
HETATM   41  C   UNL     1     -10.430   4.896  66.524  1.00  0.00    -0.252 A  
ENDBRANCH  20  35
ENDBRANCH  17  18
ENDBRANCH   2  17
TORSDOF 6
ENDMDL
MODEL      300
REMARK 921   NORMALIZED FREE ENERGY PREDICTED BY IDOCK:    5.34 KCAL/MOL
REMARK 922        TOTAL FREE ENERGY PREDICTED BY IDOCK:    6.32 KCAL/MOL
REMARK 923 INTER-LIGAND FREE ENERGY PREDICTED BY IDOCK:   -6.24 KCAL/MOL
REMARK 924 INTRA-LIGAND FREE ENERGY PREDICTED BY IDOCK:   12.56 KCAL/MOL
REMARK 927      BINDING AFFINITY PREDICTED BY RF-SCORE:    0.00 PKD
ROOT
HETATM    1  C   UNL     1      -7.428   9.692  69.092  1.00  0.00    -0.079 C  
HETATM    2  C   UNL     1      -6.576   8.946  68.074  1.00  0.00    -0.061 C  
ENDROOT
BRANCH   2   3
HETATM    3  C   UNL     1      -7.108   9.074  66.661  1.00  0.00    -0.081 A  
HETATM    4  F   UNL     1     -10.891  10.826  65.711  1.00  0.00    -0.288 F  
HETATM    5  F   UNL     1     -10.552  10.521  63.588  1.00  0.00    -0.313 F  
HETATM    6  C   UNL     1      -6.702   8.115  65.725  1.00  0.00    -0.055 A  
HETATM    7  C   UNL     1      -7.381   7.955  64.519  1.00  0.00    -0.086 A  
HETATM    8  F   UNL     1      -9.503  12.111  64.635  1.00  0.00    -0.142 F  
HETATM    9  C   UNL     1      -7.076   6.760  63.644  1.00  0.00    -0.060 C  
HETATM   10  C   UNL     1      -8.422   8.842  64.204  1.00  0.00    -0.123 A  
HETATM   11  C   UNL     1      -9.921  10.822  64.757  1.00  0.00    -0.320 C  
HETATM   12  C   UNL     1      -8.789   9.874  65.087  1.00  0.00    -0.209 A  
HETATM   13  F   UNL     1      -5.972   6.069  64.042  1.00  0.00    -0.023 F  
HETATM   14  F   UNL     1      -8.097   5.864  63.646  1.00  0.00    -0.106 F  
HETATM   15  C   UNL     1      -8.128   9.976  66.322  1.00  0.00    -0.117 A  
HETATM   16  F   UNL     1      -6.864   7.097  62.346  1.00  0.00    -0.058 F  
ENDBRANCH   2   3
BRANCH   2  17
HETATM   17  O   UNL     1      -6.445   7.562  68.440  1.00  0.00    -0.042 OA 
BRANCH  17  18
HETATM   18  C   UNL     1      -7.186   7.201  69.631  1.00  0.00    -0.076 C  
HETATM   19  N   UNL     1      -9.070   8.851  69.306  1.00  0.00    -0.143 NA 
HETATM   20  C   UNL     1      -8.757   7.408  69.480  1.00  0.00    -0.137 C  
HETATM   21  O   UNL     1      -6.721   7.924  70.784  1.00  0.00    -0.038 OA 
HETATM   22  C   UNL     1      -6.983   9.324  70.631  1.00  0.00    -0.101 C  
HETATM   23  C   UNL     1      -8.478   9.605  70.437  1.00  0.00    -0.146 C  
BRANCH  19  24
HETATM   24  C   UNL     1     -10.472   9.233  69.063  1.00  0.00    -0.216 C  
BRANCH  24  25
HETATM   25  C   UNL     1     -10.780  10.700  69.300  1.00  0.00    -0.238 C  
HETATM   26  O   UNL     1     -10.511  13.879  66.727  1.00  0.00    -0.267 OA 
HETATM   27  O   UNL     1     -12.628  14.374  67.874  1.00  0.00     0.076 OA 
HETATM   28  N   UNL     1     -11.650  11.107  70.191  1.00  0.00    -0.322 NA 
HETATM   29  O   UNL     1     -10.462  15.522  68.688  1.00  0.00    -0.227 OA 
HETATM   30  C   UNL     1     -11.745  12.468  70.005  1.00  0.00    -0.221 C  
HETATM   31  O   UNL     1     -12.615  13.193  70.468  1.00  0.00    -0.258 OA 
HETATM   32  P   UNL     1     -11.064  14.254  68.194  1.00  0.00    -0.285 P  
HETATM   33  N   UNL     1     -10.819  12.860  69.075  1.00  0.00    -0.192 N  
HETATM   34  N   UNL     1     -10.166  11.706  68.591  1.00  0.00    -0.213 NA 
ENDBRANCH  24  25
ENDBRANCH  19  24
BRANCH  20  35
HETATM   35  C   UNL     1      -9.296   6.460  68.411  1.00  0.00    -0.121 A  
HETATM   36  C   UNL     1      -9.598   4.180  67.591  1.00  0.00    -0.213 A  
HETATM   37  F   UNL     1     -10.280   3.841  65.358  1.00  0.00    -0.163 F  
HETATM   38  C   UNL     1      -9.249   5.064  68.616  1.00  0.00    -0.158 A  
HETATM   39  C   UNL     1     -10.060   6.055  66.135  1.00  0.00     0.025 A  
HETATM   40  C   UNL     1      -9.725   6.941  67.164  1.00  0.00    -0.197 A  
HETATM   41  C   UNL     1      -9.986   4.687  66.353  1.00  0.00    -0.245 A  
ENDBRANCH  20  35
ENDBRANCH  17  18
ENDBRANCH   2  17
TORSDOF 6
ENDMDL
MODEL      301
REMARK 921   NORMALIZED FREE ENERGY PREDICTED BY IDOCK:    5.73 KCAL/MOL
REMARK 922        TOTAL FREE ENERGY PREDICTED BY IDOCK:    6.83 KCAL/MOL
REMARK 923 INTER-LIGAND FREE ENERGY PREDICTED BY IDOCK:   -6.68 KCAL/MOL
REMARK 924 INTRA-LIGAND FREE ENERGY PREDICTED BY IDOCK:   13.51 KCAL/MOL
REMARK 927      BINDING AFFINITY PREDICTED BY RF-SCORE:    0.00 PKD
ROOT
HETATM    1  C   UNL     1      -8.599  14.254  68.684  1.00  0.00    -0.149 C  
HETATM    2  C   UNL     1     -10.083  14.597  68.714  1.00  0.00    -0.235 C  
ENDROOT
BRANCH   2   3
HETATM    3  C   UNL     1     -10.946  13.418  69.114  1.00  0.00    -0.213 A  
HETATM    4  F   UNL     1     -12.632  12.941  73.015  1.00  0.00     0.249 F  
HETATM    5  F   UNL     1     -13.608  11.094  72.419  1.00  0.00    -0.483 F  
HETATM    6  C   UNL     1     -10.719  12.197  68.467  1.00  0.00    -0.257 A  
HETATM    7  C   UNL     1     -11.217  11.004  68.987  1.00  0.00    -0.320 A  
HETATM    8  F   UNL     1     -14.402  13.005  71.751  1.00  0.00    -0.072 F  
HETATM    9  C   UNL     1     -10.753   9.687  68.407  1.00  0.00    -0.209 C  
HETATM   10  C   UNL     1     -12.043  11.050  70.120  1.00  0.00    -0.438 A  
HETATM   11  C   UNL     1     -13.242  12.326  71.966  1.00  0.00    -0.403 C  
HETATM   12  C   UNL     1     -12.364  12.274  70.736  1.00  0.00    -0.383 A  
HETATM   13  F   UNL     1     -10.044   9.826  67.252  1.00  0.00    -0.202 F  
HETATM   14  F   UNL     1      -9.937   9.021  69.265  1.00  0.00    -0.171 F  
HETATM   15  C   UNL     1     -11.801  13.456  70.228  1.00  0.00    -0.316 A  
HETATM   16  F   UNL     1     -11.779   8.845  68.122  1.00  0.00     0.559 F  
ENDBRANCH   2   3
BRANCH   2  17
HETATM   17  O   UNL     1     -10.507  15.125  67.446  1.00  0.00    -0.256 OA 
BRANCH  17  18
HETATM   18  C   UNL     1      -9.422  15.330  66.508  1.00  0.00    -0.283 C  
HETATM   19  N   UNL     1      -8.369  13.051  66.785  1.00  0.00    -0.023 NA 
HETATM   20  C   UNL     1      -8.951  13.990  65.790  1.00  0.00     0.697 C  
HETATM   21  O   UNL     1      -8.289  15.955  67.136  1.00  0.00    -0.171 OA 
HETATM   22  C   UNL     1      -7.726  15.084  68.123  1.00  0.00    -0.113 C  
HETATM   23  C   UNL     1      -7.283  13.747  67.516  1.00  0.00    -0.158 C  
BRANCH  19  24
HETATM   24  C   UNL     1      -7.954  11.716  66.321  1.00  0.00     0.082 C  
BRANCH  24  25
HETATM   25  C   UNL     1      -7.164  10.909  67.336  1.00  0.00    -0.094 C  
HETATM   26  O   UNL     1      -8.148   9.838  71.168  1.00  0.00    -0.153 OA 
HETATM   27  O   UNL     1      -7.122   7.763  70.342  1.00  0.00    -0.049 OA 
HETATM   28  N   UNL     1      -6.279  10.008  66.989  1.00  0.00    -0.062 NA 
HETATM   29  O   UNL     1      -5.689   9.406  71.728  1.00  0.00    -0.072 OA 
HETATM   30  C   UNL     1      -5.893   9.412  68.168  1.00  0.00    -0.037 C  
HETATM   31  O   UNL     1      -5.263   8.367  68.268  1.00  0.00    -0.032 OA 
HETATM   32  P   UNL     1      -6.722   9.279  70.664  1.00  0.00    -0.102 P  
HETATM   33  N   UNL     1      -6.478  10.071  69.217  1.00  0.00    -0.047 N  
HETATM   34  N   UNL     1      -7.327  11.069  68.692  1.00  0.00    -0.096 NA 
ENDBRANCH  24  25
ENDBRANCH  19  24
BRANCH  20  35
HETATM   35  C   UNL     1     -10.087  13.449  64.925  1.00  0.00    -0.256 A  
HETATM   36  C   UNL     1     -12.444  13.503  64.287  1.00  0.00    -0.311 A  
HETATM   37  F   UNL     1     -13.325  11.738  62.992  1.00  0.00    -0.431 F  
HETATM   38  C   UNL     1     -11.354  14.070  64.955  1.00  0.00    -0.354 A  
HETATM   39  C   UNL     1     -11.033  11.687  63.536  1.00  0.00    -0.485 A  
HETATM   40  C   UNL     1      -9.939  12.262  64.191  1.00  0.00    -0.261 A  
HETATM   41  C   UNL     1     -12.273  12.305  63.596  1.00  0.00    -0.567 A  
ENDBRANCH  20  35
ENDBRANCH  17  18
ENDBRANCH   2  17
TORSDOF 6
ENDMDL
MODEL      302
REMARK 921   NORMALIZED FREE ENERGY PREDICTED BY IDOCK:    6.20 KCAL/MOL
REMARK 922        TOTAL FREE ENERGY PREDICTED BY IDOCK:    7.47 KCAL/MOL
REMARK 923 INTER-LIGAND FREE ENERGY PREDICTED BY IDOCK:   -1.75 KCAL/MOL
REMARK 924 INTRA-LIGAND FREE ENERGY PREDICTED BY IDOCK:    9.22 KCAL/MOL
REMARK 927      BINDING AFFINITY PREDICTED BY RF-SCORE:    0.00 PKD
ROOT
HETATM    1  C   UNL     1     -11.465  15.206  68.583  1.00  0.00    -0.341 C  
HETATM    2  C   UNL     1     -10.304  15.318  67.602  1.00  0.00    -0.250 C  
ENDROOT
BRANCH   2   3
HETATM    3  C   UNL     1      -9.141  16.109  68.164  1.00  0.00    -0.189 A  
HETATM    4  F   UNL     1      -6.722  14.760  71.423  1.00  0.00     0.204 F  
HETATM    5  F   UNL     1      -5.478  16.536  71.296  1.00  0.00    -0.121 F  
HETATM    6  C   UNL     1      -9.199  17.505  68.072  1.00  0.00    -0.275 A  
HETATM    7  C   UNL     1      -8.360  18.312  68.837  1.00  0.00    -0.165 A  
HETATM    8  F   UNL     1      -5.267  14.956  69.817  1.00  0.00    -0.093 F  
HETATM    9  C   UNL     1      -8.611  19.802  68.899  1.00  0.00    -0.095 C  
HETATM   10  C   UNL     1      -7.377  17.706  69.634  1.00  0.00     0.421 A  
HETATM   11  C   UNL     1      -6.187  15.649  70.542  1.00  0.00     0.139 C  
HETATM   12  C   UNL     1      -7.236  16.306  69.674  1.00  0.00     0.009 A  
HETATM   13  F   UNL     1      -9.527  20.232  67.987  1.00  0.00    -0.430 F  
HETATM   14  F   UNL     1      -9.089  20.180  70.113  1.00  0.00     0.212 F  
HETATM   15  C   UNL     1      -8.132  15.514  68.938  1.00  0.00    -0.194 A  
HETATM   16  F   UNL     1      -7.489  20.535  68.683  1.00  0.00    -0.178 F  
ENDBRANCH   2   3
BRANCH   2  17
HETATM   17  O   UNL     1     -10.746  15.885  66.357  1.00  0.00    -0.308 OA 
BRANCH  17  18
HETATM   18  C   UNL     1      -9.848  15.629  65.249  1.00  0.00    -0.115 C  
HETATM   19  N   UNL     1      -8.629  13.689  66.310  1.00  0.00     0.381 NA 
HETATM   20  C   UNL     1      -9.424  14.100  65.123  1.00  0.00     0.521 C  
HETATM   21  O   UNL     1      -8.666  16.444  65.326  1.00  0.00     0.258 OA 
HETATM   22  C   UNL     1      -7.893  16.090  66.479  1.00  0.00    -0.191 C  
HETATM   23  C   UNL     1      -7.479  14.614  66.456  1.00  0.00     1.408 C  
BRANCH  19  24
HETATM   24  C   UNL     1      -8.218  12.278  66.416  1.00  0.00     0.226 C  
BRANCH  24  25
HETATM   25  C   UNL     1      -8.681  11.576  67.680  1.00  0.00    -0.142 C  
HETATM   26  O   UNL     1     -12.483  10.813  69.008  1.00  0.00    -0.379 OA 
HETATM   27  O   UNL     1     -11.357   8.696  69.548  1.00  0.00     0.046 OA 
HETATM   28  N   UNL     1      -7.961  10.666  68.288  1.00  0.00    -0.111 NA 
HETATM   29  O   UNL     1     -11.631  10.479  71.397  1.00  0.00    -0.193 OA 
HETATM   30  C   UNL     1      -8.771  10.180  69.291  1.00  0.00    -0.179 C  
HETATM   31  O   UNL     1      -8.572   9.161  69.938  1.00  0.00    -0.125 OA 
HETATM   32  P   UNL     1     -11.316  10.242  69.963  1.00  0.00    -0.319 P  
HETATM   33  N   UNL     1      -9.927  10.914  69.330  1.00  0.00    -0.123 N  
HETATM   34  N   UNL     1      -9.893  11.846  68.271  1.00  0.00    -0.196 NA 
ENDBRANCH  24  25
ENDBRANCH  19  24
BRANCH  20  35
HETATM   35  C   UNL     1     -10.655  13.255  64.802  1.00  0.00    -0.402 A  
HETATM   36  C   UNL     1     -11.757  11.619  63.363  1.00  0.00    -0.325 A  
HETATM   37  F   UNL     1     -14.085  11.293  63.564  1.00  0.00     0.675 F  
HETATM   38  C   UNL     1     -10.602  12.295  63.770  1.00  0.00    -0.488 A  
HETATM   39  C   UNL     1     -13.044  12.834  65.012  1.00  0.00     0.126 A  
HETATM   40  C   UNL     1     -11.887  13.499  65.429  1.00  0.00    -0.379 A  
HETATM   41  C   UNL     1     -12.971  11.909  63.980  1.00  0.00    -0.068 A  
ENDBRANCH  20  35
ENDBRANCH  17  18
ENDBRANCH   2  17
TORSDOF 6
ENDMDL
MODEL      303
REMARK 921   NORMALIZED FREE ENERGY PREDICTED BY IDOCK:    6.41 KCAL/MOL
REMARK 922        TOTAL FREE ENERGY PREDICTED BY IDOCK:    7.75 KCAL/MOL
REMARK 923 INTER-LIGAND FREE ENERGY PREDICTED BY IDOCK:   -4.06 KCAL/MOL
REMARK 924 INTRA-LIGAND FREE ENERGY PREDICTED BY IDOCK:   11.82 KCAL/MOL
REMARK 927      BINDING AFFINITY PREDICTED BY RF-SCORE:    0.00 PKD
ROOT
HETATM    1  C   UNL     1     -10.188  14.844  66.335  1.00  0.00    -0.292 C  
HETATM    2  C   UNL     1     -11.581  14.621  66.908  1.00  0.00    -0.362 C  
ENDROOT
BRANCH   2   3
HETATM    3  C   UNL     1     -11.551  14.111  68.335  1.00  0.00    -0.353 A  
HETATM    4  F   UNL     1     -12.910  10.223  69.485  1.00  0.00    -0.098 F  
HETATM    5  F   UNL     1     -12.369  10.595  71.556  1.00  0.00    -0.433 F  
HETATM    6  C   UNL     1     -11.666  15.054  69.364  1.00  0.00    -0.351 A  
HETATM    7  C   UNL     1     -11.978  14.664  70.665  1.00  0.00    -0.380 A  
HETATM    8  F   UNL     1     -10.819  10.180  70.088  1.00  0.00    -0.266 F  
HETATM    9  C   UNL     1     -12.335  15.715  71.692  1.00  0.00    -0.428 C  
HETATM   10  C   UNL     1     -12.075  13.296  70.958  1.00  0.00    -0.154 A  
HETATM   11  C   UNL     1     -11.991  10.848  70.271  1.00  0.00    -0.361 C  
HETATM   12  C   UNL     1     -11.872  12.323  69.961  1.00  0.00    -0.372 A  
HETATM   13  F   UNL     1     -12.084  16.986  71.273  1.00  0.00     0.366 F  
HETATM   14  F   UNL     1     -13.656  15.681  72.006  1.00  0.00    -0.459 F  
HETATM   15  C   UNL     1     -11.617  12.744  68.646  1.00  0.00    -0.352 A  
HETATM   16  F   UNL     1     -11.659  15.561  72.860  1.00  0.00    -0.507 F  
ENDBRANCH   2   3
BRANCH   2  17
HETATM   17  O   UNL     1     -12.337  13.730  66.070  1.00  0.00    -0.434 OA 
BRANCH  17  18
HETATM   18  C   UNL     1     -11.969  12.337  66.218  1.00  0.00    -0.231 C  
HETATM   19  N   UNL     1     -10.415  12.239  64.229  1.00  0.00    -0.321 NA 
HETATM   20  C   UNL     1     -10.499  12.017  65.697  1.00  0.00    -0.256 C  
HETATM   21  O   UNL     1     -12.905  11.468  65.558  1.00  0.00     1.515 OA 
HETATM   22  C   UNL     1     -12.868  11.682  64.142  1.00  0.00     0.227 C  
HETATM   23  C   UNL     1     -11.469  11.435  63.566  1.00  0.00    -0.092 C  
BRANCH  19  24
HETATM   24  C   UNL     1      -9.105  12.078  63.576  1.00  0.00     0.531 C  
BRANCH  24  25
HETATM   25  C   UNL     1      -8.294  10.891  64.065  1.00  0.00     0.174 C  
HETATM   26  O   UNL     1      -8.157   7.050  62.642  1.00  0.00    -0.125 OA 
HETATM   27  O   UNL     1      -5.779   7.473  63.099  1.00  0.00    -0.048 OA 
HETATM   28  N   UNL     1      -7.148  11.024  64.685  1.00  0.00     0.532 NA 
HETATM   29  O   UNL     1      -7.190   6.213  64.858  1.00  0.00    -0.058 OA 
HETATM   30  C   UNL     1      -6.671   9.741  64.836  1.00  0.00    -0.112 C  
HETATM   31  O   UNL     1      -5.529   9.436  65.151  1.00  0.00    -0.044 OA 
HETATM   32  P   UNL     1      -7.168   7.337  63.883  1.00  0.00    -0.091 P  
HETATM   33  N   UNL     1      -7.622   8.854  64.404  1.00  0.00    -0.109 N  
HETATM   34  N   UNL     1      -8.709   9.592  63.887  1.00  0.00    -0.212 NA 
ENDBRANCH  24  25
ENDBRANCH  19  24
BRANCH  20  35
HETATM   35  C   UNL     1      -9.480  12.760  66.558  1.00  0.00    -0.253 A  
HETATM   36  C   UNL     1      -7.865  14.576  66.798  1.00  0.00     0.324 A  
HETATM   37  F   UNL     1      -6.365  14.549  68.619  1.00  0.00    -0.079 F  
HETATM   38  C   UNL     1      -8.905  13.962  66.093  1.00  0.00     0.360 A  
HETATM   39  C   UNL     1      -7.952  12.815  68.453  1.00  0.00    -0.137 A  
HETATM   40  C   UNL     1      -9.003  12.208  67.757  1.00  0.00    -0.179 A  
HETATM   41  C   UNL     1      -7.389  13.985  67.965  1.00  0.00    -0.141 A  
ENDBRANCH  20  35
ENDBRANCH  17  18
ENDBRANCH   2  17
TORSDOF 6
ENDMDL
MODEL      304
REMARK 921   NORMALIZED FREE ENERGY PREDICTED BY IDOCK:    8.80 KCAL/MOL
REMARK 922        TOTAL FREE ENERGY PREDICTED BY IDOCK:   10.98 KCAL/MOL
REMARK 923 INTER-LIGAND FREE ENERGY PREDICTED BY IDOCK:    9.19 KCAL/MOL
REMARK 924 INTRA-LIGAND FREE ENERGY PREDICTED BY IDOCK:    1.79 KCAL/MOL
REMARK 927      BINDING AFFINITY PREDICTED BY RF-SCORE:    0.00 PKD
ROOT
HETATM    1  C   UNL     1      -6.999  14.081  70.215  1.00  0.00     0.369 C  
HETATM    2  C   UNL     1      -7.892  15.229  69.763  1.00  0.00    -0.057 C  
ENDROOT
BRANCH   2   3
HETATM    3  C   UNL     1      -7.104  16.454  69.350  1.00  0.00    -0.190 A  
HETATM    4  F   UNL     1      -7.230  20.169  71.464  1.00  0.00     0.086 F  
HETATM    5  F   UNL     1      -5.795  21.052  70.093  1.00  0.00    -0.361 F  
HETATM    6  C   UNL     1      -6.816  16.613  67.988  1.00  0.00    -0.152 A  
HETATM    7  C   UNL     1      -6.400  17.841  67.479  1.00  0.00    -0.179 A  
HETATM    8  F   UNL     1      -5.125  19.632  71.597  1.00  0.00    -0.249 F  
HETATM    9  C   UNL     1      -6.335  18.045  65.982  1.00  0.00    -0.253 C  
HETATM   10  C   UNL     1      -6.170  18.902  68.369  1.00  0.00    -0.236 A  
HETATM   11  C   UNL     1      -6.129  19.887  70.715  1.00  0.00    -0.245 C  
HETATM   12  C   UNL     1      -6.362  18.742  69.754  1.00  0.00    -0.196 A  
HETATM   13  F   UNL     1      -6.482  16.891  65.275  1.00  0.00     0.767 F  
HETATM   14  F   UNL     1      -7.317  18.876  65.546  1.00  0.00    -0.285 F  
HETATM   15  C   UNL     1      -6.839  17.512  70.235  1.00  0.00     1.174 A  
HETATM   16  F   UNL     1      -5.160  18.591  65.575  1.00  0.00    -0.147 F  
ENDBRANCH   2   3
BRANCH   2  17
HETATM   17  O   UNL     1      -8.845  15.563  70.787  1.00  0.00     1.342 OA 
BRANCH  17  18
HETATM   18  C   UNL     1      -9.810  14.515  71.051  1.00  0.00     2.598 C  
HETATM   19  N   UNL     1     -11.375  15.081  69.152  1.00  0.00    -0.278 NA 
HETATM   20  C   UNL     1     -10.547  13.995  69.740  1.00  0.00     0.304 C  
HETATM   21  O   UNL     1     -10.792  14.930  72.015  1.00  0.00     0.216 OA 
HETATM   22  C   UNL     1     -11.587  15.998  71.486  1.00  0.00    -0.456 C  
HETATM   23  C   UNL     1     -12.301  15.590  70.192  1.00  0.00    -0.353 C  
BRANCH  19  24
HETATM   24  C   UNL     1     -12.068  14.815  67.879  1.00  0.00    -0.126 C  
BRANCH  24  25
HETATM   25  C   UNL     1     -11.895  15.893  66.825  1.00  0.00     0.786 C  
HETATM   26  O   UNL     1      -9.975  19.506  67.064  1.00  0.00    -0.333 OA 
HETATM   27  O   UNL     1      -9.273  18.741  64.836  1.00  0.00     1.955 OA 
HETATM   28  N   UNL     1     -11.887  15.632  65.541  1.00  0.00     0.331 NA 
HETATM   29  O   UNL     1     -11.263  20.378  65.032  1.00  0.00     0.016 OA 
HETATM   30  C   UNL     1     -11.571  16.827  64.934  1.00  0.00     0.586 C  
HETATM   31  O   UNL     1     -11.232  16.967  63.767  1.00  0.00    -0.122 OA 
HETATM   32  P   UNL     1     -10.601  19.179  65.615  1.00  0.00     0.295 P  
HETATM   33  N   UNL     1     -11.521  17.813  65.884  1.00  0.00     1.263 N  
HETATM   34  N   UNL     1     -11.731  17.220  67.146  1.00  0.00     1.190 NA 
ENDBRANCH  24  25
ENDBRANCH  19  24
BRANCH  20  35
HETATM   35  C   UNL     1      -9.531  13.334  68.811  1.00  0.00     0.084 A  
HETATM   36  C   UNL     1      -8.343  13.315  66.678  1.00  0.00     0.214 A  
HETATM   37  F   UNL     1      -7.168  11.373  66.033  1.00  0.00    -0.075 F  
HETATM   38  C   UNL     1      -9.156  13.970  67.608  1.00  0.00    -0.192 A  
HETATM   39  C   UNL     1      -8.250  11.380  68.127  1.00  0.00    -0.143 A  
HETATM   40  C   UNL     1      -9.050  12.040  69.064  1.00  0.00     0.334 A  
HETATM   41  C   UNL     1      -7.911  12.018  66.942  1.00  0.00    -0.095 A  
ENDBRANCH  20  35
ENDBRANCH  17  18
ENDBRANCH   2  17
TORSDOF 6
ENDMDL
MODEL      305
REMARK 921   NORMALIZED FREE ENERGY PREDICTED BY IDOCK:    9.07 KCAL/MOL
REMARK 922        TOTAL FREE ENERGY PREDICTED BY IDOCK:   11.35 KCAL/MOL
REMARK 923 INTER-LIGAND FREE ENERGY PREDICTED BY IDOCK:    6.47 KCAL/MOL
REMARK 924 INTRA-LIGAND FREE ENERGY PREDICTED BY IDOCK:    4.88 KCAL/MOL
REMARK 927      BINDING AFFINITY PREDICTED BY RF-SCORE:    0.00 PKD
ROOT
HETATM    1  C   UNL     1      -8.557  15.606  70.901  1.00  0.00     2.807 C  
HETATM    2  C   UNL     1      -8.535  15.153  69.447  1.00  0.00    -0.190 C  
ENDROOT
BRANCH   2   3
HETATM    3  C   UNL     1      -9.911  14.785  68.929  1.00  0.00    -0.222 A  
HETATM    4  F   UNL     1     -11.842  16.821  65.703  1.00  0.00     0.729 F  
HETATM    5  F   UNL     1     -13.558  15.495  65.831  1.00  0.00     1.629 F  
HETATM    6  C   UNL     1     -10.817  14.221  69.836  1.00  0.00     0.027 A  
HETATM    7  C   UNL     1     -12.178  14.161  69.549  1.00  0.00    -0.351 A  
HETATM    8  F   UNL     1     -11.702  14.785  64.947  1.00  0.00    -0.349 F  
HETATM    9  C   UNL     1     -13.154  13.774  70.637  1.00  0.00    -0.028 C  
HETATM   10  C   UNL     1     -12.625  14.582  68.287  1.00  0.00     0.480 A  
HETATM   11  C   UNL     1     -12.202  15.536  65.966  1.00  0.00     0.933 C  
HETATM   12  C   UNL     1     -11.723  15.067  67.322  1.00  0.00    -0.238 A  
HETATM   13  F   UNL     1     -12.547  13.294  71.759  1.00  0.00    -0.373 F  
HETATM   14  F   UNL     1     -13.899  14.835  71.043  1.00  0.00    -0.417 F  
HETATM   15  C   UNL     1     -10.363  15.173  67.658  1.00  0.00    -0.248 A  
HETATM   16  F   UNL     1     -14.032  12.817  70.243  1.00  0.00     1.582 F  
ENDBRANCH   2   3
BRANCH   2  17
HETATM   17  O   UNL     1      -7.620  14.058  69.271  1.00  0.00    -0.032 OA 
BRANCH  17  18
HETATM   18  C   UNL     1      -7.258  13.818  67.889  1.00  0.00    -0.154 C  
HETATM   19  N   UNL     1      -7.011  11.312  68.089  1.00  0.00    -0.067 NA 
HETATM   20  C   UNL     1      -7.723  12.392  67.355  1.00  0.00    -0.170 C  
HETATM   21  O   UNL     1      -5.843  13.963  67.680  1.00  0.00    -0.281 OA 
HETATM   22  C   UNL     1      -5.128  12.952  68.400  1.00  0.00    -0.069 C  
HETATM   23  C   UNL     1      -5.551  11.542  67.973  1.00  0.00    -0.043 C  
BRANCH  19  24
HETATM   24  C   UNL     1      -7.375   9.916  67.793  1.00  0.00    -0.089 C  
BRANCH  24  25
HETATM   25  C   UNL     1      -7.065   9.465  66.377  1.00  0.00    -0.088 C  
HETATM   26  O   UNL     1      -7.839   5.884  64.540  1.00  0.00    -0.101 OA 
HETATM   27  O   UNL     1      -8.404   7.470  62.749  1.00  0.00    -0.073 OA 
HETATM   28  N   UNL     1      -6.962  10.302  65.375  1.00  0.00    -0.139 NA 
HETATM   29  O   UNL     1      -6.069   6.364  62.756  1.00  0.00    -0.029 OA 
HETATM   30  C   UNL     1      -6.817   9.509  64.259  1.00  0.00    -0.101 C  
HETATM   31  O   UNL     1      -6.926   9.882  63.098  1.00  0.00    -0.115 OA 
HETATM   32  P   UNL     1      -7.134   6.981  63.592  1.00  0.00    -0.073 P  
HETATM   33  N   UNL     1      -6.711   8.200  64.649  1.00  0.00    -0.066 N  
HETATM   34  N   UNL     1      -6.873   8.144  66.049  1.00  0.00    -0.057 NA 
ENDBRANCH  24  25
ENDBRANCH  19  24
BRANCH  20  35
HETATM   35  C   UNL     1      -9.249  12.323  67.353  1.00  0.00    -0.182 A  
HETATM   36  C   UNL     1     -11.317  11.620  68.444  1.00  0.00    -0.339 A  
HETATM   37  F   UNL     1     -13.333  11.653  67.218  1.00  0.00     3.827 F  
HETATM   38  C   UNL     1      -9.935  11.829  68.483  1.00  0.00    -0.203 A  
HETATM   39  C   UNL     1     -11.367  12.399  66.154  1.00  0.00    -0.398 A  
HETATM   40  C   UNL     1      -9.987  12.623  66.197  1.00  0.00    -0.269 A  
HETATM   41  C   UNL     1     -12.017  11.893  67.271  1.00  0.00     0.010 A  
ENDBRANCH  20  35
ENDBRANCH  17  18
ENDBRANCH   2  17
TORSDOF 6
ENDMDL
MODEL      306
REMARK 921   NORMALIZED FREE ENERGY PREDICTED BY IDOCK:    9.17 KCAL/MOL
REMARK 922        TOTAL FREE ENERGY PREDICTED BY IDOCK:   11.48 KCAL/MOL
REMARK 923 INTER-LIGAND FREE ENERGY PREDICTED BY IDOCK:    7.23 KCAL/MOL
REMARK 924 INTRA-LIGAND FREE ENERGY PREDICTED BY IDOCK:    4.25 KCAL/MOL
REMARK 927      BINDING AFFINITY PREDICTED BY RF-SCORE:    0.00 PKD
ROOT
HETATM    1  C   UNL     1      -8.603  15.703  70.988  1.00  0.00     3.218 C  
HETATM    2  C   UNL     1      -8.562  15.267  69.529  1.00  0.00    -0.184 C  
ENDROOT
BRANCH   2   3
HETATM    3  C   UNL     1      -9.933  14.919  68.986  1.00  0.00    -0.235 A  
HETATM    4  F   UNL     1     -11.793  17.011  65.753  1.00  0.00     0.968 F  
HETATM    5  F   UNL     1     -13.524  15.702  65.840  1.00  0.00     1.779 F  
HETATM    6  C   UNL     1     -10.859  14.354  69.872  1.00  0.00    -0.030 A  
HETATM    7  C   UNL     1     -12.216  14.311  69.563  1.00  0.00    -0.341 A  
HETATM    8  F   UNL     1     -11.662  14.983  64.977  1.00  0.00    -0.356 F  
HETATM    9  C   UNL     1     -13.212  13.922  70.632  1.00  0.00     0.025 C  
HETATM   10  C   UNL     1     -12.639  14.751  68.299  1.00  0.00     0.552 A  
HETATM   11  C   UNL     1     -12.170  15.727  65.997  1.00  0.00     1.323 C  
HETATM   12  C   UNL     1     -11.716  15.238  67.354  1.00  0.00    -0.120 A  
HETATM   13  F   UNL     1     -12.629  13.423  71.757  1.00  0.00    -0.389 F  
HETATM   14  F   UNL     1     -13.953  14.986  71.038  1.00  0.00    -0.443 F  
HETATM   15  C   UNL     1     -10.362  15.326  67.712  1.00  0.00    -0.244 A  
HETATM   16  F   UNL     1     -14.094  12.978  70.213  1.00  0.00     1.658 F  
ENDBRANCH   2   3
BRANCH   2  17
HETATM   17  O   UNL     1      -7.656  14.165  69.355  1.00  0.00    -0.012 OA 
BRANCH  17  18
HETATM   18  C   UNL     1      -7.252  13.954  67.980  1.00  0.00    -0.141 C  
HETATM   19  N   UNL     1      -7.043  11.441  68.125  1.00  0.00    -0.072 NA 
HETATM   20  C   UNL     1      -7.718  12.548  67.396  1.00  0.00    -0.167 C  
HETATM   21  O   UNL     1      -5.830  14.086  67.818  1.00  0.00    -0.210 OA 
HETATM   22  C   UNL     1      -5.150  13.048  68.536  1.00  0.00    -0.065 C  
HETATM   23  C   UNL     1      -5.578  11.654  68.060  1.00  0.00    -0.044 C  
BRANCH  19  24
HETATM   24  C   UNL     1      -7.415  10.057  67.783  1.00  0.00    -0.089 C  
BRANCH  24  25
HETATM   25  C   UNL     1      -7.594   9.135  68.976  1.00  0.00    -0.074 C  
HETATM   26  O   UNL     1      -5.391   8.853  72.421  1.00  0.00    -0.049 OA 
HETATM   27  O   UNL     1      -7.677   8.647  73.300  1.00  0.00    -0.377 OA 
HETATM   28  N   UNL     1      -8.757   8.642  69.321  1.00  0.00    -0.131 NA 
HETATM   29  O   UNL     1      -6.302   6.504  72.866  1.00  0.00    -0.057 OA 
HETATM   30  C   UNL     1      -8.530   7.984  70.509  1.00  0.00    -0.125 C  
HETATM   31  O   UNL     1      -9.392   7.589  71.283  1.00  0.00    -0.149 OA 
HETATM   32  P   UNL     1      -6.656   7.856  72.355  1.00  0.00    -0.080 P  
HETATM   33  N   UNL     1      -7.187   7.998  70.780  1.00  0.00    -0.052 N  
HETATM   34  N   UNL     1      -6.544   8.756  69.779  1.00  0.00    -0.041 NA 
ENDBRANCH  24  25
ENDBRANCH  19  24
BRANCH  20  35
HETATM   35  C   UNL     1      -9.244  12.498  67.344  1.00  0.00    -0.186 A  
HETATM   36  C   UNL     1     -11.354  11.796  68.352  1.00  0.00    -0.328 A  
HETATM   37  F   UNL     1     -13.330  11.885  67.065  1.00  0.00     3.432 F  
HETATM   38  C   UNL     1      -9.972  11.986  68.440  1.00  0.00    -0.209 A  
HETATM   39  C   UNL     1     -11.322  12.631  66.082  1.00  0.00    -0.375 A  
HETATM   40  C   UNL     1      -9.942  12.836  66.174  1.00  0.00    -0.272 A  
HETATM   41  C   UNL     1     -12.013  12.107  67.165  1.00  0.00    -0.078 A  
ENDBRANCH  20  35
ENDBRANCH  17  18
ENDBRANCH   2  17
TORSDOF 6
ENDMDL
MODEL      307
REMARK 921   NORMALIZED FREE ENERGY PREDICTED BY IDOCK:   10.10 KCAL/MOL
REMARK 922        TOTAL FREE ENERGY PREDICTED BY IDOCK:   12.74 KCAL/MOL
REMARK 923 INTER-LIGAND FREE ENERGY PREDICTED BY IDOCK:   12.37 KCAL/MOL
REMARK 924 INTRA-LIGAND FREE ENERGY PREDICTED BY IDOCK:    0.37 KCAL/MOL
REMARK 927      BINDING AFFINITY PREDICTED BY RF-SCORE:    0.00 PKD
ROOT
HETATM    1  C   UNL     1      -7.251  14.133  70.281  1.00  0.00     0.557 C  
HETATM    2  C   UNL     1      -8.346  15.030  69.718  1.00  0.00     0.100 C  
ENDROOT
BRANCH   2   3
HETATM    3  C   UNL     1      -7.803  16.320  69.140  1.00  0.00    -0.231 A  
HETATM    4  F   UNL     1      -5.159  16.476  65.783  1.00  0.00     0.582 F  
HETATM    5  F   UNL     1      -5.125  18.647  65.850  1.00  0.00    -0.143 F  
HETATM    6  C   UNL     1      -7.641  17.405  70.010  1.00  0.00     1.537 A  
HETATM    7  C   UNL     1      -6.856  18.500  69.656  1.00  0.00    -0.001 A  
HETATM    8  F   UNL     1      -6.873  17.613  65.074  1.00  0.00     0.158 F  
HETATM    9  C   UNL     1      -6.503  19.534  70.702  1.00  0.00     0.121 C  
HETATM   10  C   UNL     1      -6.307  18.553  68.366  1.00  0.00    -0.217 A  
HETATM   11  C   UNL     1      -5.929  17.564  66.052  1.00  0.00    -0.145 C  
HETATM   12  C   UNL     1      -6.531  17.518  67.439  1.00  0.00    -0.169 A  
HETATM   13  F   UNL     1      -7.204  19.389  71.861  1.00  0.00     1.426 F  
HETATM   14  F   UNL     1      -5.191  19.467  71.050  1.00  0.00    -0.187 F  
HETATM   15  C   UNL     1      -7.277  16.398  67.840  1.00  0.00    -0.150 A  
HETATM   16  F   UNL     1      -6.725  20.806  70.283  1.00  0.00    -0.046 F  
ENDBRANCH   2   3
BRANCH   2  17
HETATM   17  O   UNL     1      -9.341  15.304  70.719  1.00  0.00     0.854 OA 
BRANCH  17  18
HETATM   18  C   UNL     1     -10.291  14.227  70.908  1.00  0.00     2.023 C  
HETATM   19  N   UNL     1     -11.747  14.779  68.920  1.00  0.00    -0.300 NA 
HETATM   20  C   UNL     1     -10.930  13.706  69.546  1.00  0.00    -0.001 C  
HETATM   21  O   UNL     1     -11.344  14.602  71.812  1.00  0.00    -0.097 OA 
HETATM   22  C   UNL     1     -12.132  15.657  71.247  1.00  0.00    -0.411 C  
HETATM   23  C   UNL     1     -12.751  15.248  69.905  1.00  0.00    -0.095 C  
BRANCH  19  24
HETATM   24  C   UNL     1     -12.351  14.513  67.602  1.00  0.00     0.068 C  
BRANCH  24  25
HETATM   25  C   UNL     1     -12.098  15.586  66.560  1.00  0.00     0.767 C  
HETATM   26  O   UNL     1     -10.485  19.329  66.994  1.00  0.00    -0.397 OA 
HETATM   27  O   UNL     1      -9.413  18.588  64.910  1.00  0.00     1.859 OA 
HETATM   28  N   UNL     1     -11.884  15.311  65.297  1.00  0.00    -0.064 NA 
HETATM   29  O   UNL     1     -11.516  20.082  64.777  1.00  0.00     0.215 OA 
HETATM   30  C   UNL     1     -11.565  16.518  64.716  1.00  0.00     0.213 C  
HETATM   31  O   UNL     1     -11.067  16.667  63.608  1.00  0.00    -0.109 OA 
HETATM   32  P   UNL     1     -10.868  18.940  65.477  1.00  0.00     0.945 P  
HETATM   33  N   UNL     1     -11.721  17.517  65.640  1.00  0.00     1.966 N  
HETATM   34  N   UNL     1     -12.074  16.926  66.872  1.00  0.00     2.162 NA 
ENDBRANCH  24  25
ENDBRANCH  19  24
BRANCH  20  35
HETATM   35  C   UNL     1      -9.838  13.086  68.676  1.00  0.00    -0.075 A  
HETATM   36  C   UNL     1      -8.695  12.957  66.522  1.00  0.00     0.039 A  
HETATM   37  F   UNL     1      -7.246  11.143  66.096  1.00  0.00    -0.135 F  
HETATM   38  C   UNL     1      -9.584  13.602  67.387  1.00  0.00    -0.226 A  
HETATM   39  C   UNL     1      -8.284  11.271  68.209  1.00  0.00    -0.143 A  
HETATM   40  C   UNL     1      -9.161  11.925  69.080  1.00  0.00     0.285 A  
HETATM   41  C   UNL     1      -8.065  11.786  66.939  1.00  0.00    -0.160 A  
ENDBRANCH  20  35
ENDBRANCH  17  18
ENDBRANCH   2  17
TORSDOF 6
ENDMDL
MODEL      308
REMARK 921   NORMALIZED FREE ENERGY PREDICTED BY IDOCK:   10.86 KCAL/MOL
REMARK 922        TOTAL FREE ENERGY PREDICTED BY IDOCK:   13.76 KCAL/MOL
REMARK 923 INTER-LIGAND FREE ENERGY PREDICTED BY IDOCK:    6.74 KCAL/MOL
REMARK 924 INTRA-LIGAND FREE ENERGY PREDICTED BY IDOCK:    7.02 KCAL/MOL
REMARK 927      BINDING AFFINITY PREDICTED BY RF-SCORE:    0.00 PKD
ROOT
HETATM    1  C   UNL     1      -8.659  15.448  71.565  1.00  0.00     4.605 C  
HETATM    2  C   UNL     1      -8.602  15.031  70.101  1.00  0.00     0.655 C  
ENDROOT
BRANCH   2   3
HETATM    3  C   UNL     1      -9.959  14.640  69.553  1.00  0.00     0.041 A  
HETATM    4  F   UNL     1     -11.664  16.351  66.024  1.00  0.00     0.427 F  
HETATM    5  F   UNL     1     -13.421  15.087  66.203  1.00  0.00     0.759 F  
HETATM    6  C   UNL     1     -10.926  14.200  70.465  1.00  0.00     0.457 A  
HETATM    7  C   UNL     1     -12.273  14.139  70.113  1.00  0.00    -0.415 A  
HETATM    8  F   UNL     1     -11.544  14.242  65.503  1.00  0.00    -0.315 F  
HETATM    9  C   UNL     1     -13.313  13.897  71.183  1.00  0.00    -0.186 C  
HETATM   10  C   UNL     1     -12.642  14.429  68.791  1.00  0.00     0.345 A  
HETATM   11  C   UNL     1     -12.074  15.111  66.406  1.00  0.00     0.295 C  
HETATM   12  C   UNL     1     -11.678  14.784  67.829  1.00  0.00    -0.368 A  
HETATM   13  F   UNL     1     -12.779  13.530  72.381  1.00  0.00    -0.346 F  
HETATM   14  F   UNL     1     -14.047  15.014  71.430  1.00  0.00    -0.437 F  
HETATM   15  C   UNL     1     -10.335  14.895  68.224  1.00  0.00    -0.232 A  
HETATM   16  F   UNL     1     -14.197  12.923  70.849  1.00  0.00     0.987 F  
ENDBRANCH   2   3
BRANCH   2  17
HETATM   17  O   UNL     1      -7.656  13.966  69.913  1.00  0.00     0.453 OA 
BRANCH  17  18
HETATM   18  C   UNL     1      -7.301  13.739  68.527  1.00  0.00    -0.117 C  
HETATM   19  N   UNL     1      -6.974  11.242  68.719  1.00  0.00    -0.083 NA 
HETATM   20  C   UNL     1      -7.727  12.301  67.995  1.00  0.00    -0.132 C  
HETATM   21  O   UNL     1      -5.893  13.929  68.303  1.00  0.00    -0.094 OA 
HETATM   22  C   UNL     1      -5.139  12.939  69.013  1.00  0.00    -0.068 C  
HETATM   23  C   UNL     1      -5.524  11.517  68.588  1.00  0.00    -0.042 C  
BRANCH  19  24
HETATM   24  C   UNL     1      -7.298   9.835  68.425  1.00  0.00    -0.078 C  
BRANCH  24  25
HETATM   25  C   UNL     1      -8.413   9.250  69.271  1.00  0.00    -0.137 C  
HETATM   26  O   UNL     1     -11.354   6.585  68.248  1.00  0.00    -0.230 OA 
HETATM   27  O   UNL     1     -10.709   5.752  70.468  1.00  0.00    -0.267 OA 
HETATM   28  N   UNL     1      -8.317   9.108  70.570  1.00  0.00    -0.176 NA 
HETATM   29  O   UNL     1     -12.766   7.300  70.257  1.00  0.00     0.191 OA 
HETATM   30  C   UNL     1      -9.454   8.427  70.942  1.00  0.00    -0.169 C  
HETATM   31  O   UNL     1      -9.642   7.888  72.025  1.00  0.00    -0.165 OA 
HETATM   32  P   UNL     1     -11.376   7.041  69.794  1.00  0.00    -0.071 P  
HETATM   33  N   UNL     1     -10.272   8.289  69.851  1.00  0.00    -0.197 N  
HETATM   34  N   UNL     1      -9.604   8.826  68.730  1.00  0.00    -0.156 NA 
ENDBRANCH  24  25
ENDBRANCH  19  24
BRANCH  20  35
HETATM   35  C   UNL     1      -9.250  12.184  68.009  1.00  0.00    -0.194 A  
HETATM   36  C   UNL     1     -11.287  11.455  69.141  1.00  0.00    -0.353 A  
HETATM   37  F   UNL     1     -13.312  11.383  67.934  1.00  0.00     3.187 F  
HETATM   38  C   UNL     1      -9.912  11.708  69.161  1.00  0.00     0.098 A  
HETATM   39  C   UNL     1     -11.379  12.153  66.827  1.00  0.00    -0.398 A  
HETATM   40  C   UNL     1     -10.007  12.421  66.850  1.00  0.00    -0.223 A  
HETATM   41  C   UNL     1     -12.004  11.666  67.966  1.00  0.00    -0.117 A  
ENDBRANCH  20  35
ENDBRANCH  17  18
ENDBRANCH   2  17
TORSDOF 6
ENDMDL
MODEL      309
REMARK 921   NORMALIZED FREE ENERGY PREDICTED BY IDOCK:   11.03 KCAL/MOL
REMARK 922        TOTAL FREE ENERGY PREDICTED BY IDOCK:   14.00 KCAL/MOL
REMARK 923 INTER-LIGAND FREE ENERGY PREDICTED BY IDOCK:    5.36 KCAL/MOL
REMARK 924 INTRA-LIGAND FREE ENERGY PREDICTED BY IDOCK:    8.64 KCAL/MOL
REMARK 927      BINDING AFFINITY PREDICTED BY RF-SCORE:    0.00 PKD
ROOT
HETATM    1  C   UNL     1      -9.560   5.774  69.022  1.00  0.00    -0.168 C  
HETATM    2  C   UNL     1      -9.591   6.999  69.927  1.00  0.00    -0.159 C  
ENDROOT
BRANCH   2   3
HETATM    3  C   UNL     1     -10.523   8.078  69.416  1.00  0.00    -0.223 A  
HETATM    4  F   UNL     1      -9.839  10.280  65.814  1.00  0.00    -0.244 F  
HETATM    5  F   UNL     1     -11.689  11.385  66.082  1.00  0.00    -0.256 F  
HETATM    6  C   UNL     1     -11.263   8.799  70.361  1.00  0.00    -0.247 A  
HETATM    7  C   UNL     1     -11.878  10.004  70.027  1.00  0.00    -0.196 A  
HETATM    8  F   UNL     1     -11.748   9.317  65.412  1.00  0.00     3.520 F  
HETATM    9  C   UNL     1     -12.457  10.873  71.120  1.00  0.00    -0.405 C  
HETATM   10  C   UNL     1     -11.835  10.441  68.694  1.00  0.00     0.052 A  
HETATM   11  C   UNL     1     -11.115  10.163  66.270  1.00  0.00     0.432 C  
HETATM   12  C   UNL     1     -11.176   9.688  67.704  1.00  0.00     0.104 A  
HETATM   13  F   UNL     1     -12.512  10.252  72.331  1.00  0.00    -0.315 F  
HETATM   14  F   UNL     1     -11.717  11.997  71.312  1.00  0.00     0.020 F  
HETATM   15  C   UNL     1     -10.515   8.507  68.079  1.00  0.00    -0.249 A  
HETATM   16  F   UNL     1     -13.722  11.288  70.850  1.00  0.00     0.166 F  
ENDBRANCH   2   3
BRANCH   2  17
HETATM   17  O   UNL     1      -8.266   7.524  70.115  1.00  0.00    -0.127 OA 
BRANCH  17  18
HETATM   18  C   UNL     1      -8.164   8.470  71.208  1.00  0.00    -0.142 C  
HETATM   19  N   UNL     1      -5.994   9.530  70.467  1.00  0.00    -0.053 NA 
HETATM   20  C   UNL     1      -7.414   9.815  70.807  1.00  0.00     0.076 C  
HETATM   21  O   UNL     1      -7.515   7.889  72.352  1.00  0.00    -0.079 OA 
HETATM   22  C   UNL     1      -6.152   7.575  72.044  1.00  0.00    -0.039 C  
HETATM   23  C   UNL     1      -5.367   8.817  71.606  1.00  0.00    -0.041 C  
BRANCH  19  24
HETATM   24  C   UNL     1      -5.158  10.643  69.985  1.00  0.00    -0.040 C  
BRANCH  24  25
HETATM   25  C   UNL     1      -5.351  10.994  68.521  1.00  0.00    -0.043 C  
HETATM   26  O   UNL     1      -6.453   8.604  65.379  1.00  0.00    -0.061 OA 
HETATM   27  O   UNL     1      -7.756  10.635  64.912  1.00  0.00    -0.069 OA 
HETATM   28  N   UNL     1      -5.688  12.194  68.120  1.00  0.00    -0.049 NA 
HETATM   29  O   UNL     1      -5.499  10.287  63.704  1.00  0.00    -0.113 OA 
HETATM   30  C   UNL     1      -5.897  12.074  66.764  1.00  0.00     0.019 C  
HETATM   31  O   UNL     1      -6.450  12.899  66.050  1.00  0.00     2.226 OA 
HETATM   32  P   UNL     1      -6.231  10.154  64.993  1.00  0.00    -0.114 P  
HETATM   33  N   UNL     1      -5.551  10.808  66.367  1.00  0.00    -0.079 N  
HETATM   34  N   UNL     1      -5.186  10.072  67.515  1.00  0.00    -0.038 NA 
ENDBRANCH  24  25
ENDBRANCH  19  24
BRANCH  20  35
HETATM   35  C   UNL     1      -8.231  10.559  69.752  1.00  0.00     0.050 A  
HETATM   36  C   UNL     1      -8.788  10.919  67.402  1.00  0.00    -0.133 A  
HETATM   37  F   UNL     1     -10.027  12.832  66.794  1.00  0.00    -0.220 F  
HETATM   38  C   UNL     1      -8.166  10.161  68.400  1.00  0.00    -0.112 A  
HETATM   39  C   UNL     1      -9.562  12.482  69.078  1.00  0.00     0.358 A  
HETATM   40  C   UNL     1      -8.954  11.717  70.077  1.00  0.00     2.544 A  
HETATM   41  C   UNL     1      -9.468  12.083  67.752  1.00  0.00    -0.190 A  
ENDBRANCH  20  35
ENDBRANCH  17  18
ENDBRANCH   2  17
TORSDOF 6
ENDMDL
MODEL      310
REMARK 921   NORMALIZED FREE ENERGY PREDICTED BY IDOCK:   11.71 KCAL/MOL
REMARK 922        TOTAL FREE ENERGY PREDICTED BY IDOCK:   14.91 KCAL/MOL
REMARK 923 INTER-LIGAND FREE ENERGY PREDICTED BY IDOCK:   -0.44 KCAL/MOL
REMARK 924 INTRA-LIGAND FREE ENERGY PREDICTED BY IDOCK:   15.35 KCAL/MOL
REMARK 927      BINDING AFFINITY PREDICTED BY RF-SCORE:    0.00 PKD
ROOT
HETATM    1  C   UNL     1      -7.785  13.222  69.061  1.00  0.00     0.166 C  
HETATM    2  C   UNL     1      -8.963  13.828  69.813  1.00  0.00     1.667 C  
ENDROOT
BRANCH   2   3
HETATM    3  C   UNL     1     -10.287  13.204  69.423  1.00  0.00     0.409 A  
HETATM    4  F   UNL     1     -12.068   9.931  71.522  1.00  0.00    -0.398 F  
HETATM    5  F   UNL     1     -13.789   9.956  70.196  1.00  0.00    -0.054 F  
HETATM    6  C   UNL     1     -10.652  13.246  68.071  1.00  0.00    -0.249 A  
HETATM    7  C   UNL     1     -11.663  12.427  67.573  1.00  0.00    -0.425 A  
HETATM    8  F   UNL     1     -13.576  11.487  71.726  1.00  0.00    -0.400 F  
HETATM    9  C   UNL     1     -11.865  12.317  66.079  1.00  0.00    -0.341 C  
HETATM   10  C   UNL     1     -12.390  11.627  68.467  1.00  0.00     0.329 A  
HETATM   11  C   UNL     1     -12.877  10.762  70.810  1.00  0.00    -0.320 C  
HETATM   12  C   UNL     1     -12.105  11.635  69.846  1.00  0.00    -0.373 A  
HETATM   13  F   UNL     1     -11.155  13.238  65.369  1.00  0.00    -0.286 F  
HETATM   14  F   UNL     1     -11.475  11.104  65.608  1.00  0.00    -0.168 F  
HETATM   15  C   UNL     1     -11.043  12.425  70.313  1.00  0.00     0.825 A  
HETATM   16  F   UNL     1     -13.162  12.474  65.709  1.00  0.00     0.354 F  
ENDBRANCH   2   3
BRANCH   2  17
HETATM   17  O   UNL     1      -9.003  15.253  69.631  1.00  0.00    -0.232 OA 
BRANCH  17  18
HETATM   18  C   UNL     1      -7.762  15.812  69.133  1.00  0.00    -0.220 C  
HETATM   19  N   UNL     1      -7.082  13.813  67.748  1.00  0.00    -0.152 NA 
HETATM   20  C   UNL     1      -7.363  15.272  67.690  1.00  0.00    -0.178 C  
HETATM   21  O   UNL     1      -6.674  15.580  70.044  1.00  0.00    -0.147 OA 
HETATM   22  C   UNL     1      -6.400  14.177  70.143  1.00  0.00    -0.125 C  
HETATM   23  C   UNL     1      -6.047  13.569  68.781  1.00  0.00    -0.086 C  
BRANCH  19  24
HETATM   24  C   UNL     1      -6.779  13.114  66.487  1.00  0.00     2.064 C  
BRANCH  24  25
HETATM   25  C   UNL     1      -7.327  11.701  66.397  1.00  0.00     0.127 C  
HETATM   26  O   UNL     1      -9.369   9.503  69.190  1.00  0.00    -0.152 OA 
HETATM   27  O   UNL     1     -10.616   8.951  67.145  1.00  0.00    -0.286 OA 
HETATM   28  N   UNL     1      -7.681  11.150  65.263  1.00  0.00     0.292 NA 
HETATM   29  O   UNL     1      -8.784   7.329  67.974  1.00  0.00    -0.127 OA 
HETATM   30  C   UNL     1      -8.247   9.944  65.611  1.00  0.00    -0.138 C  
HETATM   31  O   UNL     1      -8.914   9.230  64.875  1.00  0.00    -0.200 OA 
HETATM   32  P   UNL     1      -9.159   8.755  67.777  1.00  0.00    -0.134 P  
HETATM   33  N   UNL     1      -8.100   9.751  66.959  1.00  0.00    -0.113 N  
HETATM   34  N   UNL     1      -7.493  10.903  67.505  1.00  0.00    -0.095 NA 
ENDBRANCH  24  25
ENDBRANCH  19  24
BRANCH  20  35
HETATM   35  C   UNL     1      -8.406  15.725  66.670  1.00  0.00    -0.319 A  
HETATM   36  C   UNL     1      -9.800  17.505  65.748  1.00  0.00     0.003 A  
HETATM   37  F   UNL     1     -11.562  16.944  64.283  1.00  0.00    -0.325 F  
HETATM   38  C   UNL     1      -8.745  17.091  66.568  1.00  0.00    -0.297 A  
HETATM   39  C   UNL     1     -10.196  15.208  65.104  1.00  0.00    -0.386 A  
HETATM   40  C   UNL     1      -9.132  14.794  65.912  1.00  0.00     0.073 A  
HETATM   41  C   UNL     1     -10.525  16.554  65.035  1.00  0.00    -0.023 A  
ENDBRANCH  20  35
ENDBRANCH  17  18
ENDBRANCH   2  17
TORSDOF 6
ENDMDL
MODEL      311
REMARK 921   NORMALIZED FREE ENERGY PREDICTED BY IDOCK:   12.70 KCAL/MOL
REMARK 922        TOTAL FREE ENERGY PREDICTED BY IDOCK:   16.25 KCAL/MOL
REMARK 923 INTER-LIGAND FREE ENERGY PREDICTED BY IDOCK:   17.24 KCAL/MOL
REMARK 924 INTRA-LIGAND FREE ENERGY PREDICTED BY IDOCK:   -0.99 KCAL/MOL
REMARK 927      BINDING AFFINITY PREDICTED BY RF-SCORE:    0.00 PKD
ROOT
HETATM    1  C   UNL     1     -11.394  13.437  72.699  1.00  0.00     4.781 C  
HETATM    2  C   UNL     1     -11.607  13.469  71.191  1.00  0.00     0.894 C  
ENDROOT
BRANCH   2   3
HETATM    3  C   UNL     1     -12.071  12.136  70.639  1.00  0.00    -0.344 A  
HETATM    4  F   UNL     1     -12.335   8.570  72.984  1.00  0.00    -0.401 F  
HETATM    5  F   UNL     1     -13.092   7.452  71.283  1.00  0.00    -0.365 F  
HETATM    6  C   UNL     1     -11.837  11.879  69.282  1.00  0.00    -0.379 A  
HETATM    7  C   UNL     1     -11.921  10.585  68.771  1.00  0.00     0.031 A  
HETATM    8  F   UNL     1     -14.392   8.847  72.329  1.00  0.00    -0.456 F  
HETATM    9  C   UNL     1     -11.429  10.305  67.369  1.00  0.00     0.389 C  
HETATM   10  C   UNL     1     -12.345   9.548  69.615  1.00  0.00     0.877 A  
HETATM   11  C   UNL     1     -13.119   8.678  71.877  1.00  0.00    -0.373 C  
HETATM   12  C   UNL     1     -12.675   9.796  70.960  1.00  0.00    -0.392 A  
HETATM   13  F   UNL     1     -11.155  11.434  66.657  1.00  0.00    -0.308 F  
HETATM   14  F   UNL     1     -10.278   9.582  67.377  1.00  0.00    -0.215 F  
HETATM   15  C   UNL     1     -12.526  11.098  71.466  1.00  0.00    -0.356 A  
HETATM   16  F   UNL     1     -12.320   9.598  66.628  1.00  0.00     3.746 F  
ENDBRANCH   2   3
BRANCH   2  17
HETATM   17  O   UNL     1     -10.414  13.906  70.519  1.00  0.00     1.136 OA 
BRANCH  17  18
HETATM   18  C   UNL     1     -10.535  15.213  69.906  1.00  0.00    -0.216 C  
HETATM   19  N   UNL     1      -8.059  15.673  69.718  1.00  0.00    -0.071 NA 
HETATM   20  C   UNL     1      -9.322  15.570  68.940  1.00  0.00    -0.222 C  
HETATM   21  O   UNL     1     -10.676  16.250  70.893  1.00  0.00     0.043 OA 
HETATM   22  C   UNL     1      -9.483  16.352  71.679  1.00  0.00     6.197 C  
HETATM   23  C   UNL     1      -8.255  16.654  70.813  1.00  0.00     4.445 C  
BRANCH  19  24
HETATM   24  C   UNL     1      -6.806  15.912  68.981  1.00  0.00    -0.153 C  
BRANCH  24  25
HETATM   25  C   UNL     1      -6.825  17.131  68.076  1.00  0.00    -0.169 C  
HETATM   26  O   UNL     1      -9.746  19.959  67.554  1.00  0.00    -0.348 OA 
HETATM   27  O   UNL     1      -7.726  21.359  67.577  1.00  0.00    -0.309 OA 
HETATM   28  N   UNL     1      -5.734  17.752  67.702  1.00  0.00    -0.136 NA 
HETATM   29  O   UNL     1      -8.738  20.652  65.307  1.00  0.00     0.586 OA 
HETATM   30  C   UNL     1      -6.171  18.864  67.018  1.00  0.00    -0.185 C  
HETATM   31  O   UNL     1      -5.484  19.828  66.709  1.00  0.00    -0.167 OA 
HETATM   32  P   UNL     1      -8.409  20.214  66.691  1.00  0.00    -0.204 P  
HETATM   33  N   UNL     1      -7.535  18.808  66.895  1.00  0.00    -0.217 N  
HETATM   34  N   UNL     1      -7.993  17.668  67.588  1.00  0.00    -0.206 NA 
ENDBRANCH  24  25
ENDBRANCH  19  24
BRANCH  20  35
HETATM   35  C   UNL     1      -9.315  14.607  67.754  1.00  0.00    -0.197 A  
HETATM   36  C   UNL     1      -8.325  12.682  66.623  1.00  0.00     0.074 A  
HETATM   37  F   UNL     1      -8.897  12.251  64.375  1.00  0.00     0.520 F  
HETATM   38  C   UNL     1      -8.453  13.489  67.758  1.00  0.00    -0.184 A  
HETATM   39  C   UNL     1      -9.919  14.079  65.456  1.00  0.00    -0.302 A  
HETATM   40  C   UNL     1     -10.059  14.877  66.595  1.00  0.00    -0.264 A  
HETATM   41  C   UNL     1      -9.050  12.997  65.476  1.00  0.00     0.659 A  
ENDBRANCH  20  35
ENDBRANCH  17  18
ENDBRANCH   2  17
TORSDOF 6
ENDMDL
MODEL      312
REMARK 921   NORMALIZED FREE ENERGY PREDICTED BY IDOCK:   13.69 KCAL/MOL
REMARK 922        TOTAL FREE ENERGY PREDICTED BY IDOCK:   17.60 KCAL/MOL
REMARK 923 INTER-LIGAND FREE ENERGY PREDICTED BY IDOCK:    1.03 KCAL/MOL
REMARK 924 INTRA-LIGAND FREE ENERGY PREDICTED BY IDOCK:   16.57 KCAL/MOL
REMARK 927      BINDING AFFINITY PREDICTED BY RF-SCORE:    0.00 PKD
ROOT
HETATM    1  C   UNL     1      -8.281  14.348  66.951  1.00  0.00    -0.048 C  
HETATM    2  C   UNL     1      -9.569  15.040  67.375  1.00  0.00    -0.205 C  
ENDROOT
BRANCH   2   3
HETATM    3  C   UNL     1      -9.325  16.198  68.321  1.00  0.00    -0.205 A  
HETATM    4  F   UNL     1     -11.186  20.025  67.901  1.00  0.00    -0.281 F  
HETATM    5  F   UNL     1     -10.198  20.755  69.692  1.00  0.00    -0.012 F  
HETATM    6  C   UNL     1      -8.078  16.266  68.956  1.00  0.00    -0.236 A  
HETATM    7  C   UNL     1      -7.646  17.441  69.567  1.00  0.00     0.354 A  
HETATM    8  F   UNL     1     -11.879  19.386  69.863  1.00  0.00     4.546 F  
HETATM    9  C   UNL     1      -6.210  17.559  70.025  1.00  0.00    -0.022 C  
HETATM   10  C   UNL     1      -8.522  18.535  69.631  1.00  0.00     0.806 A  
HETATM   11  C   UNL     1     -10.758  19.644  69.136  1.00  0.00     0.697 C  
HETATM   12  C   UNL     1      -9.816  18.462  69.082  1.00  0.00    -0.192 A  
HETATM   13  F   UNL     1      -5.534  16.377  69.989  1.00  0.00    -0.143 F  
HETATM   14  F   UNL     1      -5.502  18.415  69.243  1.00  0.00    -0.189 F  
HETATM   15  C   UNL     1     -10.206  17.287  68.420  1.00  0.00    -0.358 A  
HETATM   16  F   UNL     1      -6.097  18.019  71.297  1.00  0.00     0.320 F  
ENDBRANCH   2   3
BRANCH   2  17
HETATM   17  O   UNL     1     -10.484  14.096  67.958  1.00  0.00    -0.233 OA 
BRANCH  17  18
HETATM   18  C   UNL     1     -11.465  13.583  67.025  1.00  0.00    -0.340 C  
HETATM   19  N   UNL     1      -9.879  12.110  65.723  1.00  0.00    -0.246 NA 
HETATM   20  C   UNL     1     -11.138  12.111  66.514  1.00  0.00    -0.307 C  
HETATM   21  O   UNL     1     -11.624  14.453  65.891  1.00  0.00    -0.350 OA 
HETATM   22  C   UNL     1     -10.415  14.496  65.124  1.00  0.00    -0.416 C  
HETATM   23  C   UNL     1     -10.006  13.104  64.629  1.00  0.00    -0.120 C  
BRANCH  19  24
HETATM   24  C   UNL     1      -9.365  10.818  65.237  1.00  0.00    -0.210 C  
BRANCH  24  25
HETATM   25  C   UNL     1      -8.852   9.891  66.323  1.00  0.00    -0.143 C  
HETATM   26  O   UNL     1      -5.423  10.121  68.557  1.00  0.00    -0.039 OA 
HETATM   27  O   UNL     1      -7.056   9.437  70.262  1.00  0.00    -0.069 OA 
HETATM   28  N   UNL     1      -9.647   9.163  67.067  1.00  0.00    -0.160 NA 
HETATM   29  O   UNL     1      -5.582   7.635  69.142  1.00  0.00    -0.024 OA 
HETATM   30  C   UNL     1      -8.827   8.580  68.006  1.00  0.00    -0.142 C  
HETATM   31  O   UNL     1      -9.197   8.016  69.027  1.00  0.00    -0.148 OA 
HETATM   32  P   UNL     1      -6.377   8.874  68.926  1.00  0.00    -0.045 P  
HETATM   33  N   UNL     1      -7.523   8.885  67.715  1.00  0.00    -0.092 N  
HETATM   34  N   UNL     1      -7.512   9.754  66.603  1.00  0.00    -0.094 NA 
ENDBRANCH  24  25
ENDBRANCH  19  24
BRANCH  20  35
HETATM   35  C   UNL     1     -11.204  11.138  67.690  1.00  0.00    -0.364 A  
HETATM   36  C   UNL     1     -10.946  10.720  70.082  1.00  0.00    -0.230 A  
HETATM   37  F   UNL     1     -10.883   8.493  70.860  1.00  0.00    -0.227 F  
HETATM   38  C   UNL     1     -11.036  11.612  69.009  1.00  0.00    -0.297 A  
HETATM   39  C   UNL     1     -11.197   8.862  68.553  1.00  0.00     0.369 A  
HETATM   40  C   UNL     1     -11.303   9.753  67.482  1.00  0.00     0.353 A  
HETATM   41  C   UNL     1     -11.012   9.350  69.839  1.00  0.00    -0.229 A  
ENDBRANCH  20  35
ENDBRANCH  17  18
ENDBRANCH   2  17
TORSDOF 6
ENDMDL
MODEL      313
REMARK 921   NORMALIZED FREE ENERGY PREDICTED BY IDOCK:   13.95 KCAL/MOL
REMARK 922        TOTAL FREE ENERGY PREDICTED BY IDOCK:   17.94 KCAL/MOL
REMARK 923 INTER-LIGAND FREE ENERGY PREDICTED BY IDOCK:   19.81 KCAL/MOL
REMARK 924 INTRA-LIGAND FREE ENERGY PREDICTED BY IDOCK:   -1.86 KCAL/MOL
REMARK 927      BINDING AFFINITY PREDICTED BY RF-SCORE:    0.00 PKD
ROOT
HETATM    1  C   UNL     1     -10.865  13.454  72.710  1.00  0.00     7.970 C  
HETATM    2  C   UNL     1     -11.195  13.237  71.239  1.00  0.00     2.681 C  
ENDROOT
BRANCH   2   3
HETATM    3  C   UNL     1     -11.255  11.771  70.864  1.00  0.00     1.632 A  
HETATM    4  F   UNL     1     -11.863  10.377  66.867  1.00  0.00     0.293 F  
HETATM    5  F   UNL     1     -11.719   8.309  67.516  1.00  0.00     0.787 F  
HETATM    6  C   UNL     1     -11.722  10.872  71.830  1.00  0.00     1.476 A  
HETATM    7  C   UNL     1     -12.121   9.583  71.481  1.00  0.00    -0.468 A  
HETATM    8  F   UNL     1      -9.923   9.525  67.364  1.00  0.00    -0.184 F  
HETATM    9  C   UNL     1     -12.845   8.726  72.494  1.00  0.00    -0.316 C  
HETATM   10  C   UNL     1     -11.952   9.157  70.155  1.00  0.00     0.224 A  
HETATM   11  C   UNL     1     -11.227   9.559  67.749  1.00  0.00     0.218 C  
HETATM   12  C   UNL     1     -11.398  10.010  69.183  1.00  0.00    -0.146 A  
HETATM   13  F   UNL     1     -12.827   9.248  73.753  1.00  0.00     1.410 F  
HETATM   14  F   UNL     1     -14.157   8.572  72.175  1.00  0.00    -0.392 F  
HETATM   15  C   UNL     1     -11.058  11.323  69.548  1.00  0.00    -0.299 A  
HETATM   16  F   UNL     1     -12.325   7.476  72.596  1.00  0.00    -0.209 F  
ENDBRANCH   2   3
BRANCH   2  17
HETATM   17  O   UNL     1     -10.258  13.935  70.401  1.00  0.00     1.328 OA 
BRANCH  17  18
HETATM   18  C   UNL     1     -10.858  14.986  69.605  1.00  0.00    -0.271 C  
HETATM   19  N   UNL     1      -8.693  16.029  68.829  1.00  0.00    -0.209 NA 
HETATM   20  C   UNL     1      -9.966  15.420  68.360  1.00  0.00    -0.215 C  
HETATM   21  O   UNL     1     -11.158  16.146  70.400  1.00  0.00    -0.353 OA 
HETATM   22  C   UNL     1      -9.950  16.738  70.891  1.00  0.00     2.640 C  
HETATM   23  C   UNL     1      -9.012  17.147  69.749  1.00  0.00     1.085 C  
BRANCH  19  24
HETATM   24  C   UNL     1      -7.694  16.416  67.817  1.00  0.00    -0.149 C  
BRANCH  24  25
HETATM   25  C   UNL     1      -8.130  17.536  66.891  1.00  0.00    -0.227 C  
HETATM   26  O   UNL     1     -11.720  19.502  66.669  1.00  0.00     0.635 OA 
HETATM   27  O   UNL     1     -10.139  21.365  66.399  1.00  0.00     1.314 OA 
HETATM   28  N   UNL     1      -7.286  18.389  66.365  1.00  0.00    -0.233 NA 
HETATM   29  O   UNL     1     -11.191  20.297  64.295  1.00  0.00     0.839 OA 
HETATM   30  C   UNL     1      -8.071  19.314  65.714  1.00  0.00     0.047 C  
HETATM   31  O   UNL     1      -7.695  20.401  65.295  1.00  0.00    -0.041 OA 
HETATM   32  P   UNL     1     -10.602  20.036  65.637  1.00  0.00     0.200 P  
HETATM   33  N   UNL     1      -9.379  18.910  65.765  1.00  0.00     0.183 N  
HETATM   34  N   UNL     1      -9.445  17.733  66.541  1.00  0.00    -0.286 NA 
ENDBRANCH  24  25
ENDBRANCH  19  24
BRANCH  20  35
HETATM   35  C   UNL     1      -9.843  14.248  67.389  1.00  0.00    -0.235 A  
HETATM   36  C   UNL     1      -8.518  12.410  66.478  1.00  0.00     0.052 A  
HETATM   37  F   UNL     1      -9.217  11.368  64.479  1.00  0.00    -0.203 F  
HETATM   38  C   UNL     1      -8.721  13.394  67.450  1.00  0.00    -0.209 A  
HETATM   39  C   UNL     1     -10.553  13.096  65.365  1.00  0.00    -0.311 A  
HETATM   40  C   UNL     1     -10.765  14.070  66.345  1.00  0.00    -0.278 A  
HETATM   41  C   UNL     1      -9.432  12.282  65.434  1.00  0.00     0.028 A  
ENDBRANCH  20  35
ENDBRANCH  17  18
ENDBRANCH   2  17
TORSDOF 6
ENDMDL
MODEL      314
REMARK 921   NORMALIZED FREE ENERGY PREDICTED BY IDOCK:   14.44 KCAL/MOL
REMARK 922        TOTAL FREE ENERGY PREDICTED BY IDOCK:   18.60 KCAL/MOL
REMARK 923 INTER-LIGAND FREE ENERGY PREDICTED BY IDOCK:    3.65 KCAL/MOL
REMARK 924 INTRA-LIGAND FREE ENERGY PREDICTED BY IDOCK:   14.95 KCAL/MOL
REMARK 927      BINDING AFFINITY PREDICTED BY RF-SCORE:    0.00 PKD
ROOT
HETATM    1  C   UNL     1      -6.152  10.924  65.028  1.00  0.00     0.172 C  
HETATM    2  C   UNL     1      -7.481  10.513  65.649  1.00  0.00    -0.129 C  
ENDROOT
BRANCH   2   3
HETATM    3  C   UNL     1      -7.503   9.057  66.069  1.00  0.00    -0.094 A  
HETATM    4  F   UNL     1      -6.188   7.683  69.899  1.00  0.00    -0.026 F  
HETATM    5  F   UNL     1      -6.700   5.634  69.392  1.00  0.00    -0.049 F  
HETATM    6  C   UNL     1      -7.362   8.090  65.067  1.00  0.00    -0.079 A  
HETATM    7  C   UNL     1      -7.041   6.771  65.380  1.00  0.00    -0.064 A  
HETATM    8  F   UNL     1      -8.272   7.057  69.873  1.00  0.00    -0.120 F  
HETATM    9  C   UNL     1      -6.657   5.814  64.274  1.00  0.00    -0.041 C  
HETATM   10  C   UNL     1      -6.960   6.394  66.729  1.00  0.00    -0.067 A  
HETATM   11  C   UNL     1      -7.089   6.928  69.214  1.00  0.00    -0.084 C  
HETATM   12  C   UNL     1      -7.189   7.327  67.758  1.00  0.00    -0.091 A  
HETATM   13  F   UNL     1      -6.893   6.308  63.027  1.00  0.00    -0.037 F  
HETATM   14  F   UNL     1      -5.332   5.512  64.309  1.00  0.00    -0.012 F  
HETATM   15  C   UNL     1      -7.453   8.663  67.416  1.00  0.00    -0.089 A  
HETATM   16  F   UNL     1      -7.322   4.632  64.345  1.00  0.00    -0.061 F  
ENDBRANCH   2   3
BRANCH   2  17
HETATM   17  O   UNL     1      -8.569  10.796  64.754  1.00  0.00    -0.161 OA 
BRANCH  17  18
HETATM   18  C   UNL     1      -9.833  11.019  65.425  1.00  0.00    -0.251 C  
HETATM   19  N   UNL     1      -8.895  11.161  67.765  1.00  0.00    -0.133 NA 
HETATM   20  C   UNL     1      -9.698  11.892  66.749  1.00  0.00    -0.204 C  
HETATM   21  O   UNL     1     -10.491   9.780  65.739  1.00  0.00    -0.132 OA 
HETATM   22  C   UNL     1      -9.724   9.039  66.696  1.00  0.00    -0.230 C  
HETATM   23  C   UNL     1      -9.511   9.831  67.991  1.00  0.00    -0.131 C  
BRANCH  19  24
HETATM   24  C   UNL     1      -8.587  11.848  69.032  1.00  0.00     0.291 C  
BRANCH  24  25
HETATM   25  C   UNL     1      -8.207  10.926  70.177  1.00  0.00     1.243 C  
HETATM   26  O   UNL     1      -9.815   7.321  71.279  1.00  0.00    -0.180 OA 
HETATM   27  O   UNL     1      -7.414   6.880  71.568  1.00  0.00    -0.084 OA 
HETATM   28  N   UNL     1      -6.999  10.885  70.681  1.00  0.00     0.080 NA 
HETATM   29  O   UNL     1      -8.824   7.545  73.628  1.00  0.00    -0.176 OA 
HETATM   30  C   UNL     1      -7.024   9.847  71.586  1.00  0.00     0.965 C  
HETATM   31  O   UNL     1      -6.044   9.323  72.098  1.00  0.00    -0.223 OA 
HETATM   32  P   UNL     1      -8.569   7.800  72.184  1.00  0.00    -0.154 P  
HETATM   33  N   UNL     1      -8.304   9.370  71.688  1.00  0.00     0.433 N  
HETATM   34  N   UNL     1      -9.109  10.069  70.763  1.00  0.00     0.238 NA 
ENDBRANCH  24  25
ENDBRANCH  19  24
BRANCH  20  35
HETATM   35  C   UNL     1      -9.222  13.297  66.386  1.00  0.00    -0.133 A  
HETATM   36  C   UNL     1      -7.391  14.898  66.165  1.00  0.00     2.987 A  
HETATM   37  F   UNL     1      -7.892  17.188  65.896  1.00  0.00    -0.330 F  
HETATM   38  C   UNL     1      -7.841  13.586  66.349  1.00  0.00     1.325 A  
HETATM   39  C   UNL     1      -9.683  15.663  66.042  1.00  0.00    -0.378 A  
HETATM   40  C   UNL     1     -10.133  14.350  66.210  1.00  0.00    -0.308 A  
HETATM   41  C   UNL     1      -8.320  15.926  66.029  1.00  0.00     0.170 A  
ENDBRANCH  20  35
ENDBRANCH  17  18
ENDBRANCH   2  17
TORSDOF 6
ENDMDL
MODEL      315
REMARK 921   NORMALIZED FREE ENERGY PREDICTED BY IDOCK:   14.69 KCAL/MOL
REMARK 922        TOTAL FREE ENERGY PREDICTED BY IDOCK:   18.94 KCAL/MOL
REMARK 923 INTER-LIGAND FREE ENERGY PREDICTED BY IDOCK:   -6.19 KCAL/MOL
REMARK 924 INTRA-LIGAND FREE ENERGY PREDICTED BY IDOCK:   25.12 KCAL/MOL
REMARK 927      BINDING AFFINITY PREDICTED BY RF-SCORE:    0.00 PKD
ROOT
HETATM    1  C   UNL     1      -8.912  14.224  68.149  1.00  0.00    -0.189 C  
HETATM    2  C   UNL     1     -10.383  13.845  68.038  1.00  0.00    -0.245 C  
ENDROOT
BRANCH   2   3
HETATM    3  C   UNL     1     -11.023  13.590  69.386  1.00  0.00    -0.101 A  
HETATM    4  F   UNL     1     -13.493  10.201  70.226  1.00  0.00    -0.293 F  
HETATM    5  F   UNL     1     -13.751  10.840  72.286  1.00  0.00    -0.419 F  
HETATM    6  C   UNL     1     -11.340  14.702  70.176  1.00  0.00    -0.273 A  
HETATM    7  C   UNL     1     -12.213  14.593  71.256  1.00  0.00    -0.410 A  
HETATM    8  F   UNL     1     -11.868   9.955  71.653  1.00  0.00    -0.421 F  
HETATM    9  C   UNL     1     -12.723  15.845  71.933  1.00  0.00    -0.424 C  
HETATM   10  C   UNL     1     -12.697  13.325  71.611  1.00  0.00    -0.327 A  
HETATM   11  C   UNL     1     -12.852  10.809  71.262  1.00  0.00    -0.438 C  
HETATM   12  C   UNL     1     -12.321  12.176  70.890  1.00  0.00    -0.370 A  
HETATM   13  F   UNL     1     -12.072  16.975  71.537  1.00  0.00     0.190 F  
HETATM   14  F   UNL     1     -14.038  16.061  71.664  1.00  0.00    -0.357 F  
HETATM   15  C   UNL     1     -11.487  12.321  69.771  1.00  0.00    -0.237 A  
HETATM   16  F   UNL     1     -12.611  15.797  73.285  1.00  0.00    -0.415 F  
ENDBRANCH   2   3
BRANCH   2  17
HETATM   17  O   UNL     1     -10.548  12.706  67.176  1.00  0.00    -0.233 OA 
BRANCH  17  18
HETATM   18  C   UNL     1      -9.984  12.887  65.854  1.00  0.00    -0.268 C  
HETATM   19  N   UNL     1     -11.162  15.060  65.336  1.00  0.00    -0.354 NA 
HETATM   20  C   UNL     1      -9.826  14.417  65.443  1.00  0.00    -0.230 C  
HETATM   21  O   UNL     1     -10.755  12.204  64.851  1.00  0.00    -0.274 OA 
HETATM   22  C   UNL     1     -12.061  12.784  64.747  1.00  0.00    -0.432 C  
HETATM   23  C   UNL     1     -11.994  14.275  64.393  1.00  0.00    -0.456 C  
BRANCH  19  24
HETATM   24  C   UNL     1     -11.216  16.504  65.048  1.00  0.00    -0.087 C  
BRANCH  24  25
HETATM   25  C   UNL     1     -11.015  17.400  66.256  1.00  0.00     0.237 C  
HETATM   26  O   UNL     1      -9.752  16.451  70.039  1.00  0.00     0.167 OA 
HETATM   27  O   UNL     1      -8.535  18.549  69.643  1.00  0.00     0.494 OA 
HETATM   28  N   UNL     1     -10.726  18.674  66.153  1.00  0.00    -0.323 NA 
HETATM   29  O   UNL     1     -10.753  18.616  70.966  1.00  0.00     1.777 OA 
HETATM   30  C   UNL     1     -10.489  19.094  67.443  1.00  0.00    -0.458 C  
HETATM   31  O   UNL     1      -9.961  20.150  67.764  1.00  0.00    -0.389 OA 
HETATM   32  P   UNL     1     -10.037  18.021  69.805  1.00  0.00     1.162 P  
HETATM   33  N   UNL     1     -10.770  18.069  68.308  1.00  0.00    -0.273 N  
HETATM   34  N   UNL     1     -11.120  16.934  67.546  1.00  0.00    -0.105 NA 
ENDBRANCH  24  25
ENDBRANCH  19  24
BRANCH  20  35
HETATM   35  C   UNL     1      -8.816  15.091  66.369  1.00  0.00    -0.238 A  
HETATM   36  C   UNL     1      -7.288  14.942  68.268  1.00  0.00    -0.109 A  
HETATM   37  F   UNL     1      -6.444  16.928  69.224  1.00  0.00    -0.177 F  
HETATM   38  C   UNL     1      -8.104  14.324  67.315  1.00  0.00    -0.199 A  
HETATM   39  C   UNL     1      -7.866  17.106  67.352  1.00  0.00    -0.191 A  
HETATM   40  C   UNL     1      -8.669  16.487  66.389  1.00  0.00    -0.357 A  
HETATM   41  C   UNL     1      -7.191  16.332  68.285  1.00  0.00    -0.141 A  
ENDBRANCH  20  35
ENDBRANCH  17  18
ENDBRANCH   2  17
TORSDOF 6
ENDMDL
MODEL      316
REMARK 921   NORMALIZED FREE ENERGY PREDICTED BY IDOCK:   15.26 KCAL/MOL
REMARK 922        TOTAL FREE ENERGY PREDICTED BY IDOCK:   19.71 KCAL/MOL
REMARK 923 INTER-LIGAND FREE ENERGY PREDICTED BY IDOCK:   11.06 KCAL/MOL
REMARK 924 INTRA-LIGAND FREE ENERGY PREDICTED BY IDOCK:    8.65 KCAL/MOL
REMARK 927      BINDING AFFINITY PREDICTED BY RF-SCORE:    0.00 PKD
ROOT
HETATM    1  C   UNL     1      -8.684  14.547  70.920  1.00  0.00     3.220 C  
HETATM    2  C   UNL     1      -8.646  14.136  69.454  1.00  0.00     0.487 C  
ENDROOT
BRANCH   2   3
HETATM    3  C   UNL     1     -10.002  13.706  68.934  1.00  0.00    -0.014 A  
HETATM    4  F   UNL     1     -12.151  15.823  65.903  1.00  0.00     0.388 F  
HETATM    5  F   UNL     1     -13.761  14.367  65.960  1.00  0.00     0.290 F  
HETATM    6  C   UNL     1     -10.844  13.009  69.810  1.00  0.00     0.409 A  
HETATM    7  C   UNL     1     -12.204  12.869  69.543  1.00  0.00    -0.177 A  
HETATM    8  F   UNL     1     -11.879  13.865  64.994  1.00  0.00    -0.326 F  
HETATM    9  C   UNL     1     -13.123  12.331  70.616  1.00  0.00     0.377 C  
HETATM   10  C   UNL     1     -12.708  13.347  68.324  1.00  0.00     1.058 A  
HETATM   11  C   UNL     1     -12.409  14.499  66.075  1.00  0.00    -0.217 C  
HETATM   12  C   UNL     1     -11.866  13.969  67.383  1.00  0.00    -0.445 A  
HETATM   13  F   UNL     1     -12.458  11.816  71.687  1.00  0.00    -0.366 F  
HETATM   14  F   UNL     1     -13.934  13.300  71.113  1.00  0.00    -0.021 F  
HETATM   15  C   UNL     1     -10.511  14.151  67.703  1.00  0.00    -0.245 A  
HETATM   16  F   UNL     1     -13.938  11.342  70.166  1.00  0.00     1.297 F  
ENDBRANCH   2   3
BRANCH   2  17
HETATM   17  O   UNL     1      -7.672  13.100  69.243  1.00  0.00     0.211 OA 
BRANCH  17  18
HETATM   18  C   UNL     1      -7.330  12.896  67.850  1.00  0.00    -0.127 C  
HETATM   19  N   UNL     1      -7.046  10.390  67.988  1.00  0.00    -0.081 NA 
HETATM   20  C   UNL     1      -7.785  11.476  67.292  1.00  0.00    -0.150 C  
HETATM   21  O   UNL     1      -5.921  13.066  67.621  1.00  0.00    -0.138 OA 
HETATM   22  C   UNL     1      -5.180  12.049  68.306  1.00  0.00    -0.048 C  
HETATM   23  C   UNL     1      -5.591  10.644  67.853  1.00  0.00    -0.043 C  
BRANCH  19  24
HETATM   24  C   UNL     1      -7.395   8.996  67.667  1.00  0.00    -0.084 C  
BRANCH  24  25
HETATM   25  C   UNL     1      -7.121   8.001  68.780  1.00  0.00    -0.071 C  
HETATM   26  O   UNL     1      -9.268   4.704  69.930  1.00  0.00    -0.106 OA 
HETATM   27  O   UNL     1      -6.968   3.851  70.083  1.00  0.00    -0.040 OA 
HETATM   28  N   UNL     1      -5.914   7.742  69.217  1.00  0.00    -0.033 NA 
HETATM   29  O   UNL     1      -8.134   4.707  72.223  1.00  0.00    -0.098 OA 
HETATM   30  C   UNL     1      -6.071   6.706  70.111  1.00  0.00    -0.027 C  
HETATM   31  O   UNL     1      -5.171   6.011  70.563  1.00  0.00    -0.012 OA 
HETATM   32  P   UNL     1      -7.914   4.944  70.771  1.00  0.00    -0.085 P  
HETATM   33  N   UNL     1      -7.407   6.454  70.277  1.00  0.00    -0.086 N  
HETATM   34  N   UNL     1      -8.126   7.300  69.405  1.00  0.00    -0.128 NA 
ENDBRANCH  24  25
ENDBRANCH  19  24
BRANCH  20  35
HETATM   35  C   UNL     1      -9.309  11.385  67.313  1.00  0.00    -0.173 A  
HETATM   36  C   UNL     1     -11.353  10.706  68.464  1.00  0.00    -0.348 A  
HETATM   37  F   UNL     1     -13.384  10.652  67.266  1.00  0.00     6.000 F  
HETATM   38  C   UNL     1      -9.974  10.937  68.474  1.00  0.00    -0.188 A  
HETATM   39  C   UNL     1     -11.443  11.373  66.141  1.00  0.00    -0.002 A  
HETATM   40  C   UNL     1     -10.067  11.619  66.154  1.00  0.00    -0.259 A  
HETATM   41  C   UNL     1     -12.071  10.913  67.289  1.00  0.00     1.459 A  
ENDBRANCH  20  35
ENDBRANCH  17  18
ENDBRANCH   2  17
TORSDOF 6
ENDMDL
MODEL      317
REMARK 921   NORMALIZED FREE ENERGY PREDICTED BY IDOCK:   15.42 KCAL/MOL
REMARK 922        TOTAL FREE ENERGY PREDICTED BY IDOCK:   19.93 KCAL/MOL
REMARK 923 INTER-LIGAND FREE ENERGY PREDICTED BY IDOCK:   19.56 KCAL/MOL
REMARK 924 INTRA-LIGAND FREE ENERGY PREDICTED BY IDOCK:    0.36 KCAL/MOL
REMARK 927      BINDING AFFINITY PREDICTED BY RF-SCORE:    0.00 PKD
ROOT
HETATM    1  C   UNL     1      -7.626  12.752  69.321  1.00  0.00     0.386 C  
HETATM    2  C   UNL     1      -8.512  13.006  68.109  1.00  0.00    -0.176 C  
ENDROOT
BRANCH   2   3
HETATM    3  C   UNL     1      -9.944  13.323  68.489  1.00  0.00    -0.189 A  
HETATM    4  F   UNL     1     -12.839  14.839  65.731  1.00  0.00    -0.195 F  
HETATM    5  F   UNL     1     -14.371  14.846  67.271  1.00  0.00     6.809 F  
HETATM    6  C   UNL     1     -10.194  13.716  69.810  1.00  0.00     0.894 A  
HETATM    7  C   UNL     1     -11.390  14.336  70.162  1.00  0.00    -0.187 A  
HETATM    8  F   UNL     1     -13.746  12.968  66.371  1.00  0.00     2.096 F  
HETATM    9  C   UNL     1     -11.530  14.964  71.530  1.00  0.00    -0.247 C  
HETATM   10  C   UNL     1     -12.395  14.473  69.191  1.00  0.00    -0.152 A  
HETATM   11  C   UNL     1     -13.279  14.162  66.826  1.00  0.00     2.031 C  
HETATM   12  C   UNL     1     -12.204  14.003  67.878  1.00  0.00    -0.188 A  
HETATM   13  F   UNL     1     -10.512  14.645  72.376  1.00  0.00     0.778 F  
HETATM   14  F   UNL     1     -11.544  16.321  71.460  1.00  0.00    -0.437 F  
HETATM   15  C   UNL     1     -10.968  13.435  67.534  1.00  0.00    -0.284 A  
HETATM   16  F   UNL     1     -12.676  14.600  72.163  1.00  0.00    -0.342 F  
ENDBRANCH   2   3
BRANCH   2  17
HETATM   17  O   UNL     1      -8.466  11.889  67.204  1.00  0.00    -0.160 OA 
BRANCH  17  18
HETATM   18  C   UNL     1      -7.473  12.028  66.158  1.00  0.00     0.735 C  
HETATM   19  N   UNL     1      -6.717   9.618  66.160  1.00  0.00    -0.081 NA 
HETATM   20  C   UNL     1      -7.271  10.700  65.303  1.00  0.00     0.024 C  
HETATM   21  O   UNL     1      -6.204  12.451  66.684  1.00  0.00    -0.086 OA 
HETATM   22  C   UNL     1      -5.659  11.438  67.539  1.00  0.00    -0.056 C  
HETATM   23  C   UNL     1      -5.472  10.109  66.799  1.00  0.00    -0.045 C  
BRANCH  19  24
HETATM   24  C   UNL     1      -6.541   8.282  65.564  1.00  0.00    -0.049 C  
BRANCH  24  25
HETATM   25  C   UNL     1      -7.593   7.265  65.967  1.00  0.00    -0.089 C  
HETATM   26  O   UNL     1      -7.257   3.212  66.477  1.00  0.00    -0.060 OA 
HETATM   27  O   UNL     1      -8.675   3.817  68.392  1.00  0.00    -0.092 OA 
HETATM   28  N   UNL     1      -8.635   7.575  66.698  1.00  0.00    -0.125 NA 
HETATM   29  O   UNL     1      -9.788   2.925  66.237  1.00  0.00     0.184 OA 
HETATM   30  C   UNL     1      -9.261   6.377  66.957  1.00  0.00    -0.129 C  
HETATM   31  O   UNL     1     -10.132   6.193  67.797  1.00  0.00    -0.128 OA 
HETATM   32  P   UNL     1      -8.723   3.804  66.792  1.00  0.00    -0.135 P  
HETATM   33  N   UNL     1      -8.633   5.381  66.256  1.00  0.00    -0.119 N  
HETATM   34  N   UNL     1      -7.523   5.944  65.591  1.00  0.00    -0.079 NA 
ENDBRANCH  24  25
ENDBRANCH  19  24
BRANCH  20  35
HETATM   35  C   UNL     1      -8.559  10.379  64.548  1.00  0.00    -0.187 A  
HETATM   36  C   UNL     1      -9.953  10.667  62.565  1.00  0.00     0.049 A  
HETATM   37  F   UNL     1     -12.206   9.967  62.630  1.00  0.00     3.344 F  
HETATM   38  C   UNL     1      -8.727  10.822  63.219  1.00  0.00    -0.143 A  
HETATM   39  C   UNL     1     -10.871   9.616  64.540  1.00  0.00     3.413 A  
HETATM   40  C   UNL     1      -9.641   9.756  65.190  1.00  0.00    -0.356 A  
HETATM   41  C   UNL     1     -11.019  10.078  63.240  1.00  0.00     3.335 A  
ENDBRANCH  20  35
ENDBRANCH  17  18
ENDBRANCH   2  17
TORSDOF 6
ENDMDL
MODEL      318
REMARK 921   NORMALIZED FREE ENERGY PREDICTED BY IDOCK:   17.12 KCAL/MOL
REMARK 922        TOTAL FREE ENERGY PREDICTED BY IDOCK:   22.22 KCAL/MOL
REMARK 923 INTER-LIGAND FREE ENERGY PREDICTED BY IDOCK:    9.83 KCAL/MOL
REMARK 924 INTRA-LIGAND FREE ENERGY PREDICTED BY IDOCK:   12.40 KCAL/MOL
REMARK 927      BINDING AFFINITY PREDICTED BY RF-SCORE:    0.00 PKD
ROOT
HETATM    1  C   UNL     1      -7.842  13.860  66.752  1.00  0.00     0.487 C  
HETATM    2  C   UNL     1      -8.073  15.294  67.211  1.00  0.00    -0.201 C  
ENDROOT
BRANCH   2   3
HETATM    3  C   UNL     1      -7.260  15.652  68.439  1.00  0.00    -0.115 A  
HETATM    4  F   UNL     1      -7.275  13.341  72.037  1.00  0.00     3.602 F  
HETATM    5  F   UNL     1      -5.836  14.682  72.959  1.00  0.00    -0.043 F  
HETATM    6  C   UNL     1      -6.985  17.007  68.664  1.00  0.00    -0.202 A  
HETATM    7  C   UNL     1      -6.546  17.455  69.908  1.00  0.00     0.164 A  
HETATM    8  F   UNL     1      -5.182  13.264  71.446  1.00  0.00    -0.131 F  
HETATM    9  C   UNL     1      -6.494  18.939  70.190  1.00  0.00     0.090 C  
HETATM   10  C   UNL     1      -6.282  16.513  70.913  1.00  0.00     1.039 A  
HETATM   11  C   UNL     1      -6.191  14.118  71.770  1.00  0.00     0.479 C  
HETATM   12  C   UNL     1      -6.461  15.136  70.683  1.00  0.00     0.176 A  
HETATM   13  F   UNL     1      -6.677  19.706  69.079  1.00  0.00    -0.311 F  
HETATM   14  F   UNL     1      -7.462  19.318  71.065  1.00  0.00     1.150 F  
HETATM   15  C   UNL     1      -6.961  14.715  69.440  1.00  0.00    -0.163 A  
HETATM   16  F   UNL     1      -5.312  19.332  70.731  1.00  0.00    -0.187 F  
ENDBRANCH   2   3
BRANCH   2  17
HETATM   17  O   UNL     1      -9.471  15.534  67.443  1.00  0.00    -0.209 OA 
BRANCH  17  18
HETATM   18  C   UNL     1     -10.324  14.430  67.052  1.00  0.00    -0.263 C  
HETATM   19  N   UNL     1      -9.185  12.673  68.464  1.00  0.00    -0.126 NA 
HETATM   20  C   UNL     1     -10.491  13.330  68.190  1.00  0.00    -0.245 C  
HETATM   21  O   UNL     1      -9.856  13.799  65.848  1.00  0.00    -0.298 OA 
HETATM   22  C   UNL     1      -8.583  13.182  66.074  1.00  0.00     0.866 C  
HETATM   23  C   UNL     1      -8.649  12.134  67.191  1.00  0.00    -0.185 C  
BRANCH  19  24
HETATM   24  C   UNL     1      -9.120  11.683  69.552  1.00  0.00     1.035 C  
BRANCH  24  25
HETATM   25  C   UNL     1      -9.743  10.338  69.224  1.00  0.00    -0.225 C  
HETATM   26  O   UNL     1     -10.855   8.782  65.599  1.00  0.00     1.758 OA 
HETATM   27  O   UNL     1      -9.825   6.820  66.664  1.00  0.00    -0.178 OA 
HETATM   28  N   UNL     1      -9.561   9.274  69.966  1.00  0.00    -0.194 NA 
HETATM   29  O   UNL     1     -12.393   7.089  66.745  1.00  0.00     3.227 OA 
HETATM   30  C   UNL     1     -10.161   8.246  69.273  1.00  0.00    -0.199 C  
HETATM   31  O   UNL     1     -10.016   7.052  69.498  1.00  0.00    -0.159 OA 
HETATM   32  P   UNL     1     -11.085   7.790  66.849  1.00  0.00     1.456 P  
HETATM   33  N   UNL     1     -10.804   8.759  68.177  1.00  0.00    -0.057 N  
HETATM   34  N   UNL     1     -10.542  10.145  68.122  1.00  0.00    -0.207 NA 
ENDBRANCH  24  25
ENDBRANCH  19  24
BRANCH  20  35
HETATM   35  C   UNL     1     -11.209  13.944  69.390  1.00  0.00    -0.273 A  
HETATM   36  C   UNL     1     -13.276  14.288  70.644  1.00  0.00    -0.172 A  
HETATM   37  F   UNL     1     -13.341  15.945  72.322  1.00  0.00    -0.480 F  
HETATM   38  C   UNL     1     -12.561  13.625  69.642  1.00  0.00     0.014 A  
HETATM   39  C   UNL     1     -11.312  15.596  71.176  1.00  0.00    -0.446 A  
HETATM   40  C   UNL     1     -10.591  14.923  70.184  1.00  0.00    -0.070 A  
HETATM   41  C   UNL     1     -12.646  15.280  71.391  1.00  0.00    -0.375 A  
ENDBRANCH  20  35
ENDBRANCH  17  18
ENDBRANCH   2  17
TORSDOF 6
ENDMDL
MODEL      319
REMARK 921   NORMALIZED FREE ENERGY PREDICTED BY IDOCK:   17.64 KCAL/MOL
REMARK 922        TOTAL FREE ENERGY PREDICTED BY IDOCK:   22.92 KCAL/MOL
REMARK 923 INTER-LIGAND FREE ENERGY PREDICTED BY IDOCK:   13.50 KCAL/MOL
REMARK 924 INTRA-LIGAND FREE ENERGY PREDICTED BY IDOCK:    9.42 KCAL/MOL
REMARK 927      BINDING AFFINITY PREDICTED BY RF-SCORE:    0.00 PKD
ROOT
HETATM    1  C   UNL     1      -8.316  14.318  66.983  1.00  0.00    -0.156 C  
HETATM    2  C   UNL     1      -9.753  14.654  67.358  1.00  0.00    -0.218 C  
ENDROOT
BRANCH   2   3
HETATM    3  C   UNL     1      -9.843  15.603  68.535  1.00  0.00    -0.205 A  
HETATM    4  F   UNL     1      -6.429  17.355  70.422  1.00  0.00     0.016 F  
HETATM    5  F   UNL     1      -7.696  18.455  71.801  1.00  0.00     5.494 F  
HETATM    6  C   UNL     1     -10.931  15.458  69.405  1.00  0.00    -0.276 A  
HETATM    7  C   UNL     1     -10.924  16.045  70.668  1.00  0.00    -0.273 A  
HETATM    8  F   UNL     1      -7.524  19.104  69.733  1.00  0.00    -0.161 F  
HETATM    9  C   UNL     1     -11.994  15.672  71.670  1.00  0.00    -0.430 C  
HETATM   10  C   UNL     1      -9.851  16.877  71.025  1.00  0.00     3.530 A  
HETATM   11  C   UNL     1      -7.624  17.998  70.519  1.00  0.00     3.209 C  
HETATM   12  C   UNL     1      -8.789  17.114  70.133  1.00  0.00     2.339 A  
HETATM   13  F   UNL     1     -13.010  14.945  71.127  1.00  0.00    -0.332 F  
HETATM   14  F   UNL     1     -11.492  14.914  72.680  1.00  0.00    -0.423 F  
HETATM   15  C   UNL     1      -8.791  16.463  68.888  1.00  0.00    -0.256 A  
HETATM   16  F   UNL     1     -12.572  16.753  72.252  1.00  0.00    -0.161 F  
ENDBRANCH   2   3
BRANCH   2  17
HETATM   17  O   UNL     1     -10.503  13.455  67.618  1.00  0.00    -0.236 OA 
BRANCH  17  18
HETATM   18  C   UNL     1     -11.261  12.983  66.477  1.00  0.00    -0.302 C  
HETATM   19  N   UNL     1      -9.294  12.075  65.180  1.00  0.00     0.017 NA 
HETATM   20  C   UNL     1     -10.610  11.714  65.771  1.00  0.00    -0.271 C  
HETATM   21  O   UNL     1     -11.454  14.022  65.502  1.00  0.00    -0.308 OA 
HETATM   22  C   UNL     1     -10.197  14.411  64.937  1.00  0.00    -0.324 C  
HETATM   23  C   UNL     1      -9.482  13.230  64.270  1.00  0.00     1.256 C  
BRANCH  19  24
HETATM   24  C   UNL     1      -8.497  11.005  64.555  1.00  0.00     0.194 C  
BRANCH  24  25
HETATM   25  C   UNL     1      -8.128   9.863  65.485  1.00  0.00    -0.127 C  
HETATM   26  O   UNL     1      -5.302   9.708  68.449  1.00  0.00    -0.034 OA 
HETATM   27  O   UNL     1      -7.176   8.529  69.516  1.00  0.00    -0.058 OA 
HETATM   28  N   UNL     1      -8.979   8.929  65.830  1.00  0.00    -0.187 NA 
HETATM   29  O   UNL     1      -5.307   7.150  68.384  1.00  0.00    -0.019 OA 
HETATM   30  C   UNL     1      -8.318   8.173  66.774  1.00  0.00    -0.115 C  
HETATM   31  O   UNL     1      -8.834   7.351  67.519  1.00  0.00    -0.127 OA 
HETATM   32  P   UNL     1      -6.169   8.359  68.284  1.00  0.00    -0.052 P  
HETATM   33  N   UNL     1      -7.025   8.612  66.875  1.00  0.00    -0.076 N  
HETATM   34  N   UNL     1      -6.872   9.733  66.030  1.00  0.00    -0.091 NA 
ENDBRANCH  24  25
ENDBRANCH  19  24
BRANCH  20  35
HETATM   35  C   UNL     1     -10.623  10.531  66.736  1.00  0.00    -0.284 A  
HETATM   36  C   UNL     1     -11.534   8.357  67.376  1.00  0.00     1.601 A  
HETATM   37  F   UNL     1     -11.085   7.512  69.533  1.00  0.00    -0.238 F  
HETATM   38  C   UNL     1     -11.392   9.385  66.439  1.00  0.00     1.786 A  
HETATM   39  C   UNL     1     -10.137   9.583  68.926  1.00  0.00    -0.199 A  
HETATM   40  C   UNL     1      -9.983  10.604  67.983  1.00  0.00    -0.180 A  
HETATM   41  C   UNL     1     -10.915   8.476  68.619  1.00  0.00     0.181 A  
ENDBRANCH  20  35
ENDBRANCH  17  18
ENDBRANCH   2  17
TORSDOF 6
ENDMDL
MODEL      320
REMARK 921   NORMALIZED FREE ENERGY PREDICTED BY IDOCK:   17.65 KCAL/MOL
REMARK 922        TOTAL FREE ENERGY PREDICTED BY IDOCK:   22.94 KCAL/MOL
REMARK 923 INTER-LIGAND FREE ENERGY PREDICTED BY IDOCK:   13.43 KCAL/MOL
REMARK 924 INTRA-LIGAND FREE ENERGY PREDICTED BY IDOCK:    9.50 KCAL/MOL
REMARK 927      BINDING AFFINITY PREDICTED BY RF-SCORE:    0.00 PKD
ROOT
HETATM    1  C   UNL     1      -8.316  14.318  66.983  1.00  0.00    -0.156 C  
HETATM    2  C   UNL     1      -9.756  14.651  67.350  1.00  0.00    -0.218 C  
ENDROOT
BRANCH   2   3
HETATM    3  C   UNL     1      -9.854  15.601  68.526  1.00  0.00    -0.205 A  
HETATM    4  F   UNL     1     -13.558  16.778  70.309  1.00  0.00     2.935 F  
HETATM    5  F   UNL     1     -12.518  17.991  71.781  1.00  0.00     5.003 F  
HETATM    6  C   UNL     1      -8.852  16.570  68.663  1.00  0.00    -0.237 A  
HETATM    7  C   UNL     1      -9.028  17.673  69.496  1.00  0.00     0.654 A  
HETATM    8  F   UNL     1     -12.526  15.824  71.971  1.00  0.00    -0.377 F  
HETATM    9  C   UNL     1      -8.040  18.817  69.436  1.00  0.00     0.249 C  
HETATM   10  C   UNL     1     -10.188  17.753  70.281  1.00  0.00     1.306 A  
HETATM   11  C   UNL     1     -12.427  16.835  71.065  1.00  0.00     2.462 C  
HETATM   12  C   UNL     1     -11.169  16.745  70.231  1.00  0.00     0.181 A  
HETATM   13  F   UNL     1      -6.925  18.529  68.708  1.00  0.00    -0.243 F  
HETATM   14  F   UNL     1      -8.585  19.920  68.860  1.00  0.00    -0.317 F  
HETATM   15  C   UNL     1     -10.995  15.673  69.340  1.00  0.00    -0.283 A  
HETATM   16  F   UNL     1      -7.603  19.201  70.663  1.00  0.00     0.900 F  
ENDBRANCH   2   3
BRANCH   2  17
HETATM   17  O   UNL     1     -10.504  13.450  67.607  1.00  0.00    -0.236 OA 
BRANCH  17  18
HETATM   18  C   UNL     1     -11.255  12.975  66.463  1.00  0.00    -0.302 C  
HETATM   19  N   UNL     1      -9.279  12.070  65.177  1.00  0.00     0.110 NA 
HETATM   20  C   UNL     1     -10.598  11.707  65.761  1.00  0.00    -0.271 C  
HETATM   21  O   UNL     1     -11.445  14.013  65.486  1.00  0.00    -0.308 OA 
HETATM   22  C   UNL     1     -10.186  14.405  64.927  1.00  0.00    -0.324 C  
HETATM   23  C   UNL     1      -9.465  13.224  64.265  1.00  0.00     1.256 C  
BRANCH  19  24
HETATM   24  C   UNL     1      -8.476  11.002  64.558  1.00  0.00     0.194 C  
BRANCH  24  25
HETATM   25  C   UNL     1      -8.109   9.862  65.490  1.00  0.00    -0.127 C  
HETATM   26  O   UNL     1      -5.298   9.717  68.469  1.00  0.00    -0.034 OA 
HETATM   27  O   UNL     1      -7.175   8.534  69.528  1.00  0.00    -0.058 OA 
HETATM   28  N   UNL     1      -8.959   8.926  65.832  1.00  0.00    -0.187 NA 
HETATM   29  O   UNL     1      -5.297   7.159  68.408  1.00  0.00    -0.019 OA 
HETATM   30  C   UNL     1      -8.302   8.173  66.780  1.00  0.00    -0.115 C  
HETATM   31  O   UNL     1      -8.820   7.351  67.524  1.00  0.00    -0.127 OA 
HETATM   32  P   UNL     1      -6.161   8.365  68.301  1.00  0.00    -0.052 P  
HETATM   33  N   UNL     1      -7.010   8.615  66.887  1.00  0.00    -0.076 N  
HETATM   34  N   UNL     1      -6.856   9.735  66.042  1.00  0.00    -0.091 NA 
ENDBRANCH  24  25
ENDBRANCH  19  24
BRANCH  20  35
HETATM   35  C   UNL     1     -10.612  10.525  66.728  1.00  0.00    -0.284 A  
HETATM   36  C   UNL     1     -11.521   8.350  67.366  1.00  0.00     1.601 A  
HETATM   37  F   UNL     1     -11.081   7.508  69.526  1.00  0.00    -0.238 F  
HETATM   38  C   UNL     1     -11.377   9.377  66.428  1.00  0.00     1.786 A  
HETATM   39  C   UNL     1     -10.136   9.581  68.921  1.00  0.00    -0.199 A  
HETATM   40  C   UNL     1      -9.979  10.601  67.978  1.00  0.00    -0.180 A  
HETATM   41  C   UNL     1     -10.910   8.471  68.611  1.00  0.00     0.060 A  
ENDBRANCH  20  35
ENDBRANCH  17  18
ENDBRANCH   2  17
TORSDOF 6
ENDMDL
MODEL      321
REMARK 921   NORMALIZED FREE ENERGY PREDICTED BY IDOCK:   19.00 KCAL/MOL
REMARK 922        TOTAL FREE ENERGY PREDICTED BY IDOCK:   24.77 KCAL/MOL
REMARK 923 INTER-LIGAND FREE ENERGY PREDICTED BY IDOCK:   12.56 KCAL/MOL
REMARK 924 INTRA-LIGAND FREE ENERGY PREDICTED BY IDOCK:   12.20 KCAL/MOL
REMARK 927      BINDING AFFINITY PREDICTED BY RF-SCORE:    0.00 PKD
ROOT
HETATM    1  C   UNL     1      -7.309  13.877  67.451  1.00  0.00    -0.129 C  
HETATM    2  C   UNL     1      -7.609  15.314  67.857  1.00  0.00    -0.139 C  
ENDROOT
BRANCH   2   3
HETATM    3  C   UNL     1      -6.930  15.708  69.153  1.00  0.00    -0.166 A  
HETATM    4  F   UNL     1      -7.281  13.471  72.780  1.00  0.00     3.295 F  
HETATM    5  F   UNL     1      -5.960  14.850  73.814  1.00  0.00    -0.014 F  
HETATM    6  C   UNL     1      -6.696  17.071  69.375  1.00  0.00    -0.208 A  
HETATM    7  C   UNL     1      -6.391  17.550  70.647  1.00  0.00     1.041 A  
HETATM    8  F   UNL     1      -5.138  13.412  72.406  1.00  0.00    -0.143 F  
HETATM    9  C   UNL     1      -6.385  19.041  70.901  1.00  0.00     0.559 C  
HETATM   10  C   UNL     1      -6.218  16.632  71.694  1.00  0.00     2.415 A  
HETATM   11  C   UNL     1      -6.185  14.258  72.607  1.00  0.00     0.890 C  
HETATM   12  C   UNL     1      -6.356  15.249  71.478  1.00  0.00     0.992 A  
HETATM   13  F   UNL     1      -6.464  19.782  69.761  1.00  0.00    -0.330 F  
HETATM   14  F   UNL     1      -7.442  19.423  71.666  1.00  0.00     1.702 F  
HETATM   15  C   UNL     1      -6.722  14.796  70.200  1.00  0.00    -0.114 A  
HETATM   16  F   UNL     1      -5.269  19.462  71.550  1.00  0.00    -0.241 F  
ENDBRANCH   2   3
BRANCH   2  17
HETATM   17  O   UNL     1      -9.028  15.531  67.944  1.00  0.00    -0.172 OA 
BRANCH  17  18
HETATM   18  C   UNL     1      -9.818  14.377  67.565  1.00  0.00    -0.220 C  
HETATM   19  N   UNL     1      -8.859  12.795  69.284  1.00  0.00     0.777 NA 
HETATM   20  C   UNL     1     -10.123  13.396  68.781  1.00  0.00    -0.085 C  
HETATM   21  O   UNL     1      -9.196  13.636  66.501  1.00  0.00    -0.248 OA 
HETATM   22  C   UNL     1      -7.959  13.068  66.949  1.00  0.00     0.107 C  
HETATM   23  C   UNL     1      -8.162  12.139  68.152  1.00  0.00    -0.164 C  
BRANCH  19  24
HETATM   24  C   UNL     1      -8.929  11.922  70.468  1.00  0.00     5.874 C  
BRANCH  24  25
HETATM   25  C   UNL     1      -9.442  10.520  70.194  1.00  0.00     0.576 C  
HETATM   26  O   UNL     1      -9.052   7.106  72.428  1.00  0.00    -0.131 OA 
HETATM   27  O   UNL     1     -11.391   6.930  71.695  1.00  0.00    -0.243 OA 
HETATM   28  N   UNL     1     -10.507  10.285  69.469  1.00  0.00    -0.229 NA 
HETATM   29  O   UNL     1      -9.566   5.654  70.385  1.00  0.00    -0.160 OA 
HETATM   30  C   UNL     1     -10.720   8.929  69.572  1.00  0.00    -0.199 C  
HETATM   31  O   UNL     1     -11.739   8.338  69.241  1.00  0.00     0.681 OA 
HETATM   32  P   UNL     1      -9.914   6.924  71.078  1.00  0.00    -0.187 P  
HETATM   33  N   UNL     1      -9.684   8.364  70.268  1.00  0.00    -0.171 N  
HETATM   34  N   UNL     1      -8.823   9.398  70.692  1.00  0.00    -0.238 NA 
ENDBRANCH  24  25
ENDBRANCH  19  24
BRANCH  20  35
HETATM   35  C   UNL     1     -10.992  14.115  69.810  1.00  0.00    -0.068 A  
HETATM   36  C   UNL     1     -11.355  16.039  71.269  1.00  0.00    -0.397 A  
HETATM   37  F   UNL     1     -13.014  15.917  72.942  1.00  0.00    -0.434 F  
HETATM   38  C   UNL     1     -10.661  15.424  70.223  1.00  0.00    -0.299 A  
HETATM   39  C   UNL     1     -12.734  14.067  71.510  1.00  0.00    -0.443 A  
HETATM   40  C   UNL     1     -12.051  13.456  70.454  1.00  0.00    -0.405 A  
HETATM   41  C   UNL     1     -12.377  15.346  71.913  1.00  0.00    -0.371 A  
ENDBRANCH  20  35
ENDBRANCH  17  18
ENDBRANCH   2  17
TORSDOF 6
ENDMDL
MODEL      322
REMARK 921   NORMALIZED FREE ENERGY PREDICTED BY IDOCK:   19.49 KCAL/MOL
REMARK 922        TOTAL FREE ENERGY PREDICTED BY IDOCK:   25.42 KCAL/MOL
REMARK 923 INTER-LIGAND FREE ENERGY PREDICTED BY IDOCK:   14.52 KCAL/MOL
REMARK 924 INTRA-LIGAND FREE ENERGY PREDICTED BY IDOCK:   10.90 KCAL/MOL
REMARK 927      BINDING AFFINITY PREDICTED BY RF-SCORE:    0.00 PKD
ROOT
HETATM    1  C   UNL     1      -7.311  13.877  67.453  1.00  0.00    -0.129 C  
HETATM    2  C   UNL     1      -7.568  15.319  67.873  1.00  0.00    -0.139 C  
ENDROOT
BRANCH   2   3
HETATM    3  C   UNL     1      -6.887  15.676  69.178  1.00  0.00    -0.159 A  
HETATM    4  F   UNL     1      -7.341  13.411  72.777  1.00  0.00     4.261 F  
HETATM    5  F   UNL     1      -5.985  14.736  73.837  1.00  0.00    -0.139 F  
HETATM    6  C   UNL     1      -6.612  17.028  69.418  1.00  0.00    -0.225 A  
HETATM    7  C   UNL     1      -6.302  17.483  70.698  1.00  0.00     1.041 A  
HETATM    8  F   UNL     1      -5.198  13.288  72.419  1.00  0.00    -0.152 F  
HETATM    9  C   UNL     1      -6.252  18.970  70.968  1.00  0.00     0.483 C  
HETATM   10  C   UNL     1      -6.168  16.549  71.736  1.00  0.00     2.527 A  
HETATM   11  C   UNL     1      -6.219  14.165  72.622  1.00  0.00     0.960 C  
HETATM   12  C   UNL     1      -6.349  15.173  71.502  1.00  0.00     0.859 A  
HETATM   13  F   UNL     1      -6.296  19.726  69.836  1.00  0.00    -0.320 F  
HETATM   14  F   UNL     1      -7.301  19.378  71.729  1.00  0.00     1.588 F  
HETATM   15  C   UNL     1      -6.717  14.747  70.216  1.00  0.00    -0.054 A  
HETATM   16  F   UNL     1      -5.128  19.348  71.631  1.00  0.00    -0.262 F  
ENDBRANCH   2   3
BRANCH   2  17
HETATM   17  O   UNL     1      -8.979  15.580  67.950  1.00  0.00    -0.172 OA 
BRANCH  17  18
HETATM   18  C   UNL     1      -9.747  14.957  66.892  1.00  0.00    -0.240 C  
HETATM   19  N   UNL     1      -9.067  12.580  67.407  1.00  0.00    -0.178 NA 
HETATM   20  C   UNL     1     -10.236  13.486  67.252  1.00  0.00    -0.242 C  
HETATM   21  O   UNL     1      -9.014  14.923  65.655  1.00  0.00     0.151 OA 
HETATM   22  C   UNL     1      -7.863  14.079  65.783  1.00  0.00     3.995 C  
HETATM   23  C   UNL     1      -8.247  12.647  66.173  1.00  0.00     0.814 C  
BRANCH  19  24
HETATM   24  C   UNL     1      -9.316  11.190  67.828  1.00  0.00    -0.164 C  
BRANCH  24  25
HETATM   25  C   UNL     1      -8.871  10.136  66.831  1.00  0.00    -0.132 C  
HETATM   26  O   UNL     1      -5.553   7.730  66.871  1.00  0.00    -0.030 OA 
HETATM   27  O   UNL     1      -7.278   6.148  66.121  1.00  0.00    -0.072 OA 
HETATM   28  N   UNL     1      -9.713   9.475  66.076  1.00  0.00    -0.253 NA 
HETATM   29  O   UNL     1      -5.778   7.298  64.360  1.00  0.00    -0.032 OA 
HETATM   30  C   UNL     1      -8.948   8.532  65.426  1.00  0.00    -0.099 C  
HETATM   31  O   UNL     1      -9.377   7.564  64.812  1.00  0.00     0.938 OA 
HETATM   32  P   UNL     1      -6.542   7.480  65.623  1.00  0.00    -0.045 P  
HETATM   33  N   UNL     1      -7.628   8.742  65.723  1.00  0.00    -0.085 N  
HETATM   34  N   UNL     1      -7.549   9.800  66.654  1.00  0.00    -0.098 NA 
ENDBRANCH  24  25
ENDBRANCH  19  24
BRANCH  20  35
HETATM   35  C   UNL     1     -11.211  13.547  68.426  1.00  0.00    -0.309 A  
HETATM   36  C   UNL     1     -13.149  12.626  69.592  1.00  0.00     1.463 A  
HETATM   37  F   UNL     1     -14.186  13.900  71.285  1.00  0.00    -0.289 F  
HETATM   38  C   UNL     1     -12.155  12.515  68.615  1.00  0.00    -0.139 A  
HETATM   39  C   UNL     1     -12.279  14.792  70.225  1.00  0.00    -0.394 A  
HETATM   40  C   UNL     1     -11.275  14.675  69.259  1.00  0.00    -0.306 A  
HETATM   41  C   UNL     1     -13.209  13.774  70.378  1.00  0.00     0.295 A  
ENDBRANCH  20  35
ENDBRANCH  17  18
ENDBRANCH   2  17
TORSDOF 6
ENDMDL
MODEL      323
REMARK 921   NORMALIZED FREE ENERGY PREDICTED BY IDOCK:   19.87 KCAL/MOL
REMARK 922        TOTAL FREE ENERGY PREDICTED BY IDOCK:   25.93 KCAL/MOL
REMARK 923 INTER-LIGAND FREE ENERGY PREDICTED BY IDOCK:   15.44 KCAL/MOL
REMARK 924 INTRA-LIGAND FREE ENERGY PREDICTED BY IDOCK:   10.49 KCAL/MOL
REMARK 927      BINDING AFFINITY PREDICTED BY RF-SCORE:    0.00 PKD
ROOT
HETATM    1  C   UNL     1      -8.670  15.104  68.675  1.00  0.00    -0.174 C  
HETATM    2  C   UNL     1      -9.662  15.702  67.686  1.00  0.00    -0.225 C  
ENDROOT
BRANCH   2   3
HETATM    3  C   UNL     1      -9.701  17.215  67.742  1.00  0.00    -0.271 A  
HETATM    4  F   UNL     1     -10.337  19.431  71.344  1.00  0.00     0.992 F  
HETATM    5  F   UNL     1     -10.148  21.313  70.275  1.00  0.00     0.874 F  
HETATM    6  C   UNL     1     -10.140  17.897  66.600  1.00  0.00    -0.362 A  
HETATM    7  C   UNL     1     -10.521  19.236  66.663  1.00  0.00    -0.541 A  
HETATM    8  F   UNL     1      -8.376  20.130  70.711  1.00  0.00     0.573 F  
HETATM    9  C   UNL     1     -11.216  19.870  65.479  1.00  0.00     0.379 C  
HETATM   10  C   UNL     1     -10.361  19.930  67.871  1.00  0.00    -0.545 A  
HETATM   11  C   UNL     1      -9.675  20.035  70.319  1.00  0.00     0.882 C  
HETATM   12  C   UNL     1      -9.835  19.293  69.011  1.00  0.00    -0.466 A  
HETATM   13  F   UNL     1     -11.191  19.093  64.360  1.00  0.00     1.098 F  
HETATM   14  F   UNL     1     -12.529  20.107  65.737  1.00  0.00     2.024 F  
HETATM   15  C   UNL     1      -9.514  17.928  68.937  1.00  0.00    -0.188 A  
HETATM   16  F   UNL     1     -10.673  21.062  65.125  1.00  0.00     0.415 F  
ENDBRANCH   2   3
BRANCH   2  17
HETATM   17  O   UNL     1     -10.976  15.156  67.892  1.00  0.00    -0.281 OA 
BRANCH  17  18
HETATM   18  C   UNL     1     -11.377  15.110  69.283  1.00  0.00    -0.300 C  
HETATM   19  N   UNL     1     -11.303  12.597  69.522  1.00  0.00    -0.202 NA 
HETATM   20  C   UNL     1     -10.768  13.870  70.074  1.00  0.00     0.516 C  
HETATM   21  O   UNL     1     -12.808  15.104  69.422  1.00  0.00     0.128 OA 
HETATM   22  C   UNL     1     -13.355  13.900  68.871  1.00  0.00     3.303 C  
HETATM   23  C   UNL     1     -12.784  12.651  69.553  1.00  0.00     0.703 C  
BRANCH  19  24
HETATM   24  C   UNL     1     -10.786  11.331  70.070  1.00  0.00     0.333 C  
BRANCH  24  25
HETATM   25  C   UNL     1     -10.184  10.393  69.040  1.00  0.00    -0.217 C  
HETATM   26  O   UNL     1      -6.804  10.827  66.762  1.00  0.00    -0.098 OA 
HETATM   27  O   UNL     1      -6.639   8.462  67.413  1.00  0.00    -0.057 OA 
HETATM   28  N   UNL     1     -10.357   9.095  69.077  1.00  0.00    -0.211 NA 
HETATM   29  O   UNL     1      -7.637   9.063  65.106  1.00  0.00    -0.095 OA 
HETATM   30  C   UNL     1      -9.554   8.597  68.076  1.00  0.00    -0.149 C  
HETATM   31  O   UNL     1      -9.243   7.422  67.928  1.00  0.00    -0.133 OA 
HETATM   32  P   UNL     1      -7.577   9.428  66.548  1.00  0.00    -0.093 P  
HETATM   33  N   UNL     1      -9.010   9.640  67.376  1.00  0.00    -0.131 N  
HETATM   34  N   UNL     1      -9.411  10.843  67.995  1.00  0.00    -0.159 NA 
ENDBRANCH  24  25
ENDBRANCH  19  24
BRANCH  20  35
HETATM   35  C   UNL     1      -9.247  14.001  70.133  1.00  0.00     2.170 A  
HETATM   36  C   UNL     1      -7.046  12.955  69.987  1.00  0.00     0.887 A  
HETATM   37  F   UNL     1      -5.155  14.143  70.747  1.00  0.00    -0.097 F  
HETATM   38  C   UNL     1      -8.430  12.901  69.796  1.00  0.00     2.257 A  
HETATM   39  C   UNL     1      -7.255  15.207  70.844  1.00  0.00     1.192 A  
HETATM   40  C   UNL     1      -8.638  15.160  70.640  1.00  0.00     1.712 A  
HETATM   41  C   UNL     1      -6.474  14.106  70.525  1.00  0.00    -0.004 A  
ENDBRANCH  20  35
ENDBRANCH  17  18
ENDBRANCH   2  17
TORSDOF 6
ENDMDL
MODEL      324
REMARK 921   NORMALIZED FREE ENERGY PREDICTED BY IDOCK:   20.01 KCAL/MOL
REMARK 922        TOTAL FREE ENERGY PREDICTED BY IDOCK:   26.13 KCAL/MOL
REMARK 923 INTER-LIGAND FREE ENERGY PREDICTED BY IDOCK:   26.87 KCAL/MOL
REMARK 924 INTRA-LIGAND FREE ENERGY PREDICTED BY IDOCK:   -0.74 KCAL/MOL
REMARK 927      BINDING AFFINITY PREDICTED BY RF-SCORE:    0.00 PKD
ROOT
HETATM    1  C   UNL     1     -10.628  13.498  72.928  1.00  0.00     8.874 C  
HETATM    2  C   UNL     1     -10.966  12.949  71.548  1.00  0.00     5.160 C  
ENDROOT
BRANCH   2   3
HETATM    3  C   UNL     1     -10.980  11.434  71.510  1.00  0.00     3.966 A  
HETATM    4  F   UNL     1     -14.375   9.074  72.598  1.00  0.00    -0.492 F  
HETATM    5  F   UNL     1     -13.308   7.240  72.132  1.00  0.00    -0.268 F  
HETATM    6  C   UNL     1      -9.765  10.768  71.718  1.00  0.00     7.346 A  
HETATM    7  C   UNL     1      -9.733   9.410  72.028  1.00  0.00     0.683 A  
HETATM    8  F   UNL     1     -14.057   8.498  70.524  1.00  0.00     0.167 F  
HETATM    9  C   UNL     1      -8.437   8.780  72.484  1.00  0.00     0.125 C  
HETATM   10  C   UNL     1     -10.935   8.686  72.029  1.00  0.00    -0.432 A  
HETATM   11  C   UNL     1     -13.459   8.538  71.746  1.00  0.00    -0.371 C  
HETATM   12  C   UNL     1     -12.160   9.312  71.732  1.00  0.00    -0.457 A  
HETATM   13  F   UNL     1      -7.356   9.592  72.321  1.00  0.00     0.519 F  
HETATM   14  F   UNL     1      -8.470   8.467  73.806  1.00  0.00    -0.290 F  
HETATM   15  C   UNL     1     -12.172  10.694  71.481  1.00  0.00    -0.345 A  
HETATM   16  F   UNL     1      -8.149   7.629  71.824  1.00  0.00    -0.094 F  
ENDBRANCH   2   3
BRANCH   2  17
HETATM   17  O   UNL     1     -10.063  13.471  70.559  1.00  0.00     2.511 OA 
BRANCH  17  18
HETATM   18  C   UNL     1     -10.420  14.791  70.082  1.00  0.00     0.111 C  
HETATM   19  N   UNL     1      -8.480  15.054  68.487  1.00  0.00    -0.156 NA 
HETATM   20  C   UNL     1      -9.964  15.062  68.581  1.00  0.00    -0.220 C  
HETATM   21  O   UNL     1      -9.892  15.823  70.932  1.00  0.00     0.745 OA 
HETATM   22  C   UNL     1      -8.460  15.820  70.884  1.00  0.00     3.093 C  
HETATM   23  C   UNL     1      -7.937  16.034  69.459  1.00  0.00    -0.043 C  
BRANCH  19  24
HETATM   24  C   UNL     1      -7.867  15.202  67.155  1.00  0.00    -0.205 C  
BRANCH  24  25
HETATM   25  C   UNL     1      -8.106  16.547  66.493  1.00  0.00    -0.306 C  
HETATM   26  O   UNL     1     -10.268  19.769  67.814  1.00  0.00    -0.392 OA 
HETATM   27  O   UNL     1      -8.289  20.879  66.868  1.00  0.00    -0.114 OA 
HETATM   28  N   UNL     1      -7.260  17.078  65.646  1.00  0.00     0.215 NA 
HETATM   29  O   UNL     1     -10.431  20.694  65.434  1.00  0.00     0.120 OA 
HETATM   30  C   UNL     1      -7.757  18.336  65.384  1.00  0.00     0.748 C  
HETATM   31  O   UNL     1      -7.150  19.243  64.830  1.00  0.00    -0.322 OA 
HETATM   32  P   UNL     1      -9.536  19.993  66.395  1.00  0.00    -0.371 P  
HETATM   33  N   UNL     1      -8.974  18.474  65.998  1.00  0.00    -0.081 N  
HETATM   34  N   UNL     1      -9.228  17.302  66.741  1.00  0.00    -0.246 NA 
ENDBRANCH  24  25
ENDBRANCH  19  24
BRANCH  20  35
HETATM   35  C   UNL     1     -10.711  14.116  67.643  1.00  0.00    -0.260 A  
HETATM   36  C   UNL     1     -10.696  12.133  66.217  1.00  0.00    -0.296 A  
HETATM   37  F   UNL     1     -12.488  11.776  64.725  1.00  0.00    -0.267 F  
HETATM   38  C   UNL     1     -10.088  12.934  67.190  1.00  0.00    -0.243 A  
HETATM   39  C   UNL     1     -12.565  13.666  66.131  1.00  0.00    -0.391 A  
HETATM   40  C   UNL     1     -11.965  14.458  67.115  1.00  0.00    -0.419 A  
HETATM   41  C   UNL     1     -11.925  12.519  65.686  1.00  0.00    -0.433 A  
ENDBRANCH  20  35
ENDBRANCH  17  18
ENDBRANCH   2  17
TORSDOF 6
ENDMDL
MODEL      325
REMARK 921   NORMALIZED FREE ENERGY PREDICTED BY IDOCK:   21.88 KCAL/MOL
REMARK 922        TOTAL FREE ENERGY PREDICTED BY IDOCK:   28.65 KCAL/MOL
REMARK 923 INTER-LIGAND FREE ENERGY PREDICTED BY IDOCK:    2.01 KCAL/MOL
REMARK 924 INTRA-LIGAND FREE ENERGY PREDICTED BY IDOCK:   26.63 KCAL/MOL
REMARK 927      BINDING AFFINITY PREDICTED BY RF-SCORE:    0.00 PKD
ROOT
HETATM    1  C   UNL     1      -7.808  11.005  68.912  1.00  0.00    -0.138 C  
HETATM    2  C   UNL     1      -7.985   9.667  69.617  1.00  0.00    -0.137 C  
ENDROOT
BRANCH   2   3
HETATM    3  C   UNL     1      -9.441   9.285  69.787  1.00  0.00    -0.203 A  
HETATM    4  F   UNL     1     -11.466   9.303  73.553  1.00  0.00     1.917 F  
HETATM    5  F   UNL     1     -13.323   8.687  72.611  1.00  0.00    -0.383 F  
HETATM    6  C   UNL     1      -9.979   8.358  68.885  1.00  0.00    -0.194 A  
HETATM    7  C   UNL     1     -11.181   7.706  69.154  1.00  0.00     0.233 A  
HETATM    8  F   UNL     1     -12.627  10.735  72.398  1.00  0.00    -0.271 F  
HETATM    9  C   UNL     1     -11.608   6.542  68.289  1.00  0.00     0.496 C  
HETATM   10  C   UNL     1     -11.906   8.066  70.300  1.00  0.00     0.178 A  
HETATM   11  C   UNL     1     -12.205   9.442  72.420  1.00  0.00    -0.050 C  
HETATM   12  C   UNL     1     -11.433   9.061  71.176  1.00  0.00    -0.376 A  
HETATM   13  F   UNL     1     -10.851   6.399  67.165  1.00  0.00    -0.284 F  
HETATM   14  F   UNL     1     -11.512   5.361  68.954  1.00  0.00     0.080 F  
HETATM   15  C   UNL     1     -10.191   9.661  70.913  1.00  0.00    -0.303 A  
HETATM   16  F   UNL     1     -12.895   6.642  67.868  1.00  0.00     3.968 F  
ENDBRANCH   2   3
BRANCH   2  17
HETATM   17  O   UNL     1      -7.313   9.670  70.888  1.00  0.00    -0.288 OA 
BRANCH  17  18
HETATM   18  C   UNL     1      -6.576   8.453  71.161  1.00  0.00    -0.050 C  
HETATM   19  N   UNL     1      -8.586   7.004  71.648  1.00  0.00    -0.116 NA 
HETATM   20  C   UNL     1      -7.382   7.133  70.786  1.00  0.00    -0.072 C  
HETATM   21  O   UNL     1      -6.163   8.382  72.536  1.00  0.00    -0.064 OA 
HETATM   22  C   UNL     1      -7.306   8.287  73.394  1.00  0.00    -0.111 C  
HETATM   23  C   UNL     1      -8.162   7.058  73.068  1.00  0.00    -0.105 C  
BRANCH  19  24
HETATM   24  C   UNL     1      -9.509   5.885  71.391  1.00  0.00    -0.150 C  
BRANCH  24  25
HETATM   25  C   UNL     1      -9.137   5.017  70.202  1.00  0.00    -0.120 C  
HETATM   26  O   UNL     1      -5.496   3.471  69.127  1.00  0.00    -0.012 OA 
HETATM   27  O   UNL     1      -6.976   1.563  68.671  1.00  0.00    -0.035 OA 
HETATM   28  N   UNL     1      -9.989   4.212  69.618  1.00  0.00    -0.129 NA 
HETATM   29  O   UNL     1      -6.301   3.122  66.724  1.00  0.00    -0.034 OA 
HETATM   30  C   UNL     1      -9.247   3.512  68.694  1.00  0.00    -0.165 C  
HETATM   31  O   UNL     1      -9.608   2.501  68.106  1.00  0.00    -0.204 OA 
HETATM   32  P   UNL     1      -6.711   3.054  68.153  1.00  0.00    -0.045 P  
HETATM   33  N   UNL     1      -7.974   4.015  68.666  1.00  0.00    -0.071 N  
HETATM   34  N   UNL     1      -7.874   5.015  69.658  1.00  0.00    -0.067 NA 
ENDBRANCH  24  25
ENDBRANCH  19  24
BRANCH  20  35
HETATM   35  C   UNL     1      -7.616   7.090  69.278  1.00  0.00    -0.096 A  
HETATM   36  C   UNL     1      -6.699   7.020  67.015  1.00  0.00    -0.059 A  
HETATM   37  F   UNL     1      -8.121   7.459  65.184  1.00  0.00    -0.108 F  
HETATM   38  C   UNL     1      -6.526   6.914  68.399  1.00  0.00    -0.039 A  
HETATM   39  C   UNL     1      -9.052   7.471  67.349  1.00  0.00    -0.135 A  
HETATM   40  C   UNL     1      -8.883   7.350  68.731  1.00  0.00    -0.130 A  
HETATM   41  C   UNL     1      -7.962   7.314  66.506  1.00  0.00    -0.115 A  
ENDBRANCH  20  35
ENDBRANCH  17  18
ENDBRANCH   2  17
TORSDOF 6
ENDMDL
MODEL      326
REMARK 921   NORMALIZED FREE ENERGY PREDICTED BY IDOCK:   24.94 KCAL/MOL
REMARK 922        TOTAL FREE ENERGY PREDICTED BY IDOCK:   32.78 KCAL/MOL
REMARK 923 INTER-LIGAND FREE ENERGY PREDICTED BY IDOCK:    2.61 KCAL/MOL
REMARK 924 INTRA-LIGAND FREE ENERGY PREDICTED BY IDOCK:   30.16 KCAL/MOL
REMARK 927      BINDING AFFINITY PREDICTED BY RF-SCORE:    0.00 PKD
ROOT
HETATM    1  C   UNL     1      -7.179   6.332  68.802  1.00  0.00    -0.084 C  
HETATM    2  C   UNL     1      -6.364   7.550  68.387  1.00  0.00    -0.044 C  
ENDROOT
BRANCH   2   3
HETATM    3  C   UNL     1      -6.358   8.635  69.445  1.00  0.00    -0.041 A  
HETATM    4  F   UNL     1      -7.703   8.030  73.459  1.00  0.00    -0.147 F  
HETATM    5  F   UNL     1      -7.209  10.079  73.983  1.00  0.00     1.331 F  
HETATM    6  C   UNL     1      -6.503   9.961  69.016  1.00  0.00    -0.048 A  
HETATM    7  C   UNL     1      -6.838  10.974  69.913  1.00  0.00    -0.097 A  
HETATM    8  F   UNL     1      -5.625   8.608  73.749  1.00  0.00    -0.082 F  
HETATM    9  C   UNL     1      -7.226  12.337  69.386  1.00  0.00     0.213 C  
HETATM   10  C   UNL     1      -6.929  10.668  71.279  1.00  0.00     1.836 A  
HETATM   11  C   UNL     1      -6.807   9.025  73.218  1.00  0.00     0.378 C  
HETATM   12  C   UNL     1      -6.696   9.361  71.748  1.00  0.00     0.225 A  
HETATM   13  F   UNL     1      -6.979  12.491  68.055  1.00  0.00    -0.068 F  
HETATM   14  F   UNL     1      -8.553  12.578  69.548  1.00  0.00     0.614 F  
HETATM   15  C   UNL     1      -6.418   8.347  70.818  1.00  0.00    -0.038 A  
HETATM   16  F   UNL     1      -6.572  13.350  70.012  1.00  0.00    -0.104 F  
ENDBRANCH   2   3
BRANCH   2  17
HETATM   17  O   UNL     1      -6.834   8.071  67.133  1.00  0.00    -0.070 OA 
BRANCH  17  18
HETATM   18  C   UNL     1      -8.257   8.345  67.111  1.00  0.00    -0.108 C  
HETATM   19  N   UNL     1      -8.982   6.038  66.383  1.00  0.00    -0.141 NA 
HETATM   20  C   UNL     1      -9.148   7.069  67.442  1.00  0.00    -0.123 C  
HETATM   21  O   UNL     1      -8.670   8.898  65.849  1.00  0.00    -0.149 OA 
HETATM   22  C   UNL     1      -8.493   7.935  64.804  1.00  0.00     0.007 C  
HETATM   23  C   UNL     1      -9.289   6.652  65.070  1.00  0.00     0.976 C  
BRANCH  19  24
HETATM   24  C   UNL     1      -9.664   4.744  66.561  1.00  0.00    -0.193 C  
BRANCH  24  25
HETATM   25  C   UNL     1      -9.109   3.882  67.679  1.00  0.00    -0.151 C  
HETATM   26  O   UNL     1      -5.515   4.126  69.635  1.00  0.00    -0.014 OA 
HETATM   27  O   UNL     1      -7.042   3.653  71.502  1.00  0.00    -0.031 OA 
HETATM   28  N   UNL     1      -9.875   3.251  68.534  1.00  0.00     0.106 NA 
HETATM   29  O   UNL     1      -5.730   1.703  70.430  1.00  0.00    -0.015 OA 
HETATM   30  C   UNL     1      -9.010   2.706  69.457  1.00  0.00    -0.107 C  
HETATM   31  O   UNL     1      -9.326   2.242  70.544  1.00  0.00    -0.116 OA 
HETATM   32  P   UNL     1      -6.488   2.957  70.172  1.00  0.00    -0.029 P  
HETATM   33  N   UNL     1      -7.721   2.927  69.049  1.00  0.00    -0.047 N  
HETATM   34  N   UNL     1      -7.759   3.705  67.872  1.00  0.00    -0.069 NA 
ENDBRANCH  24  25
ENDBRANCH  19  24
BRANCH  20  35
HETATM   35  C   UNL     1      -8.882   6.620  68.878  1.00  0.00    -0.131 A  
HETATM   36  C   UNL     1      -9.743   6.067  71.095  1.00  0.00    -0.206 A  
HETATM   37  F   UNL     1      -8.236   5.883  72.901  1.00  0.00    -0.115 F  
HETATM   38  C   UNL     1      -9.962   6.334  69.740  1.00  0.00    -0.204 A  
HETATM   39  C   UNL     1      -7.364   6.355  70.763  1.00  0.00    -0.076 A  
HETATM   40  C   UNL     1      -7.581   6.606  69.405  1.00  0.00    -0.096 A  
HETATM   41  C   UNL     1      -8.444   6.096  71.595  1.00  0.00    -0.130 A  
ENDBRANCH  20  35
ENDBRANCH  17  18
ENDBRANCH   2  17
TORSDOF 6
ENDMDL
MODEL      327
REMARK 921   NORMALIZED FREE ENERGY PREDICTED BY IDOCK:   29.35 KCAL/MOL
REMARK 922        TOTAL FREE ENERGY PREDICTED BY IDOCK:   38.74 KCAL/MOL
REMARK 923 INTER-LIGAND FREE ENERGY PREDICTED BY IDOCK:   22.70 KCAL/MOL
REMARK 924 INTRA-LIGAND FREE ENERGY PREDICTED BY IDOCK:   16.03 KCAL/MOL
REMARK 927      BINDING AFFINITY PREDICTED BY RF-SCORE:    0.00 PKD
ROOT
HETATM    1  C   UNL     1      -7.731  13.272  69.359  1.00  0.00     0.562 C  
HETATM    2  C   UNL     1      -8.769  13.053  70.452  1.00  0.00     5.455 C  
ENDROOT
BRANCH   2   3
HETATM    3  C   UNL     1      -9.832  12.049  70.055  1.00  0.00     2.383 A  
HETATM    4  F   UNL     1      -9.400   7.825  70.562  1.00  0.00    -0.158 F  
HETATM    5  F   UNL     1     -11.389   7.478  69.759  1.00  0.00    -0.226 F  
HETATM    6  C   UNL     1     -10.678  12.386  68.991  1.00  0.00    -0.140 A  
HETATM    7  C   UNL     1     -11.447  11.417  68.350  1.00  0.00    -0.367 A  
HETATM    8  F   UNL     1     -11.154   8.259  71.775  1.00  0.00    -0.271 F  
HETATM    9  C   UNL     1     -12.156  11.762  67.060  1.00  0.00     0.432 C  
HETATM   10  C   UNL     1     -11.443  10.107  68.851  1.00  0.00    -0.125 A  
HETATM   11  C   UNL     1     -10.656   8.347  70.511  1.00  0.00    -0.216 C  
HETATM   12  C   UNL     1     -10.673   9.762  69.977  1.00  0.00    -0.326 A  
HETATM   13  F   UNL     1     -12.144  13.095  66.777  1.00  0.00    -0.406 F  
HETATM   14  F   UNL     1     -11.580  11.151  65.992  1.00  0.00    -0.163 F  
HETATM   15  C   UNL     1      -9.862  10.743  70.569  1.00  0.00     1.520 A  
HETATM   16  F   UNL     1     -13.461  11.387  67.058  1.00  0.00     5.303 F  
ENDBRANCH   2   3
BRANCH   2  17
HETATM   17  O   UNL     1      -9.370  14.300  70.838  1.00  0.00     2.731 OA 
BRANCH  17  18
HETATM   18  C   UNL     1      -8.432  15.401  70.914  1.00  0.00     2.566 C  
HETATM   19  N   UNL     1      -7.162  14.843  68.804  1.00  0.00    -0.115 NA 
HETATM   20  C   UNL     1      -7.941  15.909  69.488  1.00  0.00    -0.098 C  
HETATM   21  O   UNL     1      -7.288  15.067  71.718  1.00  0.00     2.119 OA 
HETATM   22  C   UNL     1      -6.534  14.019  71.097  1.00  0.00     0.457 C  
HETATM   23  C   UNL     1      -6.057  14.415  69.695  1.00  0.00    -0.119 C  
BRANCH  19  24
HETATM   24  C   UNL     1      -6.696  15.096  67.430  1.00  0.00    -0.100 C  
BRANCH  24  25
HETATM   25  C   UNL     1      -6.750  16.551  66.999  1.00  0.00    -0.205 C  
HETATM   26  O   UNL     1      -7.206  19.936  69.265  1.00  0.00    -0.309 OA 
HETATM   27  O   UNL     1      -5.485  20.661  67.667  1.00  0.00    -0.183 OA 
HETATM   28  N   UNL     1      -6.162  16.991  65.915  1.00  0.00     0.048 NA 
HETATM   29  O   UNL     1      -7.955  21.266  67.212  1.00  0.00    -0.259 OA 
HETATM   30  C   UNL     1      -6.322  18.358  65.950  1.00  0.00    -0.245 C  
HETATM   31  O   UNL     1      -5.723  19.166  65.252  1.00  0.00    -0.168 OA 
HETATM   32  P   UNL     1      -7.020  20.210  67.687  1.00  0.00    -0.293 P  
HETATM   33  N   UNL     1      -7.125  18.689  67.009  1.00  0.00    -0.199 N  
HETATM   34  N   UNL     1      -7.422  17.508  67.723  1.00  0.00    -0.188 NA 
ENDBRANCH  24  25
ENDBRANCH  19  24
BRANCH  20  35
HETATM   35  C   UNL     1      -9.125  16.488  68.718  1.00  0.00    -0.256 A  
HETATM   36  C   UNL     1     -11.095  17.931  68.676  1.00  0.00     0.562 A  
HETATM   37  F   UNL     1     -12.624  17.740  66.889  1.00  0.00     3.525 F  
HETATM   38  C   UNL     1      -9.923  17.495  69.302  1.00  0.00    -0.107 A  
HETATM   39  C   UNL     1     -10.701  16.377  66.865  1.00  0.00    -0.202 A  
HETATM   40  C   UNL     1      -9.521  15.952  67.482  1.00  0.00    -0.219 A  
HETATM   41  C   UNL     1     -11.480  17.354  67.468  1.00  0.00     0.706 A  
ENDBRANCH  20  35
ENDBRANCH  17  18
ENDBRANCH   2  17
TORSDOF 6
ENDMDL
MODEL      328
REMARK 921   NORMALIZED FREE ENERGY PREDICTED BY IDOCK:   29.47 KCAL/MOL
REMARK 922        TOTAL FREE ENERGY PREDICTED BY IDOCK:   38.91 KCAL/MOL
REMARK 923 INTER-LIGAND FREE ENERGY PREDICTED BY IDOCK:   15.95 KCAL/MOL
REMARK 924 INTRA-LIGAND FREE ENERGY PREDICTED BY IDOCK:   22.96 KCAL/MOL
REMARK 927      BINDING AFFINITY PREDICTED BY RF-SCORE:    0.00 PKD
ROOT
HETATM    1  C   UNL     1      -9.402   7.254  71.925  1.00  0.00    -0.152 C  
HETATM    2  C   UNL     1      -8.587   8.519  72.163  1.00  0.00    -0.173 C  
ENDROOT
BRANCH   2   3
HETATM    3  C   UNL     1      -8.939   9.630  71.196  1.00  0.00     0.428 A  
HETATM    4  F   UNL     1      -6.030  12.151  69.334  1.00  0.00    -0.066 F  
HETATM    5  F   UNL     1      -7.578  13.210  68.240  1.00  0.00    -0.104 F  
HETATM    6  C   UNL     1     -10.182  10.257  71.351  1.00  0.00     1.839 A  
HETATM    7  C   UNL     1     -10.451  11.481  70.741  1.00  0.00     3.101 A  
HETATM    8  F   UNL     1      -6.989  11.210  67.623  1.00  0.00    -0.074 F  
HETATM    9  C   UNL     1     -11.700  12.244  71.122  1.00  0.00     1.130 C  
HETATM   10  C   UNL     1      -9.493  12.035  69.880  1.00  0.00     2.378 A  
HETATM   11  C   UNL     1      -7.230  11.982  68.717  1.00  0.00    -0.108 C  
HETATM   12  C   UNL     1      -8.272  11.380  69.634  1.00  0.00     0.779 A  
HETATM   13  F   UNL     1     -12.566  11.517  71.881  1.00  0.00    -0.394 F  
HETATM   14  F   UNL     1     -11.407  13.353  71.851  1.00  0.00     1.358 F  
HETATM   15  C   UNL     1      -8.001  10.177  70.306  1.00  0.00     0.091 A  
HETATM   16  F   UNL     1     -12.408  12.669  70.044  1.00  0.00    -0.326 F  
ENDBRANCH   2   3
BRANCH   2  17
HETATM   17  O   UNL     1      -7.179   8.232  72.112  1.00  0.00    -0.085 OA 
BRANCH  17  18
HETATM   18  C   UNL     1      -6.877   6.846  71.818  1.00  0.00    -0.065 C  
HETATM   19  N   UNL     1      -8.961   6.377  70.472  1.00  0.00    -0.150 NA 
HETATM   20  C   UNL     1      -7.475   6.352  70.428  1.00  0.00    -0.094 C  
HETATM   21  O   UNL     1      -7.330   5.972  72.866  1.00  0.00    -0.091 OA 
HETATM   22  C   UNL     1      -8.760   5.998  72.951  1.00  0.00    -0.123 C  
HETATM   23  C   UNL     1      -9.416   5.574  71.632  1.00  0.00    -0.147 C  
BRANCH  19  24
HETATM   24  C   UNL     1      -9.697   6.035  69.242  1.00  0.00    -0.142 C  
BRANCH  24  25
HETATM   25  C   UNL     1      -9.321   6.862  68.026  1.00  0.00    -0.123 C  
HETATM   26  O   UNL     1      -9.626   5.949  64.042  1.00  0.00     1.198 OA 
HETATM   27  O   UNL     1     -10.368   8.293  64.052  1.00  0.00     5.329 OA 
HETATM   28  N   UNL     1      -9.315   8.172  68.036  1.00  0.00    -0.135 NA 
HETATM   29  O   UNL     1      -7.914   7.756  63.450  1.00  0.00    -0.139 OA 
HETATM   30  C   UNL     1      -9.062   8.539  66.733  1.00  0.00    -0.151 C  
HETATM   31  O   UNL     1      -9.206   9.661  66.266  1.00  0.00    -0.152 OA 
HETATM   32  P   UNL     1      -9.055   7.426  64.346  1.00  0.00     1.909 P  
HETATM   33  N   UNL     1      -8.797   7.416  65.994  1.00  0.00    -0.163 N  
HETATM   34  N   UNL     1      -8.962   6.290  66.828  1.00  0.00    -0.122 NA 
ENDBRANCH  24  25
ENDBRANCH  19  24
BRANCH  20  35
HETATM   35  C   UNL     1      -6.814   7.122  69.287  1.00  0.00    -0.057 A  
HETATM   36  C   UNL     1      -6.260   9.261  68.246  1.00  0.00    -0.053 A  
HETATM   37  F   UNL     1      -5.483   9.288  66.018  1.00  0.00    -0.038 F  
HETATM   38  C   UNL     1      -6.726   8.530  69.343  1.00  0.00    -0.045 A  
HETATM   39  C   UNL     1      -5.948   7.203  67.013  1.00  0.00    -0.033 A  
HETATM   40  C   UNL     1      -6.399   6.470  68.115  1.00  0.00    -0.040 A  
HETATM   41  C   UNL     1      -5.889   8.587  67.084  1.00  0.00    -0.043 A  
ENDBRANCH  20  35
ENDBRANCH  17  18
ENDBRANCH   2  17
TORSDOF 6
ENDMDL
MODEL      329
REMARK 921   NORMALIZED FREE ENERGY PREDICTED BY IDOCK:   32.24 KCAL/MOL
REMARK 922        TOTAL FREE ENERGY PREDICTED BY IDOCK:   42.65 KCAL/MOL
REMARK 923 INTER-LIGAND FREE ENERGY PREDICTED BY IDOCK:   23.07 KCAL/MOL
REMARK 924 INTRA-LIGAND FREE ENERGY PREDICTED BY IDOCK:   19.57 KCAL/MOL
REMARK 927      BINDING AFFINITY PREDICTED BY RF-SCORE:    0.00 PKD
ROOT
HETATM    1  C   UNL     1      -7.311  13.877  67.453  1.00  0.00    -0.129 C  
HETATM    2  C   UNL     1      -7.568  15.319  67.873  1.00  0.00    -0.139 C  
ENDROOT
BRANCH   2   3
HETATM    3  C   UNL     1      -6.887  15.676  69.178  1.00  0.00    -0.159 A  
HETATM    4  F   UNL     1      -7.341  13.411  72.777  1.00  0.00     4.261 F  
HETATM    5  F   UNL     1      -5.985  14.736  73.837  1.00  0.00    -0.139 F  
HETATM    6  C   UNL     1      -6.612  17.028  69.418  1.00  0.00    -0.225 A  
HETATM    7  C   UNL     1      -6.302  17.483  70.698  1.00  0.00     1.041 A  
HETATM    8  F   UNL     1      -5.198  13.288  72.419  1.00  0.00    -0.152 F  
HETATM    9  C   UNL     1      -6.252  18.970  70.968  1.00  0.00     0.483 C  
HETATM   10  C   UNL     1      -6.168  16.549  71.736  1.00  0.00     2.527 A  
HETATM   11  C   UNL     1      -6.219  14.165  72.622  1.00  0.00     0.960 C  
HETATM   12  C   UNL     1      -6.349  15.173  71.502  1.00  0.00     0.859 A  
HETATM   13  F   UNL     1      -6.296  19.726  69.836  1.00  0.00    -0.320 F  
HETATM   14  F   UNL     1      -7.301  19.378  71.729  1.00  0.00     1.588 F  
HETATM   15  C   UNL     1      -6.717  14.747  70.216  1.00  0.00    -0.054 A  
HETATM   16  F   UNL     1      -5.128  19.348  71.631  1.00  0.00    -0.262 F  
ENDBRANCH   2   3
BRANCH   2  17
HETATM   17  O   UNL     1      -8.979  15.580  67.950  1.00  0.00    -0.172 OA 
BRANCH  17  18
HETATM   18  C   UNL     1      -9.747  14.957  66.892  1.00  0.00    -0.240 C  
HETATM   19  N   UNL     1      -9.067  12.580  67.407  1.00  0.00    -0.178 NA 
HETATM   20  C   UNL     1     -10.236  13.486  67.252  1.00  0.00    -0.242 C  
HETATM   21  O   UNL     1      -9.014  14.923  65.655  1.00  0.00     0.151 OA 
HETATM   22  C   UNL     1      -7.863  14.079  65.783  1.00  0.00     3.995 C  
HETATM   23  C   UNL     1      -8.247  12.647  66.173  1.00  0.00     0.814 C  
BRANCH  19  24
HETATM   24  C   UNL     1      -9.316  11.190  67.828  1.00  0.00    -0.164 C  
BRANCH  24  25
HETATM   25  C   UNL     1     -10.278  11.043  68.992  1.00  0.00    -0.200 C  
HETATM   26  O   UNL     1     -12.527   7.813  70.138  1.00  0.00     0.499 OA 
HETATM   27  O   UNL     1     -11.732   8.636  72.314  1.00  0.00    -0.363 OA 
HETATM   28  N   UNL     1     -10.165  11.738  70.096  1.00  0.00     1.566 NA 
HETATM   29  O   UNL     1     -14.085   9.321  71.496  1.00  0.00    -0.277 OA 
HETATM   30  C   UNL     1     -11.122  11.225  70.943  1.00  0.00     1.348 C  
HETATM   31  O   UNL     1     -11.194  11.430  72.148  1.00  0.00     4.062 OA 
HETATM   32  P   UNL     1     -12.668   9.099  71.101  1.00  0.00    -0.083 P  
HETATM   33  N   UNL     1     -11.876  10.305  70.264  1.00  0.00    -0.280 N  
HETATM   34  N   UNL     1     -11.337  10.165  68.967  1.00  0.00    -0.179 NA 
ENDBRANCH  24  25
ENDBRANCH  19  24
BRANCH  20  35
HETATM   35  C   UNL     1     -11.211  13.547  68.426  1.00  0.00    -0.309 A  
HETATM   36  C   UNL     1     -11.588  13.782  70.828  1.00  0.00     0.091 A  
HETATM   37  F   UNL     1     -13.706  13.245  71.718  1.00  0.00    -0.439 F  
HETATM   38  C   UNL     1     -10.740  13.866  69.718  1.00  0.00     0.220 A  
HETATM   39  C   UNL     1     -13.396  13.068  69.388  1.00  0.00     2.654 A  
HETATM   40  C   UNL     1     -12.554  13.167  68.276  1.00  0.00     0.744 A  
HETATM   41  C   UNL     1     -12.906  13.367  70.651  1.00  0.00    -0.087 A  
ENDBRANCH  20  35
ENDBRANCH  17  18
ENDBRANCH   2  17
TORSDOF 6
ENDMDL
MODEL      330
REMARK 921   NORMALIZED FREE ENERGY PREDICTED BY IDOCK:   51.63 KCAL/MOL
REMARK 922        TOTAL FREE ENERGY PREDICTED BY IDOCK:   68.83 KCAL/MOL
REMARK 923 INTER-LIGAND FREE ENERGY PREDICTED BY IDOCK:   18.65 KCAL/MOL
REMARK 924 INTRA-LIGAND FREE ENERGY PREDICTED BY IDOCK:   50.18 KCAL/MOL
REMARK 927      BINDING AFFINITY PREDICTED BY RF-SCORE:    0.00 PKD
ROOT
HETATM    1  C   UNL     1     -10.858  13.611  64.600  1.00  0.00    -0.416 C  
HETATM    2  C   UNL     1     -12.198  13.877  65.272  1.00  0.00    -0.433 C  
ENDROOT
BRANCH   2   3
HETATM    3  C   UNL     1     -12.087  13.969  66.780  1.00  0.00    -0.480 A  
HETATM    4  F   UNL     1     -13.063  10.751  69.422  1.00  0.00    -0.051 F  
HETATM    5  F   UNL     1     -12.507  11.941  71.152  1.00  0.00    -0.434 F  
HETATM    6  C   UNL     1     -12.260  15.228  67.369  1.00  0.00     0.530 A  
HETATM    7  C   UNL     1     -12.503  15.355  68.735  1.00  0.00     0.264 A  
HETATM    8  F   UNL     1     -10.963  11.099  69.873  1.00  0.00    -0.287 F  
HETATM    9  C   UNL     1     -12.927  16.695  69.295  1.00  0.00     3.577 C  
HETATM   10  C   UNL     1     -12.471  14.207  69.540  1.00  0.00    -0.165 A  
HETATM   11  C   UNL     1     -12.185  11.698  69.850  1.00  0.00    -0.239 C  
HETATM   12  C   UNL     1     -12.206  12.940  68.987  1.00  0.00    -0.055 A  
HETATM   13  F   UNL     1     -12.801  17.716  68.402  1.00  0.00     2.976 F  
HETATM   14  F   UNL     1     -14.231  16.690  69.673  1.00  0.00     3.241 F  
HETATM   15  C   UNL     1     -12.023  12.831  67.600  1.00  0.00    -0.331 A  
HETATM   16  F   UNL     1     -12.211  17.059  70.389  1.00  0.00     1.052 F  
ENDBRANCH   2   3
BRANCH   2  17
HETATM   17  O   UNL     1     -13.161  12.877  64.897  1.00  0.00    -0.799 OA 
BRANCH  17  18
HETATM   18  C   UNL     1     -12.720  11.520  65.149  1.00  0.00     2.118 C  
HETATM   19  N   UNL     1     -10.699  11.590  63.636  1.00  0.00    -0.396 NA 
HETATM   20  C   UNL     1     -11.143  11.339  65.033  1.00  0.00    -0.089 C  
HETATM   21  O   UNL     1     -13.370  10.581  64.275  1.00  0.00     4.586 OA 
HETATM   22  C   UNL     1     -12.984  10.818  62.916  1.00  0.00     3.828 C  
HETATM   23  C   UNL     1     -11.467  10.704  62.728  1.00  0.00     2.256 C  
BRANCH  19  24
HETATM   24  C   UNL     1      -9.255  11.554  63.349  1.00  0.00    -0.081 C  
BRANCH  24  25
HETATM   25  C   UNL     1      -8.418  10.839  64.394  1.00  0.00     0.007 C  
HETATM   26  O   UNL     1      -9.122   7.302  66.341  1.00  0.00    -0.152 OA 
HETATM   27  O   UNL     1      -6.719   7.112  65.863  1.00  0.00    -0.050 OA 
HETATM   28  N   UNL     1      -7.117  10.972  64.472  1.00  0.00     0.574 NA 
HETATM   29  O   UNL     1      -7.473   7.938  68.191  1.00  0.00    -0.102 OA 
HETATM   30  C   UNL     1      -6.721  10.074  65.437  1.00  0.00    -0.115 C  
HETATM   31  O   UNL     1      -5.571   9.712  65.648  1.00  0.00    -0.047 OA 
HETATM   32  P   UNL     1      -7.725   8.008  66.726  1.00  0.00    -0.100 P  
HETATM   33  N   UNL     1      -7.832   9.509  66.007  1.00  0.00    -0.100 N  
HETATM   34  N   UNL     1      -8.970  10.000  65.333  1.00  0.00    -0.167 NA 
ENDBRANCH  24  25
ENDBRANCH  19  24
BRANCH  20  35
HETATM   35  C   UNL     1     -10.455  12.158  66.124  1.00  0.00    -0.281 A  
HETATM   36  C   UNL     1     -10.612  13.441  68.195  1.00  0.00    -0.255 A  
HETATM   37  F   UNL     1      -8.787  14.781  68.860  1.00  0.00    -0.168 F  
HETATM   38  C   UNL     1     -11.182  12.570  67.261  1.00  0.00    -0.347 A  
HETATM   39  C   UNL     1      -8.577  13.505  66.889  1.00  0.00    -0.114 A  
HETATM   40  C   UNL     1      -9.140  12.622  65.963  1.00  0.00     0.099 A  
HETATM   41  C   UNL     1      -9.318  13.913  67.989  1.00  0.00    -0.204 A  
ENDBRANCH  20  35
ENDBRANCH  17  18
ENDBRANCH   2  17
TORSDOF 6
ENDMDL
MODEL      331
REMARK 921   NORMALIZED FREE ENERGY PREDICTED BY IDOCK:   52.59 KCAL/MOL
REMARK 922        TOTAL FREE ENERGY PREDICTED BY IDOCK:   70.14 KCAL/MOL
REMARK 923 INTER-LIGAND FREE ENERGY PREDICTED BY IDOCK:   13.84 KCAL/MOL
REMARK 924 INTRA-LIGAND FREE ENERGY PREDICTED BY IDOCK:   56.30 KCAL/MOL
REMARK 927      BINDING AFFINITY PREDICTED BY RF-SCORE:    0.00 PKD
ROOT
HETATM    1  C   UNL     1      -9.360   6.790  68.885  1.00  0.00    -0.129 C  
HETATM    2  C   UNL     1      -9.476   7.956  69.859  1.00  0.00    -0.160 C  
ENDROOT
BRANCH   2   3
HETATM    3  C   UNL     1     -10.492   8.988  69.414  1.00  0.00    -0.229 A  
HETATM    4  F   UNL     1      -9.916  11.579  66.062  1.00  0.00    -0.221 F  
HETATM    5  F   UNL     1     -11.872  12.476  66.359  1.00  0.00    -0.402 F  
HETATM    6  C   UNL     1     -11.326   9.543  70.394  1.00  0.00    -0.318 A  
HETATM    7  C   UNL     1     -12.044  10.711  70.149  1.00  0.00    -0.414 A  
HETATM    8  F   UNL     1     -11.712  10.486  65.499  1.00  0.00     0.600 F  
HETATM    9  C   UNL     1     -12.736  11.415  71.295  1.00  0.00    -0.393 C  
HETATM   10  C   UNL     1     -12.003  11.276  68.865  1.00  0.00    -0.378 A  
HETATM   11  C   UNL     1     -11.189  11.300  66.455  1.00  0.00    -0.121 C  
HETATM   12  C   UNL     1     -11.246  10.686  67.836  1.00  0.00    -0.376 A  
HETATM   13  F   UNL     1     -12.766  10.678  72.440  1.00  0.00    -0.383 F  
HETATM   14  F   UNL     1     -12.113  12.578  71.618  1.00  0.00    -0.095 F  
HETATM   15  C   UNL     1     -10.485   9.542  68.124  1.00  0.00    -0.268 A  
HETATM   16  F   UNL     1     -14.025  11.734  71.016  1.00  0.00     0.704 F  
ENDBRANCH   2   3
BRANCH   2  17
HETATM   17  O   UNL     1      -8.194   8.569  70.072  1.00  0.00    -0.113 OA 
BRANCH  17  18
HETATM   18  C   UNL     1      -8.162   9.480  71.198  1.00  0.00     0.333 C  
HETATM   19  N   UNL     1      -6.294  10.941  70.332  1.00  0.00    -0.267 NA 
HETATM   20  C   UNL     1      -7.704  10.952  70.803  1.00  0.00     2.628 C  
HETATM   21  O   UNL     1      -7.319   8.987  72.253  1.00  0.00    -0.337 OA 
HETATM   22  C   UNL     1      -5.955   8.938  71.817  1.00  0.00    -0.065 C  
HETATM   23  C   UNL     1      -5.448  10.316  71.377  1.00  0.00    -0.025 C  
BRANCH  19  24
HETATM   24  C   UNL     1      -5.717  12.204  69.839  1.00  0.00    -0.124 C  
BRANCH  24  25
HETATM   25  C   UNL     1      -6.481  12.847  68.696  1.00  0.00    -0.087 C  
HETATM   26  O   UNL     1      -6.294  16.677  67.248  1.00  0.00    -0.148 OA 
HETATM   27  O   UNL     1      -6.417  15.384  65.161  1.00  0.00     8.414 OA 
HETATM   28  N   UNL     1      -6.942  12.163  67.679  1.00  0.00    -0.108 NA 
HETATM   29  O   UNL     1      -8.580  16.415  66.128  1.00  0.00    -0.319 OA 
HETATM   30  C   UNL     1      -7.440  13.105  66.808  1.00  0.00     0.624 C  
HETATM   31  O   UNL     1      -7.745  12.908  65.639  1.00  0.00     2.369 OA 
HETATM   32  P   UNL     1      -7.308  15.711  66.449  1.00  0.00     1.715 P  
HETATM   33  N   UNL     1      -7.374  14.340  67.397  1.00  0.00    -0.174 N  
HETATM   34  N   UNL     1      -6.741  14.197  68.650  1.00  0.00    -0.087 NA 
ENDBRANCH  24  25
ENDBRANCH  19  24
BRANCH  20  35
HETATM   35  C   UNL     1      -8.733  11.570  69.859  1.00  0.00     1.854 A  
HETATM   36  C   UNL     1      -9.518  13.502  68.588  1.00  0.00    -0.057 A  
HETATM   37  F   UNL     1     -11.705  13.484  67.702  1.00  0.00    -0.311 F  
HETATM   38  C   UNL     1      -8.522  12.862  69.332  1.00  0.00     1.146 A  
HETATM   39  C   UNL     1     -10.957  11.577  68.868  1.00  0.00    -0.279 A  
HETATM   40  C   UNL     1      -9.956  10.931  69.599  1.00  0.00     0.093 A  
HETATM   41  C   UNL     1     -10.734  12.856  68.377  1.00  0.00    -0.255 A  
ENDBRANCH  20  35
ENDBRANCH  17  18
ENDBRANCH   2  17
TORSDOF 6
ENDMDL
MODEL      332
REMARK 921   NORMALIZED FREE ENERGY PREDICTED BY IDOCK:   88.94 KCAL/MOL
REMARK 922        TOTAL FREE ENERGY PREDICTED BY IDOCK:  119.23 KCAL/MOL
REMARK 923 INTER-LIGAND FREE ENERGY PREDICTED BY IDOCK:  106.37 KCAL/MOL
REMARK 924 INTRA-LIGAND FREE ENERGY PREDICTED BY IDOCK:   12.86 KCAL/MOL
REMARK 927      BINDING AFFINITY PREDICTED BY RF-SCORE:    0.00 PKD
ROOT
HETATM    1  C   UNL     1      -8.821  15.676  67.798  1.00  0.00    -0.173 C  
HETATM    2  C   UNL     1     -10.319  15.772  68.054  1.00  0.00    -0.252 C  
ENDROOT
BRANCH   2   3
HETATM    3  C   UNL     1     -10.643  16.217  69.466  1.00  0.00    -0.314 A  
HETATM    4  F   UNL     1     -14.227  15.121  71.525  1.00  0.00    -0.464 F  
HETATM    5  F   UNL     1     -13.594  16.203  73.300  1.00  0.00    -0.625 F  
HETATM    6  C   UNL     1     -10.122  17.444  69.896  1.00  0.00     0.502 A  
HETATM    7  C   UNL     1     -10.625  18.082  71.028  1.00  0.00     2.506 A  
HETATM    8  F   UNL     1     -12.681  14.290  72.812  1.00  0.00    -0.420 F  
HETATM    9  C   UNL     1     -10.216  19.507  71.324  1.00  0.00     2.549 C  
HETATM   10  C   UNL     1     -11.598  17.428  71.799  1.00  0.00     1.862 A  
HETATM   11  C   UNL     1     -13.131  15.451  72.262  1.00  0.00    -0.405 C  
HETATM   12  C   UNL     1     -12.072  16.152  71.440  1.00  0.00    -0.384 A  
HETATM   13  F   UNL     1      -9.190  19.947  70.543  1.00  0.00     0.388 F  
HETATM   14  F   UNL     1     -11.240  20.376  71.116  1.00  0.00     2.500 F  
HETATM   15  C   UNL     1     -11.592  15.557  70.263  1.00  0.00    -0.355 A  
HETATM   16  F   UNL     1      -9.817  19.685  72.609  1.00  0.00     1.599 F  
ENDBRANCH   2   3
BRANCH   2  17
HETATM   17  O   UNL     1     -10.966  14.523  67.758  1.00  0.00    -0.263 OA 
BRANCH  17  18
HETATM   18  C   UNL     1     -10.591  13.962  66.476  1.00  0.00    -0.279 C  
HETATM   19  N   UNL     1     -12.555  14.875  65.178  1.00  0.00    -0.080 NA 
HETATM   20  C   UNL     1     -11.070  14.843  65.240  1.00  0.00    -0.378 C  
HETATM   21  O   UNL     1     -11.083  12.620  66.321  1.00  0.00    -0.275 OA 
HETATM   22  C   UNL     1     -12.515  12.617  66.288  1.00  0.00     0.282 C  
HETATM   23  C   UNL     1     -13.060  13.482  65.145  1.00  0.00    -0.043 C  
BRANCH  19  24
HETATM   24  C   UNL     1     -13.189  15.715  64.147  1.00  0.00     1.954 C  
BRANCH  24  25
HETATM   25  C   UNL     1     -13.254  17.194  64.485  1.00  0.00     8.375 C  
HETATM   26  O   UNL     1     -12.801  19.075  68.098  1.00  0.00     4.839 OA 
HETATM   27  O   UNL     1     -11.550  20.584  66.615  1.00  0.00     1.593 OA 
HETATM   28  N   UNL     1     -12.963  18.132  63.618  1.00  0.00    13.277 NA 
HETATM   29  O   UNL     1     -13.996  21.158  67.216  1.00  0.00     4.486 OA 
HETATM   30  C   UNL     1     -13.006  19.307  64.334  1.00  0.00    16.307 C  
HETATM   31  O   UNL     1     -12.568  20.387  63.960  1.00  0.00     6.206 OA 
HETATM   32  P   UNL     1     -13.047  20.071  66.854  1.00  0.00     8.509 P  
HETATM   33  N   UNL     1     -13.451  19.045  65.603  1.00  0.00    15.563 N  
HETATM   34  N   UNL     1     -13.622  17.649  65.729  1.00  0.00    12.886 NA 
ENDBRANCH  24  25
ENDBRANCH  19  24
BRANCH  20  35
HETATM   35  C   UNL     1     -10.359  16.194  65.272  1.00  0.00    -0.281 A  
HETATM   36  C   UNL     1      -8.730  17.681  66.318  1.00  0.00    -0.212 A  
HETATM   37  F   UNL     1      -8.729  19.971  65.747  1.00  0.00    -0.374 F  
HETATM   38  C   UNL     1      -9.293  16.410  66.170  1.00  0.00    -0.360 A  
HETATM   39  C   UNL     1     -10.272  18.552  64.671  1.00  0.00     3.806 A  
HETATM   40  C   UNL     1     -10.826  17.278  64.511  1.00  0.00     1.275 A  
HETATM   41  C   UNL     1      -9.238  18.744  65.576  1.00  0.00     1.037 A  
ENDBRANCH  20  35
ENDBRANCH  17  18
ENDBRANCH   2  17
TORSDOF 6
ENDMDL
MODEL      333
REMARK 921   NORMALIZED FREE ENERGY PREDICTED BY IDOCK:  103.47 KCAL/MOL
REMARK 922        TOTAL FREE ENERGY PREDICTED BY IDOCK:  138.86 KCAL/MOL
REMARK 923 INTER-LIGAND FREE ENERGY PREDICTED BY IDOCK:    7.42 KCAL/MOL
REMARK 924 INTRA-LIGAND FREE ENERGY PREDICTED BY IDOCK:  131.44 KCAL/MOL
REMARK 927      BINDING AFFINITY PREDICTED BY RF-SCORE:    0.00 PKD
ROOT
HETATM    1  C   UNL     1      -7.225   6.387  68.831  1.00  0.00    -0.084 C  
HETATM    2  C   UNL     1      -6.594   7.715  68.433  1.00  0.00    -0.054 C  
ENDROOT
BRANCH   2   3
HETATM    3  C   UNL     1      -6.801   8.795  69.475  1.00  0.00    -0.048 A  
HETATM    4  F   UNL     1      -8.251   8.022  73.422  1.00  0.00    -0.175 F  
HETATM    5  F   UNL     1      -8.087  10.124  73.945  1.00  0.00     3.381 F  
HETATM    6  C   UNL     1      -7.114  10.083  69.022  1.00  0.00    -0.069 A  
HETATM    7  C   UNL     1      -7.639  11.041  69.887  1.00  0.00     0.366 A  
HETATM    8  F   UNL     1      -6.297   8.898  73.811  1.00  0.00    -0.131 F  
HETATM    9  C   UNL     1      -8.192  12.330  69.324  1.00  0.00     0.690 C  
HETATM   10  C   UNL     1      -7.755  10.733  71.251  1.00  0.00     3.992 A  
HETATM   11  C   UNL     1      -7.497   9.136  73.215  1.00  0.00     0.872 C  
HETATM   12  C   UNL     1      -7.360   9.477  71.748  1.00  0.00     0.674 A  
HETATM   13  F   UNL     1      -7.901  12.511  68.006  1.00  0.00    -0.109 F  
HETATM   14  F   UNL     1      -9.547  12.376  69.415  1.00  0.00     0.296 F  
HETATM   15  C   UNL     1      -6.889   8.508  70.846  1.00  0.00    -0.052 A  
HETATM   16  F   UNL     1      -7.727  13.431  69.969  1.00  0.00     0.695 F  
ENDBRANCH   2   3
BRANCH   2  17
HETATM   17  O   UNL     1      -7.088   8.147  67.153  1.00  0.00    -0.076 OA 
BRANCH  17  18
HETATM   18  C   UNL     1      -8.530   8.268  67.096  1.00  0.00    -0.123 C  
HETATM   19  N   UNL     1      -9.045   5.873  67.709  1.00  0.00    -0.111 NA 
HETATM   20  C   UNL     1      -9.285   7.289  68.098  1.00  0.00    -0.132 C  
HETATM   21  O   UNL     1      -9.027   8.058  65.763  1.00  0.00    -0.165 OA 
HETATM   22  C   UNL     1      -8.782   6.708  65.350  1.00  0.00     0.007 C  
HETATM   23  C   UNL     1      -9.443   5.696  66.292  1.00  0.00    -0.155 C  
BRANCH  19  24
HETATM   24  C   UNL     1      -9.594   4.814  68.573  1.00  0.00    -0.156 C  
BRANCH  24  25
HETATM   25  C   UNL     1      -9.142   4.878  70.021  1.00  0.00    -0.109 C  
HETATM   26  O   UNL     1      -5.488   5.883  71.581  1.00  0.00    -0.020 OA 
HETATM   27  O   UNL     1      -7.002   7.029  73.141  1.00  0.00    -0.073 OA 
HETATM   28  N   UNL     1      -9.967   5.115  71.010  1.00  0.00    -0.195 NA 
HETATM   29  O   UNL     1      -6.055   4.713  73.785  1.00  0.00    -0.027 OA 
HETATM   30  C   UNL     1      -9.167   5.231  72.125  1.00  0.00    -0.139 C  
HETATM   31  O   UNL     1      -9.513   5.682  73.209  1.00  0.00    -0.142 OA 
HETATM   32  P   UNL     1      -6.613   5.545  72.685  1.00  0.00    -0.070 P  
HETATM   33  N   UNL     1      -7.875   4.931  71.783  1.00  0.00    -0.104 N  
HETATM   34  N   UNL     1      -7.831   4.693  70.393  1.00  0.00    -0.054 NA 
ENDBRANCH  24  25
ENDBRANCH  19  24
BRANCH  20  35
HETATM   35  C   UNL     1      -8.941   7.668  69.536  1.00  0.00    -0.139 A  
HETATM   36  C   UNL     1      -7.474   8.831  71.104  1.00  0.00    -0.115 A  
HETATM   37  F   UNL     1      -7.644   8.355  73.409  1.00  0.00    -0.178 F  
HETATM   38  C   UNL     1      -7.900   8.586  69.795  1.00  0.00    -0.094 A  
HETATM   39  C   UNL     1      -9.118   7.262  71.930  1.00  0.00    -0.146 A  
HETATM   40  C   UNL     1      -9.556   7.027  70.623  1.00  0.00    -0.165 A  
HETATM   41  C   UNL     1      -8.079   8.153  72.159  1.00  0.00    -0.138 A  
ENDBRANCH  20  35
ENDBRANCH  17  18
ENDBRANCH   2  17
TORSDOF 6
ENDMDL
MODEL      334
REMARK 921   NORMALIZED FREE ENERGY PREDICTED BY IDOCK:  105.81 KCAL/MOL
REMARK 922        TOTAL FREE ENERGY PREDICTED BY IDOCK:  142.03 KCAL/MOL
REMARK 923 INTER-LIGAND FREE ENERGY PREDICTED BY IDOCK:  130.37 KCAL/MOL
REMARK 924 INTRA-LIGAND FREE ENERGY PREDICTED BY IDOCK:   11.65 KCAL/MOL
REMARK 927      BINDING AFFINITY PREDICTED BY RF-SCORE:    0.00 PKD
ROOT
HETATM    1  C   UNL     1      -8.821  15.676  67.798  1.00  0.00    -0.173 C  
HETATM    2  C   UNL     1     -10.323  15.798  68.022  1.00  0.00    -0.252 C  
ENDROOT
BRANCH   2   3
HETATM    3  C   UNL     1     -10.668  16.272  69.418  1.00  0.00    -0.318 A  
HETATM    4  F   UNL     1      -8.770  19.597  71.322  1.00  0.00     1.702 F  
HETATM    5  F   UNL     1     -10.016  19.360  73.085  1.00  0.00     1.412 F  
HETATM    6  C   UNL     1     -11.137  15.318  70.331  1.00  0.00    -0.324 A  
HETATM    7  C   UNL     1     -11.162  15.582  71.698  1.00  0.00    -0.388 A  
HETATM    8  F   UNL     1     -10.854  20.221  71.273  1.00  0.00     1.506 F  
HETATM    9  C   UNL     1     -11.439  14.458  72.670  1.00  0.00     1.058 C  
HETATM   10  C   UNL     1     -10.806  16.863  72.149  1.00  0.00     2.161 A  
HETATM   11  C   UNL     1     -10.020  19.246  71.727  1.00  0.00     3.657 C  
HETATM   12  C   UNL     1     -10.419  17.869  71.244  1.00  0.00     2.995 A  
HETATM   13  F   UNL     1     -11.870  13.316  72.064  1.00  0.00     0.383 F  
HETATM   14  F   UNL     1     -10.326  14.111  73.367  1.00  0.00     2.774 F  
HETATM   15  C   UNL     1     -10.346  17.559  69.876  1.00  0.00     0.490 A  
HETATM   16  F   UNL     1     -12.385  14.777  73.591  1.00  0.00    -0.504 F  
ENDBRANCH   2   3
BRANCH   2  17
HETATM   17  O   UNL     1     -10.981  14.553  67.733  1.00  0.00    -0.263 OA 
BRANCH  17  18
HETATM   18  C   UNL     1     -10.780  14.087  66.377  1.00  0.00    -0.278 C  
HETATM   19  N   UNL     1     -12.923  15.028  65.429  1.00  0.00     0.256 NA 
HETATM   20  C   UNL     1     -11.444  15.033  65.282  1.00  0.00    -0.308 C  
HETATM   21  O   UNL     1     -11.264  12.745  66.200  1.00  0.00    -0.279 OA 
HETATM   22  C   UNL     1     -12.686  12.704  66.366  1.00  0.00     1.026 C  
HETATM   23  C   UNL     1     -13.402  13.626  65.372  1.00  0.00     0.368 C  
BRANCH  19  24
HETATM   24  C   UNL     1     -13.711  15.916  64.556  1.00  0.00     3.594 C  
BRANCH  24  25
HETATM   25  C   UNL     1     -13.755  17.366  65.000  1.00  0.00    12.582 C  
HETATM   26  O   UNL     1     -12.834  19.021  68.635  1.00  0.00     6.945 OA 
HETATM   27  O   UNL     1     -11.832  20.657  67.099  1.00  0.00     2.517 OA 
HETATM   28  N   UNL     1     -13.607  18.366  64.167  1.00  0.00    17.573 NA 
HETATM   29  O   UNL     1     -14.180  21.123  68.071  1.00  0.00     4.090 OA 
HETATM   30  C   UNL     1     -13.570  19.491  64.961  1.00  0.00    19.824 C  
HETATM   31  O   UNL     1     -13.209  20.605  64.604  1.00  0.00     8.691 OA 
HETATM   32  P   UNL     1     -13.271  20.088  67.508  1.00  0.00     8.355 P  
HETATM   33  N   UNL     1     -13.827  19.134  66.258  1.00  0.00    13.135 N  
HETATM   34  N   UNL     1     -13.954  17.730  66.311  1.00  0.00    14.416 NA 
ENDBRANCH  24  25
ENDBRANCH  19  24
BRANCH  20  35
HETATM   35  C   UNL     1     -10.761  16.399  65.307  1.00  0.00    -0.312 A  
HETATM   36  C   UNL     1      -8.810  17.757  65.865  1.00  0.00     0.120 A  
HETATM   37  F   UNL     1      -9.007  20.108  65.867  1.00  0.00    -0.376 F  
HETATM   38  C   UNL     1      -9.408  16.505  65.694  1.00  0.00     0.057 A  
HETATM   39  C   UNL     1     -10.892  18.830  65.261  1.00  0.00     0.534 A  
HETATM   40  C   UNL     1     -11.486  17.578  65.074  1.00  0.00     1.395 A  
HETATM   41  C   UNL     1      -9.566  18.909  65.661  1.00  0.00     0.531 A  
ENDBRANCH  20  35
ENDBRANCH  17  18
ENDBRANCH   2  17
TORSDOF 6
ENDMDL
