MODEL        1
REMARK 921   NORMALIZED FREE ENERGY PREDICTED BY IDOCK:   -7.80 KCAL/MOL
REMARK 922        TOTAL FREE ENERGY PREDICTED BY IDOCK:  -16.07 KCAL/MOL
REMARK 923 INTER-LIGAND FREE ENERGY PREDICTED BY IDOCK:  -13.26 KCAL/MOL
REMARK 924 INTRA-LIGAND FREE ENERGY PREDICTED BY IDOCK:   -2.80 KCAL/MOL
REMARK 927      BINDING AFFINITY PREDICTED BY RF-SCORE:    0.00 PKD
ROOT
HETATM    1  C   UNL     1     -10.128  19.715  68.570  1.00  0.00    -0.557 C  
HETATM    2  C   UNL     1     -10.611  19.077  67.277  1.00  0.00    -0.554 C  
HETATM    3  C   UNL     1     -10.635  20.032  66.082  1.00  0.00    -0.464 C  
HETATM    4  C   UNL     1     -10.191  17.672  66.832  1.00  0.00    -0.334 C  
ENDROOT
BRANCH   4   5
HETATM    5  N   UNL     1      -8.888  16.981  67.058  1.00  0.00    -0.217 N  
BRANCH   5   6
HETATM    6  C   UNL     1      -9.100  15.492  66.652  1.00  0.00    -0.279 C  
BRANCH   6   7
HETATM    7  C   UNL     1      -9.097  14.427  67.842  1.00  0.00    -0.187 C  
BRANCH   7   8
HETATM    8  C   UNL     1     -10.442  14.529  68.718  1.00  0.00    -0.246 C  
BRANCH   8   9
HETATM    9  N   UNL     1     -11.014  13.210  69.045  1.00  0.00    -0.356 N  
HETATM   10  C   UNL     1     -11.771  12.519  68.134  1.00  0.00    -0.348 C  
HETATM   11  H   UNL     1     -10.843  12.805  69.965  1.00  0.00     0.000 HD 
HETATM   12  O   UNL     1     -12.000  12.864  66.986  1.00  0.00    -0.381 OA 
BRANCH  10  13
HETATM   13  O   UNL     1     -12.221  11.363  68.693  1.00  0.00    -0.532 OA 
BRANCH  13  14
HETATM   14  C   UNL     1     -11.439  10.881  69.801  1.00  0.00    -0.313 C  
HETATM   15  C   UNL     1     -12.262  10.494  71.008  1.00  0.00    -0.505 C  
HETATM   16  O   UNL     1     -10.733   8.739  70.611  1.00  0.00    -0.209 OA 
HETATM   17  C   UNL     1     -11.421   9.424  71.662  1.00  0.00    -0.393 C  
HETATM   18  C   UNL     1     -10.766   9.562  69.435  1.00  0.00    -0.225 C  
ENDBRANCH  13  14
ENDBRANCH  10  13
ENDBRANCH   8   9
BRANCH   8  19
HETATM   19  C   UNL     1     -10.414  15.442  69.966  1.00  0.00    -0.301 C  
BRANCH  19  20
HETATM   20  C   UNL     1     -11.563  15.343  70.933  1.00  0.00    -0.396 A  
HETATM   21  C   UNL     1     -13.945  15.377  71.392  1.00  0.00    -0.565 A  
HETATM   22  C   UNL     1     -12.366  15.406  73.218  1.00  0.00    -0.594 A  
HETATM   23  C   UNL     1     -11.310  15.363  72.309  1.00  0.00    -0.421 A  
HETATM   24  C   UNL     1     -12.890  15.343  70.480  1.00  0.00    -0.425 A  
HETATM   25  C   UNL     1     -13.682  15.416  72.760  1.00  0.00    -0.613 A  
ENDBRANCH  19  20
ENDBRANCH   8  19
ENDBRANCH   7   8
BRANCH   7  26
HETATM   26  O   UNL     1      -7.825  14.417  68.590  1.00  0.00    -0.131 OA 
HETATM   27  O   UNL     1      -6.248  11.556  68.866  1.00  0.00    -0.049 OA 
HETATM   28  O   UNL     1      -6.206  13.309  67.365  1.00  0.00    -0.277 OA 
HETATM   29  O   UNL     1      -8.199  12.065  68.058  1.00  0.00    -0.138 OA 
HETATM   30  P   UNL     1      -6.993  12.907  68.735  1.00  0.00    -0.062 P  
ENDBRANCH   7  26
ENDBRANCH   6   7
ENDBRANCH   5   6
BRANCH   5  31
HETATM   31  S   UNL     1      -7.337  17.507  66.571  1.00  0.00    -0.299 S  
HETATM   32  O   UNL     1      -7.460  18.321  65.380  1.00  0.00    -0.502 OA 
HETATM   33  O   UNL     1      -6.469  16.347  66.527  1.00  0.00    -0.255 OA 
BRANCH  31  34
HETATM   34  C   UNL     1      -6.673  18.573  67.798  1.00  0.00    -0.212 A  
HETATM   35  N   UNL     1      -5.315  21.029  70.898  1.00  0.00    -0.557 NA 
HETATM   36  C   UNL     1      -6.607  19.950  67.591  1.00  0.00    -0.262 A  
HETATM   37  H1  UNL     1      -5.017  20.623  71.785  1.00  0.00     0.000 HD 
HETATM   38  H2  UNL     1      -6.053  21.707  71.090  1.00  0.00     0.000 HD 
HETATM   39  C   UNL     1      -6.428  18.034  69.062  1.00  0.00    -0.240 A  
HETATM   40  C   UNL     1      -5.966  18.851  70.083  1.00  0.00    -0.205 A  
HETATM   41  C   UNL     1      -6.149  20.765  68.629  1.00  0.00    -0.351 A  
HETATM   42  C   UNL     1      -5.738  20.208  69.848  1.00  0.00    -0.311 A  
ENDBRANCH  31  34
ENDBRANCH   5  31
ENDBRANCH   4   5
TORSDOF 12
ENDMDL
MODEL        2
REMARK 921   NORMALIZED FREE ENERGY PREDICTED BY IDOCK:   -7.58 KCAL/MOL
REMARK 922        TOTAL FREE ENERGY PREDICTED BY IDOCK:  -15.69 KCAL/MOL
REMARK 923 INTER-LIGAND FREE ENERGY PREDICTED BY IDOCK:  -13.55 KCAL/MOL
REMARK 924 INTRA-LIGAND FREE ENERGY PREDICTED BY IDOCK:   -2.14 KCAL/MOL
REMARK 927      BINDING AFFINITY PREDICTED BY RF-SCORE:    0.00 PKD
ROOT
HETATM    1  C   UNL     1      -6.807  12.128  69.424  1.00  0.00    -0.010 C  
HETATM    2  C   UNL     1      -7.444  12.348  68.062  1.00  0.00    -0.114 C  
HETATM    3  C   UNL     1      -6.799  11.540  66.934  1.00  0.00    -0.138 C  
HETATM    4  C   UNL     1      -8.960  12.441  67.855  1.00  0.00    -0.184 C  
ENDROOT
BRANCH   4   5
HETATM    5  N   UNL     1     -10.041  11.730  68.598  1.00  0.00    -0.212 N  
BRANCH   5   6
HETATM    6  C   UNL     1     -11.391  12.315  68.083  1.00  0.00    -0.295 C  
BRANCH   6   7
HETATM    7  C   UNL     1     -11.334  13.788  67.469  1.00  0.00    -0.309 C  
BRANCH   7   8
HETATM    8  C   UNL     1     -11.016  14.880  68.605  1.00  0.00    -0.257 C  
BRANCH   8   9
HETATM    9  N   UNL     1      -9.966  15.834  68.203  1.00  0.00    -0.213 N  
HETATM   10  C   UNL     1      -8.844  16.020  68.970  1.00  0.00    -0.244 C  
HETATM   11  H   UNL     1     -10.077  16.365  67.339  1.00  0.00     0.000 HD 
HETATM   12  O   UNL     1      -8.565  15.410  69.988  1.00  0.00    -0.022 OA 
BRANCH  10  13
HETATM   13  O   UNL     1      -8.062  16.984  68.412  1.00  0.00    -0.224 OA 
BRANCH  13  14
HETATM   14  C   UNL     1      -8.758  17.913  67.561  1.00  0.00    -0.243 C  
HETATM   15  C   UNL     1      -8.908  19.294  68.157  1.00  0.00    -0.373 C  
HETATM   16  O   UNL     1      -8.137  19.567  65.942  1.00  0.00    -0.397 OA 
HETATM   17  C   UNL     1      -8.957  20.185  66.940  1.00  0.00    -0.344 C  
HETATM   18  C   UNL     1      -7.938  18.193  66.307  1.00  0.00    -0.236 C  
ENDBRANCH  13  14
ENDBRANCH  10  13
ENDBRANCH   8   9
BRANCH   8  19
HETATM   19  C   UNL     1     -12.217  15.619  69.243  1.00  0.00    -0.167 C  
BRANCH  19  20
HETATM   20  C   UNL     1     -12.481  15.392  70.707  1.00  0.00    -0.476 A  
HETATM   21  C   UNL     1     -11.878  15.711  73.035  1.00  0.00    -0.558 A  
HETATM   22  C   UNL     1     -13.608  14.133  72.443  1.00  0.00    -0.632 A  
HETATM   23  C   UNL     1     -13.442  14.453  71.097  1.00  0.00    -0.368 A  
HETATM   24  C   UNL     1     -11.704  16.026  71.687  1.00  0.00    -0.583 A  
HETATM   25  C   UNL     1     -12.824  14.759  73.411  1.00  0.00    -0.597 A  
ENDBRANCH  19  20
ENDBRANCH   8  19
ENDBRANCH   7   8
BRANCH   7  26
HETATM   26  O   UNL     1     -12.478  14.075  66.582  1.00  0.00    -0.420 OA 
HETATM   27  O   UNL     1     -12.059  13.613  63.364  1.00  0.00    -0.482 OA 
HETATM   28  O   UNL     1     -12.798  12.311  65.120  1.00  0.00    -0.522 OA 
HETATM   29  O   UNL     1     -10.673  13.527  65.034  1.00  0.00    -0.317 OA 
HETATM   30  P   UNL     1     -12.257  13.831  64.884  1.00  0.00    -0.414 P  
ENDBRANCH   7  26
ENDBRANCH   6   7
ENDBRANCH   5   6
BRANCH   5  31
HETATM   31  S   UNL     1     -10.190  10.047  68.853  1.00  0.00    -0.206 S  
HETATM   32  O   UNL     1      -8.908   9.511  69.261  1.00  0.00    -0.136 OA 
HETATM   33  O   UNL     1     -10.837   9.478  67.688  1.00  0.00    -0.279 OA 
BRANCH  31  34
HETATM   34  C   UNL     1     -11.268   9.759  70.208  1.00  0.00    -0.288 A  
HETATM   35  N   UNL     1     -13.983   8.876  73.264  1.00  0.00    -1.217 NA 
HETATM   36  C   UNL     1     -12.076  10.777  70.711  1.00  0.00    -0.473 A  
HETATM   37  H1  UNL     1     -14.037   7.933  73.650  1.00  0.00     0.000 HD 
HETATM   38  H2  UNL     1     -14.911   9.137  72.928  1.00  0.00     0.000 HD 
HETATM   39  C   UNL     1     -11.460   8.437  70.615  1.00  0.00    -0.235 A  
HETATM   40  C   UNL     1     -12.352   8.152  71.637  1.00  0.00    -0.347 A  
HETATM   41  C   UNL     1     -12.978  10.477  71.735  1.00  0.00    -0.582 A  
HETATM   42  C   UNL     1     -13.053   9.183  72.265  1.00  0.00    -0.438 A  
ENDBRANCH  31  34
ENDBRANCH   5  31
ENDBRANCH   4   5
TORSDOF 12
ENDMDL
MODEL        3
REMARK 921   NORMALIZED FREE ENERGY PREDICTED BY IDOCK:   -7.45 KCAL/MOL
REMARK 922        TOTAL FREE ENERGY PREDICTED BY IDOCK:  -15.48 KCAL/MOL
REMARK 923 INTER-LIGAND FREE ENERGY PREDICTED BY IDOCK:  -12.77 KCAL/MOL
REMARK 924 INTRA-LIGAND FREE ENERGY PREDICTED BY IDOCK:   -2.70 KCAL/MOL
REMARK 927      BINDING AFFINITY PREDICTED BY RF-SCORE:    0.00 PKD
ROOT
HETATM    1  C   UNL     1     -12.323  10.644  70.061  1.00  0.00    -0.341 C  
HETATM    2  C   UNL     1     -10.902  10.115  70.168  1.00  0.00    -0.368 C  
HETATM    3  C   UNL     1     -10.815   8.608  70.422  1.00  0.00    -0.250 C  
HETATM    4  C   UNL     1      -9.771  10.568  69.239  1.00  0.00    -0.196 C  
ENDROOT
BRANCH   4   5
HETATM    5  N   UNL     1      -9.854  10.960  67.801  1.00  0.00    -0.173 N  
BRANCH   5   6
HETATM    6  C   UNL     1      -9.372  12.439  67.716  1.00  0.00    -0.196 C  
BRANCH   6   7
HETATM    7  C   UNL     1     -10.495  13.532  67.410  1.00  0.00    -0.247 C  
BRANCH   7   8
HETATM    8  C   UNL     1     -10.900  14.340  68.740  1.00  0.00    -0.253 C  
BRANCH   8   9
HETATM    9  N   UNL     1     -10.804  15.801  68.574  1.00  0.00    -0.274 N  
HETATM   10  C   UNL     1      -9.666  16.483  68.925  1.00  0.00    -0.257 C  
HETATM   11  H   UNL     1     -11.597  16.315  68.191  1.00  0.00     0.000 HD 
HETATM   12  O   UNL     1      -8.632  15.984  69.337  1.00  0.00    -0.247 OA 
BRANCH  10  13
HETATM   13  O   UNL     1      -9.849  17.816  68.725  1.00  0.00    -0.332 OA 
BRANCH  13  14
HETATM   14  C   UNL     1     -10.014  18.206  67.349  1.00  0.00    -0.323 C  
HETATM   15  C   UNL     1     -10.828  19.466  67.164  1.00  0.00    -0.561 C  
HETATM   16  O   UNL     1      -8.893  19.680  65.828  1.00  0.00    -0.393 OA 
HETATM   17  C   UNL     1     -10.277  20.040  65.881  1.00  0.00    -0.421 C  
HETATM   18  C   UNL     1      -8.669  18.603  66.750  1.00  0.00    -0.292 C  
ENDBRANCH  13  14
ENDBRANCH  10  13
ENDBRANCH   8   9
BRANCH   8  19
HETATM   19  C   UNL     1     -12.225  13.950  69.436  1.00  0.00    -0.338 C  
BRANCH  19  20
HETATM   20  C   UNL     1     -12.590  14.675  70.704  1.00  0.00    -0.419 A  
HETATM   21  C   UNL     1     -11.991  15.535  72.892  1.00  0.00    -0.575 A  
HETATM   22  C   UNL     1     -14.305  15.505  72.201  1.00  0.00    -0.598 A  
HETATM   23  C   UNL     1     -13.934  14.955  70.975  1.00  0.00    -0.297 A  
HETATM   24  C   UNL     1     -11.619  14.976  71.668  1.00  0.00    -0.416 A  
HETATM   25  C   UNL     1     -13.335  15.792  73.159  1.00  0.00    -0.685 A  
ENDBRANCH  19  20
ENDBRANCH   8  19
ENDBRANCH   7   8
BRANCH   7  26
HETATM   26  O   UNL     1     -11.606  12.991  66.605  1.00  0.00    -0.322 OA 
HETATM   27  O   UNL     1     -12.664  14.788  64.074  1.00  0.00    -0.786 OA 
HETATM   28  O   UNL     1     -11.084  13.129  64.355  1.00  0.00    -0.345 OA 
HETATM   29  O   UNL     1     -11.228  15.205  65.649  1.00  0.00    -0.336 OA 
HETATM   30  P   UNL     1     -12.164  13.940  65.269  1.00  0.00    -0.476 P  
ENDBRANCH   7  26
ENDBRANCH   6   7
ENDBRANCH   5   6
BRANCH   5  31
HETATM   31  S   UNL     1      -9.287  10.079  66.452  1.00  0.00    -0.176 S  
HETATM   32  O   UNL     1      -7.883  10.370  66.247  1.00  0.00    -0.120 OA 
HETATM   33  O   UNL     1     -10.206  10.308  65.355  1.00  0.00    -0.297 OA 
BRANCH  31  34
HETATM   34  C   UNL     1      -9.360   8.362  66.807  1.00  0.00    -0.184 A  
HETATM   35  N   UNL     1      -9.732   4.334  67.868  1.00  0.00    -0.145 NA 
HETATM   36  C   UNL     1      -8.235   7.673  67.257  1.00  0.00    -0.119 A  
HETATM   37  H1  UNL     1     -10.629   3.856  67.777  1.00  0.00     0.000 HD 
HETATM   38  H2  UNL     1      -9.420   4.247  68.835  1.00  0.00     0.000 HD 
HETATM   39  C   UNL     1     -10.620   7.760  66.844  1.00  0.00    -0.347 A  
HETATM   40  C   UNL     1     -10.735   6.421  67.184  1.00  0.00    -0.433 A  
HETATM   41  C   UNL     1      -8.364   6.327  67.606  1.00  0.00    -0.117 A  
HETATM   42  C   UNL     1      -9.596   5.671  67.482  1.00  0.00    -0.118 A  
ENDBRANCH  31  34
ENDBRANCH   5  31
ENDBRANCH   4   5
TORSDOF 12
ENDMDL
MODEL        4
REMARK 921   NORMALIZED FREE ENERGY PREDICTED BY IDOCK:   -7.12 KCAL/MOL
REMARK 922        TOTAL FREE ENERGY PREDICTED BY IDOCK:  -14.92 KCAL/MOL
REMARK 923 INTER-LIGAND FREE ENERGY PREDICTED BY IDOCK:  -12.59 KCAL/MOL
REMARK 924 INTRA-LIGAND FREE ENERGY PREDICTED BY IDOCK:   -2.33 KCAL/MOL
REMARK 927      BINDING AFFINITY PREDICTED BY RF-SCORE:    0.00 PKD
ROOT
HETATM    1  C   UNL     1      -9.714  17.851  68.091  1.00  0.00    -0.320 C  
HETATM    2  C   UNL     1      -9.143  17.237  66.823  1.00  0.00    -0.269 C  
HETATM    3  C   UNL     1      -7.953  18.002  66.240  1.00  0.00    -0.276 C  
HETATM    4  C   UNL     1      -8.950  15.727  66.641  1.00  0.00    -0.280 C  
ENDROOT
BRANCH   4   5
HETATM    5  N   UNL     1      -8.598  14.708  67.672  1.00  0.00    -0.166 N  
BRANCH   5   6
HETATM    6  C   UNL     1      -9.453  13.444  67.357  1.00  0.00    -0.222 C  
BRANCH   6   7
HETATM    7  C   UNL     1     -11.009  13.691  67.097  1.00  0.00    -0.288 C  
BRANCH   7   8
HETATM    8  C   UNL     1     -11.814  13.842  68.481  1.00  0.00    -0.370 C  
BRANCH   8   9
HETATM    9  N   UNL     1     -11.358  12.894  69.514  1.00  0.00    -0.447 N  
HETATM   10  C   UNL     1     -11.712  11.569  69.468  1.00  0.00    -0.346 C  
HETATM   11  H   UNL     1     -10.769  13.229  70.275  1.00  0.00     0.000 HD 
HETATM   12  O   UNL     1     -12.360  11.033  68.585  1.00  0.00    -0.539 OA 
BRANCH  10  13
HETATM   13  O   UNL     1     -11.212  10.923  70.556  1.00  0.00    -0.240 OA 
BRANCH  13  14
HETATM   14  C   UNL     1     -11.839   9.662  70.854  1.00  0.00    -0.323 C  
HETATM   15  C   UNL     1     -10.973   8.726  71.666  1.00  0.00    -0.391 C  
HETATM   16  O   UNL     1     -13.110   8.755  72.671  1.00  0.00    -0.391 OA 
HETATM   17  C   UNL     1     -11.986   7.903  72.426  1.00  0.00    -0.320 C  
HETATM   18  C   UNL     1     -13.034   9.874  71.776  1.00  0.00    -0.449 C  
ENDBRANCH  13  14
ENDBRANCH  10  13
ENDBRANCH   8   9
BRANCH   8  19
HETATM   19  C   UNL     1     -11.966  15.265  69.068  1.00  0.00    -0.304 C  
BRANCH  19  20
HETATM   20  C   UNL     1     -12.432  15.389  70.493  1.00  0.00    -0.468 A  
HETATM   21  C   UNL     1     -14.187  15.234  72.161  1.00  0.00    -0.667 A  
HETATM   22  C   UNL     1     -12.071  16.250  72.729  1.00  0.00    -0.637 A  
HETATM   23  C   UNL     1     -11.605  16.006  71.438  1.00  0.00    -0.520 A  
HETATM   24  C   UNL     1     -13.726  14.997  70.866  1.00  0.00    -0.319 A  
HETATM   25  C   UNL     1     -13.361  15.867  73.089  1.00  0.00    -0.681 A  
ENDBRANCH  19  20
ENDBRANCH   8  19
ENDBRANCH   7   8
BRANCH   7  26
HETATM   26  O   UNL     1     -11.573  12.753  66.107  1.00  0.00    -0.338 OA 
HETATM   27  O   UNL     1     -12.633  14.000  63.266  1.00  0.00    -0.801 OA 
HETATM   28  O   UNL     1     -10.630  13.146  64.031  1.00  0.00    -0.402 OA 
HETATM   29  O   UNL     1     -11.918  14.943  65.087  1.00  0.00    -0.308 OA 
HETATM   30  P   UNL     1     -12.132  13.412  64.608  1.00  0.00    -0.427 P  
ENDBRANCH   7  26
ENDBRANCH   6   7
ENDBRANCH   5   6
BRANCH   5  31
HETATM   31  S   UNL     1      -7.033  14.246  68.181  1.00  0.00    -0.148 S  
HETATM   32  O   UNL     1      -6.868  14.579  69.580  1.00  0.00    -0.146 OA 
HETATM   33  O   UNL     1      -6.082  14.780  67.227  1.00  0.00    -0.306 OA 
BRANCH  31  34
HETATM   34  C   UNL     1      -6.888  12.499  68.097  1.00  0.00    -0.084 A  
HETATM   35  N   UNL     1      -6.344   8.353  68.119  1.00  0.00    -0.054 NA 
HETATM   36  C   UNL     1      -6.400  11.873  66.950  1.00  0.00    -0.107 A  
HETATM   37  H1  UNL     1      -6.585   7.805  68.945  1.00  0.00     0.000 HD 
HETATM   38  H2  UNL     1      -5.364   8.176  67.894  1.00  0.00     0.000 HD 
HETATM   39  C   UNL     1      -7.057  11.776  69.280  1.00  0.00    -0.032 A  
HETATM   40  C   UNL     1      -6.887  10.400  69.278  1.00  0.00    -0.073 A  
HETATM   41  C   UNL     1      -6.225  10.488  66.962  1.00  0.00    -0.066 A  
HETATM   42  C   UNL     1      -6.556   9.735  68.096  1.00  0.00    -0.060 A  
ENDBRANCH  31  34
ENDBRANCH   5  31
ENDBRANCH   4   5
TORSDOF 12
ENDMDL
MODEL        5
REMARK 921   NORMALIZED FREE ENERGY PREDICTED BY IDOCK:   -7.06 KCAL/MOL
REMARK 922        TOTAL FREE ENERGY PREDICTED BY IDOCK:  -14.82 KCAL/MOL
REMARK 923 INTER-LIGAND FREE ENERGY PREDICTED BY IDOCK:  -12.53 KCAL/MOL
REMARK 924 INTRA-LIGAND FREE ENERGY PREDICTED BY IDOCK:   -2.29 KCAL/MOL
REMARK 927      BINDING AFFINITY PREDICTED BY RF-SCORE:    0.00 PKD
ROOT
HETATM    1  C   UNL     1      -8.438  10.675  64.978  1.00  0.00    -0.135 C  
HETATM    2  C   UNL     1      -9.378   9.526  65.304  1.00  0.00    -0.317 C  
HETATM    3  C   UNL     1      -8.751   8.140  65.136  1.00  0.00    -0.047 C  
HETATM    4  C   UNL     1     -10.329   9.541  66.506  1.00  0.00    -0.193 C  
ENDROOT
BRANCH   4   5
HETATM    5  N   UNL     1     -10.120  10.167  67.845  1.00  0.00    -0.169 N  
BRANCH   5   6
HETATM    6  C   UNL     1     -11.353  11.085  68.102  1.00  0.00    -0.307 C  
BRANCH   6   7
HETATM    7  C   UNL     1     -11.359  12.489  67.344  1.00  0.00    -0.313 C  
BRANCH   7   8
HETATM    8  C   UNL     1     -10.980  13.692  68.342  1.00  0.00    -0.262 C  
BRANCH   8   9
HETATM    9  N   UNL     1      -9.914  14.561  67.812  1.00  0.00    -0.223 N  
HETATM   10  C   UNL     1      -8.597  14.346  68.130  1.00  0.00    -0.166 C  
HETATM   11  H   UNL     1     -10.160  15.336  67.197  1.00  0.00     0.000 HD 
HETATM   12  O   UNL     1      -8.167  13.425  68.804  1.00  0.00    -0.069 OA 
BRANCH  10  13
HETATM   13  O   UNL     1      -7.824  15.309  67.561  1.00  0.00    -0.144 OA 
BRANCH  13  14
HETATM   14  C   UNL     1      -8.413  16.622  67.533  1.00  0.00    -0.188 C  
HETATM   15  C   UNL     1      -7.806  17.586  68.526  1.00  0.00    -0.274 C  
HETATM   16  O   UNL     1      -7.932  18.705  66.451  1.00  0.00    -0.266 OA 
HETATM   17  C   UNL     1      -8.008  18.927  67.863  1.00  0.00    -0.271 C  
HETATM   18  C   UNL     1      -8.115  17.304  66.202  1.00  0.00    -0.237 C  
ENDBRANCH  13  14
ENDBRANCH  10  13
ENDBRANCH   8   9
BRANCH   8  19
HETATM   19  C   UNL     1     -12.142  14.534  68.920  1.00  0.00    -0.272 C  
BRANCH  19  20
HETATM   20  C   UNL     1     -12.289  14.591  70.417  1.00  0.00    -0.400 A  
HETATM   21  C   UNL     1     -13.375  13.863  72.460  1.00  0.00    -0.656 A  
HETATM   22  C   UNL     1     -11.870  15.752  72.502  1.00  0.00    -0.605 A  
HETATM   23  C   UNL     1     -11.641  15.602  71.135  1.00  0.00    -0.462 A  
HETATM   24  C   UNL     1     -13.154  13.717  71.090  1.00  0.00    -0.306 A  
HETATM   25  C   UNL     1     -12.739  14.886  73.163  1.00  0.00    -0.596 A  
ENDBRANCH  19  20
ENDBRANCH   8  19
ENDBRANCH   7   8
BRANCH   7  26
HETATM   26  O   UNL     1     -12.564  12.679  66.514  1.00  0.00    -0.252 OA 
HETATM   27  O   UNL     1     -12.176  14.055  63.564  1.00  0.00    -0.626 OA 
HETATM   28  O   UNL     1     -12.174  11.893  64.374  1.00  0.00    -0.282 OA 
HETATM   29  O   UNL     1     -10.795  13.739  65.209  1.00  0.00    -0.299 OA 
HETATM   30  P   UNL     1     -12.359  13.405  64.957  1.00  0.00    -0.426 P  
ENDBRANCH   7  26
ENDBRANCH   6   7
ENDBRANCH   5   6
BRANCH   5  31
HETATM   31  S   UNL     1      -9.654   9.389  69.293  1.00  0.00    -0.179 S  
HETATM   32  O   UNL     1      -8.756  10.251  70.031  1.00  0.00    -0.081 OA 
HETATM   33  O   UNL     1      -9.205   8.053  68.953  1.00  0.00    -0.147 OA 
BRANCH  31  34
HETATM   34  C   UNL     1     -11.061   9.189  70.322  1.00  0.00    -0.239 A  
HETATM   35  N   UNL     1     -14.264   8.854  72.990  1.00  0.00    -1.158 NA 
HETATM   36  C   UNL     1     -11.508   7.920  70.689  1.00  0.00    -0.247 A  
HETATM   37  H1  UNL     1     -14.726   9.690  73.350  1.00  0.00     0.000 HD 
HETATM   38  H2  UNL     1     -13.939   8.303  73.785  1.00  0.00     0.000 HD 
HETATM   39  C   UNL     1     -11.579  10.328  70.943  1.00  0.00    -0.454 A  
HETATM   40  C   UNL     1     -12.649  10.212  71.817  1.00  0.00    -0.500 A  
HETATM   41  C   UNL     1     -12.580   7.815  71.577  1.00  0.00    -0.356 A  
HETATM   42  C   UNL     1     -13.215   8.962  72.072  1.00  0.00    -0.409 A  
ENDBRANCH  31  34
ENDBRANCH   5  31
ENDBRANCH   4   5
TORSDOF 12
ENDMDL
MODEL        6
REMARK 921   NORMALIZED FREE ENERGY PREDICTED BY IDOCK:   -6.96 KCAL/MOL
REMARK 922        TOTAL FREE ENERGY PREDICTED BY IDOCK:  -14.64 KCAL/MOL
REMARK 923 INTER-LIGAND FREE ENERGY PREDICTED BY IDOCK:  -13.45 KCAL/MOL
REMARK 924 INTRA-LIGAND FREE ENERGY PREDICTED BY IDOCK:   -1.19 KCAL/MOL
REMARK 927      BINDING AFFINITY PREDICTED BY RF-SCORE:    0.00 PKD
ROOT
HETATM    1  C   UNL     1      -6.432  11.968  66.853  1.00  0.00    -0.060 C  
HETATM    2  C   UNL     1      -7.859  11.782  67.341  1.00  0.00    -0.155 C  
HETATM    3  C   UNL     1      -7.965  11.163  68.737  1.00  0.00    -0.144 C  
HETATM    4  C   UNL     1      -8.955  12.835  67.138  1.00  0.00    -0.214 C  
ENDROOT
BRANCH   4   5
HETATM    5  N   UNL     1      -8.819  14.321  67.118  1.00  0.00    -0.219 N  
BRANCH   5   6
HETATM    6  C   UNL     1     -10.213  14.888  66.716  1.00  0.00    -0.259 C  
BRANCH   6   7
HETATM    7  C   UNL     1     -11.463  13.922  66.948  1.00  0.00    -0.351 C  
BRANCH   7   8
HETATM    8  C   UNL     1     -11.886  13.881  68.499  1.00  0.00    -0.366 C  
BRANCH   8   9
HETATM    9  N   UNL     1     -11.152  12.858  69.265  1.00  0.00    -0.424 N  
HETATM   10  C   UNL     1     -11.643  11.584  69.401  1.00  0.00    -0.321 C  
HETATM   11  H   UNL     1     -10.263  13.101  69.702  1.00  0.00     0.000 HD 
HETATM   12  O   UNL     1     -12.659  11.151  68.883  1.00  0.00    -0.358 OA 
BRANCH  10  13
HETATM   13  O   UNL     1     -10.811  10.853  70.191  1.00  0.00    -0.186 OA 
BRANCH  13  14
HETATM   14  C   UNL     1     -11.210   9.485  70.390  1.00  0.00    -0.270 C  
HETATM   15  C   UNL     1     -10.055   8.538  70.623  1.00  0.00    -0.225 C  
HETATM   16  O   UNL     1     -11.679   8.081  72.274  1.00  0.00    -0.324 OA 
HETATM   17  C   UNL     1     -10.671   7.455  71.474  1.00  0.00    -0.222 C  
HETATM   18  C   UNL     1     -12.001   9.350  71.687  1.00  0.00    -0.393 C  
ENDBRANCH  13  14
ENDBRANCH  10  13
ENDBRANCH   8   9
BRANCH   8  19
HETATM   19  C   UNL     1     -11.920  15.224  69.266  1.00  0.00    -0.327 C  
BRANCH  19  20
HETATM   20  C   UNL     1     -12.244  15.185  70.735  1.00  0.00    -0.392 A  
HETATM   21  C   UNL     1     -13.626  14.409  72.572  1.00  0.00    -0.598 A  
HETATM   22  C   UNL     1     -11.990  16.146  72.944  1.00  0.00    -0.623 A  
HETATM   23  C   UNL     1     -11.609  16.077  71.606  1.00  0.00    -0.538 A  
HETATM   24  C   UNL     1     -13.252  14.345  71.229  1.00  0.00    -0.416 A  
HETATM   25  C   UNL     1     -13.000  15.316  73.426  1.00  0.00    -0.656 A  
ENDBRANCH  19  20
ENDBRANCH   8  19
ENDBRANCH   7   8
BRANCH   7  26
HETATM   26  O   UNL     1     -11.304  12.619  66.275  1.00  0.00    -0.295 OA 
HETATM   27  O   UNL     1     -13.000  12.120  63.514  1.00  0.00    -0.794 OA 
HETATM   28  O   UNL     1     -10.905  12.946  64.020  1.00  0.00    -0.387 OA 
HETATM   29  O   UNL     1     -13.024  13.742  64.957  1.00  0.00    -0.732 OA 
HETATM   30  P   UNL     1     -12.199  12.356  64.818  1.00  0.00    -0.305 P  
ENDBRANCH   7  26
ENDBRANCH   6   7
ENDBRANCH   5   6
BRANCH   5  31
HETATM   31  S   UNL     1      -8.104  15.312  68.312  1.00  0.00    -0.142 S  
HETATM   32  O   UNL     1      -6.663  15.191  68.233  1.00  0.00    -0.104 OA 
HETATM   33  O   UNL     1      -8.752  15.022  69.575  1.00  0.00    -0.166 OA 
BRANCH  31  34
HETATM   34  C   UNL     1      -8.451  16.995  67.954  1.00  0.00    -0.209 A  
HETATM   35  N   UNL     1      -9.565  20.929  67.075  1.00  0.00    -0.688 NA 
HETATM   36  C   UNL     1      -7.928  17.609  66.817  1.00  0.00    -0.268 A  
HETATM   37  H1  UNL     1     -10.194  21.438  67.696  1.00  0.00     0.000 HD 
HETATM   38  H2  UNL     1      -9.974  20.925  66.140  1.00  0.00     0.000 HD 
HETATM   39  C   UNL     1      -9.440  17.629  68.709  1.00  0.00    -0.250 A  
HETATM   40  C   UNL     1      -9.796  18.937  68.420  1.00  0.00    -0.435 A  
HETATM   41  C   UNL     1      -8.300  18.925  66.531  1.00  0.00    -0.310 A  
HETATM   42  C   UNL     1      -9.164  19.625  67.383  1.00  0.00    -0.325 A  
ENDBRANCH  31  34
ENDBRANCH   5  31
ENDBRANCH   4   5
TORSDOF 12
ENDMDL
MODEL        7
REMARK 921   NORMALIZED FREE ENERGY PREDICTED BY IDOCK:   -6.91 KCAL/MOL
REMARK 922        TOTAL FREE ENERGY PREDICTED BY IDOCK:  -14.56 KCAL/MOL
REMARK 923 INTER-LIGAND FREE ENERGY PREDICTED BY IDOCK:  -12.25 KCAL/MOL
REMARK 924 INTRA-LIGAND FREE ENERGY PREDICTED BY IDOCK:   -2.31 KCAL/MOL
REMARK 927      BINDING AFFINITY PREDICTED BY RF-SCORE:    0.00 PKD
ROOT
HETATM    1  C   UNL     1      -6.448  11.140  69.782  1.00  0.00    -0.137 C  
HETATM    2  C   UNL     1      -7.277  10.952  68.523  1.00  0.00    -0.090 C  
HETATM    3  C   UNL     1      -6.873   9.736  67.686  1.00  0.00    -0.085 C  
HETATM    4  C   UNL     1      -8.797  11.145  68.488  1.00  0.00    -0.161 C  
ENDROOT
BRANCH   4   5
HETATM    5  N   UNL     1      -9.791  10.864  69.565  1.00  0.00    -0.032 N  
BRANCH   5   6
HETATM    6  C   UNL     1     -11.142  11.482  69.094  1.00  0.00    -0.259 C  
BRANCH   6   7
HETATM    7  C   UNL     1     -11.043  12.676  68.038  1.00  0.00    -0.251 C  
BRANCH   7   8
HETATM    8  C   UNL     1     -11.116  14.107  68.768  1.00  0.00    -0.262 C  
BRANCH   8   9
HETATM    9  N   UNL     1     -10.406  15.165  68.027  1.00  0.00    -0.237 N  
HETATM   10  C   UNL     1      -9.213  15.669  68.478  1.00  0.00    -0.197 C  
HETATM   11  H   UNL     1     -10.809  15.528  67.163  1.00  0.00     0.000 HD 
HETATM   12  O   UNL     1      -8.599  15.284  69.459  1.00  0.00    -0.246 OA 
BRANCH  10  13
HETATM   13  O   UNL     1      -8.793  16.664  67.650  1.00  0.00    -0.198 OA 
BRANCH  13  14
HETATM   14  C   UNL     1      -9.760  17.700  67.407  1.00  0.00    -0.283 C  
HETATM   15  C   UNL     1      -9.999  18.605  68.595  1.00  0.00    -0.431 C  
HETATM   16  O   UNL     1      -9.696  19.992  66.708  1.00  0.00    -0.378 OA 
HETATM   17  C   UNL     1     -10.400  19.910  67.951  1.00  0.00    -0.406 C  
HETATM   18  C   UNL     1      -9.234  18.677  66.361  1.00  0.00    -0.291 C  
ENDBRANCH  13  14
ENDBRANCH  10  13
ENDBRANCH   8   9
BRANCH   8  19
HETATM   19  C   UNL     1     -12.506  14.600  69.236  1.00  0.00    -0.054 C  
BRANCH  19  20
HETATM   20  C   UNL     1     -12.677  14.937  70.693  1.00  0.00    -0.422 A  
HETATM   21  C   UNL     1     -14.099  15.492  72.578  1.00  0.00    -0.595 A  
HETATM   22  C   UNL     1     -11.699  15.686  72.779  1.00  0.00    -0.537 A  
HETATM   23  C   UNL     1     -11.552  15.243  71.466  1.00  0.00    -0.456 A  
HETATM   24  C   UNL     1     -13.953  15.057  71.261  1.00  0.00    -0.525 A  
HETATM   25  C   UNL     1     -12.972  15.813  73.334  1.00  0.00    -0.696 A  
ENDBRANCH  19  20
ENDBRANCH   8  19
ENDBRANCH   7   8
BRANCH   7  26
HETATM   26  O   UNL     1     -11.936  12.482  66.880  1.00  0.00    -0.507 OA 
HETATM   27  O   UNL     1     -10.617  12.723  63.888  1.00  0.00    -0.414 OA 
HETATM   28  O   UNL     1     -10.971  11.003  65.386  1.00  0.00    -0.155 OA 
HETATM   29  O   UNL     1      -9.805  13.103  65.866  1.00  0.00    -0.276 OA 
HETATM   30  P   UNL     1     -11.239  12.609  65.301  1.00  0.00    -0.326 P  
ENDBRANCH   7  26
ENDBRANCH   6   7
ENDBRANCH   5   6
BRANCH   5  31
HETATM   31  S   UNL     1     -10.071   9.375  70.355  1.00  0.00    -0.273 S  
HETATM   32  O   UNL     1     -11.317   9.450  71.089  1.00  0.00    -0.291 OA 
HETATM   33  O   UNL     1      -8.865   9.025  71.079  1.00  0.00    -0.203 OA 
BRANCH  31  34
HETATM   34  C   UNL     1     -10.310   8.117  69.155  1.00  0.00    -0.220 A  
HETATM   35  N   UNL     1     -11.106   5.280  66.188  1.00  0.00    -0.761 NA 
HETATM   36  C   UNL     1     -10.668   6.824  69.533  1.00  0.00    -0.294 A  
HETATM   37  H1  UNL     1     -11.018   5.525  65.202  1.00  0.00     0.000 HD 
HETATM   38  H2  UNL     1     -12.053   4.934  66.348  1.00  0.00     0.000 HD 
HETATM   39  C   UNL     1     -10.355   8.500  67.813  1.00  0.00    -0.298 A  
HETATM   40  C   UNL     1     -10.607   7.552  66.833  1.00  0.00    -0.367 A  
HETATM   41  C   UNL     1     -10.929   5.880  68.538  1.00  0.00    -0.277 A  
HETATM   42  C   UNL     1     -10.808   6.216  67.183  1.00  0.00    -0.360 A  
ENDBRANCH  31  34
ENDBRANCH   5  31
ENDBRANCH   4   5
TORSDOF 12
ENDMDL
MODEL        8
REMARK 921   NORMALIZED FREE ENERGY PREDICTED BY IDOCK:   -6.90 KCAL/MOL
REMARK 922        TOTAL FREE ENERGY PREDICTED BY IDOCK:  -14.55 KCAL/MOL
REMARK 923 INTER-LIGAND FREE ENERGY PREDICTED BY IDOCK:  -11.74 KCAL/MOL
REMARK 924 INTRA-LIGAND FREE ENERGY PREDICTED BY IDOCK:   -2.81 KCAL/MOL
REMARK 927      BINDING AFFINITY PREDICTED BY RF-SCORE:    0.00 PKD
ROOT
HETATM    1  C   UNL     1      -6.709  10.798  66.180  1.00  0.00    -0.126 C  
HETATM    2  C   UNL     1      -8.136  10.623  65.686  1.00  0.00    -0.146 C  
HETATM    3  C   UNL     1      -8.437   9.228  65.133  1.00  0.00    -0.173 C  
HETATM    4  C   UNL     1      -9.353  11.175  66.436  1.00  0.00    -0.188 C  
ENDROOT
BRANCH   4   5
HETATM    5  N   UNL     1      -9.544  11.322  67.909  1.00  0.00    -0.173 N  
BRANCH   5   6
HETATM    6  C   UNL     1     -10.947  11.971  68.110  1.00  0.00    -0.230 C  
BRANCH   6   7
HETATM    7  C   UNL     1     -11.160  13.411  67.455  1.00  0.00    -0.274 C  
BRANCH   7   8
HETATM    8  C   UNL     1     -10.732  14.582  68.471  1.00  0.00    -0.250 C  
BRANCH   8   9
HETATM    9  N   UNL     1      -9.698  15.472  67.914  1.00  0.00    -0.211 N  
HETATM   10  C   UNL     1      -8.627  15.877  68.670  1.00  0.00    -0.198 C  
HETATM   11  H   UNL     1      -9.780  15.793  66.950  1.00  0.00     0.000 HD 
HETATM   12  O   UNL     1      -8.382  15.520  69.810  1.00  0.00    -0.197 OA 
BRANCH  10  13
HETATM   13  O   UNL     1      -7.851  16.730  67.948  1.00  0.00    -0.167 OA 
BRANCH  13  14
HETATM   14  C   UNL     1      -8.556  17.834  67.352  1.00  0.00    -0.231 C  
HETATM   15  C   UNL     1      -8.913  18.931  68.329  1.00  0.00    -0.364 C  
HETATM   16  O   UNL     1      -7.962  19.965  66.430  1.00  0.00    -0.298 OA 
HETATM   17  C   UNL     1      -8.938  20.164  67.458  1.00  0.00    -0.343 C  
HETATM   18  C   UNL     1      -7.652  18.565  66.365  1.00  0.00    -0.260 C  
ENDBRANCH  13  14
ENDBRANCH  10  13
ENDBRANCH   8   9
BRANCH   8  19
HETATM   19  C   UNL     1     -11.865  15.400  69.135  1.00  0.00    -0.357 C  
BRANCH  19  20
HETATM   20  C   UNL     1     -12.143  15.156  70.594  1.00  0.00    -0.378 A  
HETATM   21  C   UNL     1     -13.246  13.898  72.351  1.00  0.00    -0.587 A  
HETATM   22  C   UNL     1     -12.111  15.964  72.878  1.00  0.00    -0.612 A  
HETATM   23  C   UNL     1     -11.746  16.107  71.541  1.00  0.00    -0.533 A  
HETATM   24  C   UNL     1     -12.890  14.045  71.010  1.00  0.00    -0.410 A  
HETATM   25  C   UNL     1     -12.862  14.862  73.282  1.00  0.00    -0.646 A  
ENDBRANCH  19  20
ENDBRANCH   8  19
ENDBRANCH   7   8
BRANCH   7  26
HETATM   26  O   UNL     1     -12.480  13.549  66.811  1.00  0.00    -0.310 OA 
HETATM   27  O   UNL     1     -12.541  14.220  63.602  1.00  0.00    -0.831 OA 
HETATM   28  O   UNL     1     -12.540  12.291  64.870  1.00  0.00    -0.547 OA 
HETATM   29  O   UNL     1     -10.909  14.113  65.030  1.00  0.00    -0.350 OA 
HETATM   30  P   UNL     1     -12.512  13.903  65.118  1.00  0.00    -0.404 P  
ENDBRANCH   7  26
ENDBRANCH   6   7
ENDBRANCH   5   6
BRANCH   5  31
HETATM   31  S   UNL     1      -9.264  10.143  69.113  1.00  0.00    -0.206 S  
HETATM   32  O   UNL     1     -10.294  10.241  70.126  1.00  0.00    -0.256 OA 
HETATM   33  O   UNL     1      -7.879  10.253  69.526  1.00  0.00    -0.144 OA 
BRANCH  31  34
HETATM   34  C   UNL     1      -9.446   8.544  68.414  1.00  0.00    -0.135 A  
HETATM   35  N   UNL     1      -9.662   4.802  66.559  1.00  0.00    -0.173 NA 
HETATM   36  C   UNL     1     -10.636   8.163  67.795  1.00  0.00    -0.233 A  
HETATM   37  H1  UNL     1      -8.863   4.169  66.578  1.00  0.00     0.000 HD 
HETATM   38  H2  UNL     1      -9.918   4.963  65.584  1.00  0.00     0.000 HD 
HETATM   39  C   UNL     1      -8.301   7.753  68.296  1.00  0.00    -0.125 A  
HETATM   40  C   UNL     1      -8.382   6.508  67.691  1.00  0.00    -0.121 A  
HETATM   41  C   UNL     1     -10.703   6.910  67.181  1.00  0.00    -0.436 A  
HETATM   42  C   UNL     1      -9.605   6.040  67.208  1.00  0.00    -0.115 A  
ENDBRANCH  31  34
ENDBRANCH   5  31
ENDBRANCH   4   5
TORSDOF 12
ENDMDL
MODEL        9
REMARK 921   NORMALIZED FREE ENERGY PREDICTED BY IDOCK:   -6.90 KCAL/MOL
REMARK 922        TOTAL FREE ENERGY PREDICTED BY IDOCK:  -14.54 KCAL/MOL
REMARK 923 INTER-LIGAND FREE ENERGY PREDICTED BY IDOCK:  -11.98 KCAL/MOL
REMARK 924 INTRA-LIGAND FREE ENERGY PREDICTED BY IDOCK:   -2.56 KCAL/MOL
REMARK 927      BINDING AFFINITY PREDICTED BY RF-SCORE:    0.00 PKD
ROOT
HETATM    1  C   UNL     1      -8.111  10.027  64.324  1.00  0.00    -0.156 C  
HETATM    2  C   UNL     1      -8.725   8.788  64.954  1.00  0.00    -0.161 C  
HETATM    3  C   UNL     1      -7.767   7.599  65.054  1.00  0.00    -0.109 C  
HETATM    4  C   UNL     1      -9.640   8.843  66.182  1.00  0.00    -0.265 C  
ENDROOT
BRANCH   4   5
HETATM    5  N   UNL     1      -9.588   9.790  67.334  1.00  0.00    -0.151 N  
BRANCH   5   6
HETATM    6  C   UNL     1     -10.955  10.539  67.354  1.00  0.00    -0.288 C  
BRANCH   6   7
HETATM    7  C   UNL     1     -10.999  11.948  66.605  1.00  0.00    -0.291 C  
BRANCH   7   8
HETATM    8  C   UNL     1     -10.340  13.107  67.505  1.00  0.00    -0.225 C  
BRANCH   8   9
HETATM    9  N   UNL     1     -10.738  13.027  68.922  1.00  0.00    -0.374 N  
HETATM   10  C   UNL     1     -11.798  13.753  69.404  1.00  0.00    -0.341 C  
HETATM   11  H   UNL     1     -10.217  12.421  69.555  1.00  0.00     0.000 HD 
HETATM   12  O   UNL     1     -12.535  14.466  68.744  1.00  0.00    -0.134 OA 
BRANCH  10  13
HETATM   13  O   UNL     1     -11.925  13.545  70.743  1.00  0.00    -0.305 OA 
BRANCH  13  14
HETATM   14  C   UNL     1     -12.458  14.659  71.481  1.00  0.00    -0.346 C  
HETATM   15  C   UNL     1     -13.185  14.262  72.746  1.00  0.00    -0.614 C  
HETATM   16  O   UNL     1     -11.723  16.031  73.303  1.00  0.00    -0.367 OA 
HETATM   17  C   UNL     1     -12.995  15.466  73.637  1.00  0.00    -0.473 C  
HETATM   18  C   UNL     1     -11.324  15.524  72.022  1.00  0.00    -0.358 C  
ENDBRANCH  13  14
ENDBRANCH  10  13
ENDBRANCH   8   9
BRANCH   8  19
HETATM   19  C   UNL     1      -8.816  13.334  67.373  1.00  0.00    -0.204 C  
BRANCH  19  20
HETATM   20  C   UNL     1      -8.333  14.743  67.159  1.00  0.00    -0.240 A  
HETATM   21  C   UNL     1      -8.617  16.948  66.187  1.00  0.00    -0.277 A  
HETATM   22  C   UNL     1      -6.521  16.350  67.227  1.00  0.00    -0.222 A  
HETATM   23  C   UNL     1      -7.030  15.090  67.536  1.00  0.00    -0.214 A  
HETATM   24  C   UNL     1      -9.126  15.684  66.488  1.00  0.00    -0.337 A  
HETATM   25  C   UNL     1      -7.312  17.276  66.550  1.00  0.00    -0.312 A  
ENDBRANCH  19  20
ENDBRANCH   8  19
ENDBRANCH   7   8
BRANCH   7  26
HETATM   26  O   UNL     1     -12.324  12.239  66.025  1.00  0.00    -0.609 OA 
HETATM   27  O   UNL     1     -12.411  13.708  63.095  1.00  0.00    -0.786 OA 
HETATM   28  O   UNL     1     -12.394  11.519  63.828  1.00  0.00    -0.246 OA 
HETATM   29  O   UNL     1     -10.768  13.248  64.439  1.00  0.00    -0.382 OA 
HETATM   30  P   UNL     1     -12.370  13.014  64.479  1.00  0.00    -0.363 P  
ENDBRANCH   7  26
ENDBRANCH   6   7
ENDBRANCH   5   6
BRANCH   5  31
HETATM   31  S   UNL     1      -9.079   9.455  68.931  1.00  0.00    -0.143 S  
HETATM   32  O   UNL     1      -8.870  10.701  69.637  1.00  0.00    -0.045 OA 
HETATM   33  O   UNL     1      -7.982   8.511  68.856  1.00  0.00    -0.113 OA 
BRANCH  31  34
HETATM   34  C   UNL     1     -10.373   8.641  69.794  1.00  0.00    -0.212 A  
HETATM   35  N   UNL     1     -13.289   6.721  72.096  1.00  0.00    -0.529 NA 
HETATM   36  C   UNL     1     -10.745   7.337  69.467  1.00  0.00    -0.244 A  
HETATM   37  H1  UNL     1     -13.737   7.208  72.872  1.00  0.00     0.000 HD 
HETATM   38  H2  UNL     1     -12.872   5.863  72.456  1.00  0.00     0.000 HD 
HETATM   39  C   UNL     1     -10.860   9.246  70.954  1.00  0.00    -0.365 A  
HETATM   40  C   UNL     1     -11.836   8.610  71.706  1.00  0.00    -0.404 A  
HETATM   41  C   UNL     1     -11.722   6.703  70.236  1.00  0.00    -0.432 A  
HETATM   42  C   UNL     1     -12.338   7.372  71.303  1.00  0.00    -0.346 A  
ENDBRANCH  31  34
ENDBRANCH   5  31
ENDBRANCH   4   5
TORSDOF 12
ENDMDL
MODEL       10
REMARK 921   NORMALIZED FREE ENERGY PREDICTED BY IDOCK:   -6.89 KCAL/MOL
REMARK 922        TOTAL FREE ENERGY PREDICTED BY IDOCK:  -14.53 KCAL/MOL
REMARK 923 INTER-LIGAND FREE ENERGY PREDICTED BY IDOCK:  -11.70 KCAL/MOL
REMARK 924 INTRA-LIGAND FREE ENERGY PREDICTED BY IDOCK:   -2.83 KCAL/MOL
REMARK 927      BINDING AFFINITY PREDICTED BY RF-SCORE:    0.00 PKD
ROOT
HETATM    1  C   UNL     1      -8.347  18.702  68.230  1.00  0.00    -0.350 C  
HETATM    2  C   UNL     1      -9.860  18.724  68.376  1.00  0.00    -0.429 C  
HETATM    3  C   UNL     1     -10.535  19.916  67.693  1.00  0.00    -0.521 C  
HETATM    4  C   UNL     1     -10.729  17.468  68.244  1.00  0.00    -0.309 C  
ENDROOT
BRANCH   4   5
HETATM    5  N   UNL     1     -10.514  16.281  67.367  1.00  0.00    -0.301 N  
BRANCH   5   6
HETATM    6  C   UNL     1     -11.647  15.267  67.708  1.00  0.00    -0.265 C  
BRANCH   6   7
HETATM    7  C   UNL     1     -11.270  14.106  68.737  1.00  0.00    -0.268 C  
BRANCH   7   8
HETATM    8  C   UNL     1     -10.518  12.892  67.996  1.00  0.00    -0.230 C  
BRANCH   8   9
HETATM    9  N   UNL     1      -9.306  12.450  68.708  1.00  0.00    -0.404 N  
HETATM   10  C   UNL     1      -8.055  12.802  68.269  1.00  0.00    -0.154 C  
HETATM   11  H   UNL     1      -9.399  11.872  69.544  1.00  0.00     0.000 HD 
HETATM   12  O   UNL     1      -7.809  13.533  67.324  1.00  0.00    -0.156 OA 
BRANCH  10  13
HETATM   13  O   UNL     1      -7.111  12.229  69.063  1.00  0.00    -0.101 OA 
BRANCH  13  14
HETATM   14  C   UNL     1      -7.247  10.807  69.238  1.00  0.00    -0.122 C  
HETATM   15  C   UNL     1      -6.758   9.996  68.060  1.00  0.00    -0.064 C  
HETATM   16  O   UNL     1      -5.848   9.021  70.008  1.00  0.00    -0.030 OA 
HETATM   17  C   UNL     1      -6.326   8.698  68.698  1.00  0.00    -0.053 C  
HETATM   18  C   UNL     1      -6.335  10.324  70.360  1.00  0.00    -0.127 C  
ENDBRANCH  13  14
ENDBRANCH  10  13
ENDBRANCH   8   9
BRANCH   8  19
HETATM   19  C   UNL     1     -11.375  11.680  67.562  1.00  0.00    -0.364 C  
BRANCH  19  20
HETATM   20  C   UNL     1     -10.655  10.423  67.154  1.00  0.00    -0.319 A  
HETATM   21  C   UNL     1      -9.509   9.095  65.478  1.00  0.00    -0.276 A  
HETATM   22  C   UNL     1     -10.126   8.099  67.591  1.00  0.00    -0.267 A  
HETATM   23  C   UNL     1     -10.671   9.312  68.006  1.00  0.00    -0.231 A  
HETATM   24  C   UNL     1     -10.063  10.308  65.889  1.00  0.00    -0.319 A  
HETATM   25  C   UNL     1      -9.548   7.990  66.327  1.00  0.00    -0.223 A  
ENDBRANCH  19  20
ENDBRANCH   8  19
ENDBRANCH   7   8
BRANCH   7  26
HETATM   26  O   UNL     1     -12.396  13.742  69.617  1.00  0.00    -0.316 OA 
HETATM   27  O   UNL     1     -12.432  15.009  72.641  1.00  0.00    -0.333 OA 
HETATM   28  O   UNL     1     -13.277  15.647  70.590  1.00  0.00    -0.487 OA 
HETATM   29  O   UNL     1     -10.944  15.069  71.061  1.00  0.00    -0.230 OA 
HETATM   30  P   UNL     1     -12.415  14.411  71.212  1.00  0.00    -0.386 P  
ENDBRANCH   7  26
ENDBRANCH   6   7
ENDBRANCH   5   6
BRANCH   5  31
HETATM   31  S   UNL     1     -10.208  16.276  65.686  1.00  0.00    -0.303 S  
HETATM   32  O   UNL     1      -8.788  16.108  65.459  1.00  0.00    -0.239 OA 
HETATM   33  O   UNL     1     -10.866  17.433  65.112  1.00  0.00    -0.642 OA 
BRANCH  31  34
HETATM   34  C   UNL     1     -10.966  14.868  64.962  1.00  0.00    -0.420 A  
HETATM   35  N   UNL     1     -12.555  11.514  63.034  1.00  0.00    -0.904 NA 
HETATM   36  C   UNL     1     -12.247  14.944  64.415  1.00  0.00    -0.399 A  
HETATM   37  H1  UNL     1     -12.021  10.646  62.984  1.00  0.00     0.000 HD 
HETATM   38  H2  UNL     1     -12.793  11.797  62.083  1.00  0.00     0.000 HD 
HETATM   39  C   UNL     1     -10.171  13.741  64.746  1.00  0.00    -0.362 A  
HETATM   40  C   UNL     1     -10.707  12.628  64.118  1.00  0.00    -0.435 A  
HETATM   41  C   UNL     1     -12.773  13.819  63.776  1.00  0.00     0.164 A  
HETATM   42  C   UNL     1     -12.041  12.627  63.708  1.00  0.00    -0.522 A  
ENDBRANCH  31  34
ENDBRANCH   5  31
ENDBRANCH   4   5
TORSDOF 12
ENDMDL
MODEL       11
REMARK 921   NORMALIZED FREE ENERGY PREDICTED BY IDOCK:   -6.88 KCAL/MOL
REMARK 922        TOTAL FREE ENERGY PREDICTED BY IDOCK:  -14.51 KCAL/MOL
REMARK 923 INTER-LIGAND FREE ENERGY PREDICTED BY IDOCK:  -13.56 KCAL/MOL
REMARK 924 INTRA-LIGAND FREE ENERGY PREDICTED BY IDOCK:   -0.96 KCAL/MOL
REMARK 927      BINDING AFFINITY PREDICTED BY RF-SCORE:    0.00 PKD
ROOT
HETATM    1  C   UNL     1      -7.080  13.368  68.554  1.00  0.00    -0.108 C  
HETATM    2  C   UNL     1      -7.575  12.534  67.383  1.00  0.00    -0.156 C  
HETATM    3  C   UNL     1      -6.646  11.379  67.003  1.00  0.00    -0.125 C  
HETATM    4  C   UNL     1      -9.041  12.120  67.214  1.00  0.00    -0.181 C  
ENDROOT
BRANCH   4   5
HETATM    5  N   UNL     1     -10.040  11.799  68.275  1.00  0.00    -0.192 N  
BRANCH   5   6
HETATM    6  C   UNL     1     -10.906  13.080  68.469  1.00  0.00    -0.258 C  
BRANCH   6   7
HETATM    7  C   UNL     1     -11.223  13.926  67.153  1.00  0.00    -0.313 C  
BRANCH   7   8
HETATM    8  C   UNL     1     -11.149  15.506  67.445  1.00  0.00    -0.285 C  
BRANCH   8   9
HETATM    9  N   UNL     1     -11.900  15.900  68.651  1.00  0.00    -0.465 N  
HETATM   10  C   UNL     1     -11.324  15.848  69.895  1.00  0.00    -0.348 C  
HETATM   11  H   UNL     1     -12.865  16.217  68.559  1.00  0.00     0.000 HD 
HETATM   12  O   UNL     1     -10.167  15.545  70.135  1.00  0.00    -0.308 OA 
BRANCH  10  13
HETATM   13  O   UNL     1     -12.235  16.209  70.839  1.00  0.00    -0.320 OA 
BRANCH  13  14
HETATM   14  C   UNL     1     -13.246  15.223  71.115  1.00  0.00    -0.498 C  
HETATM   15  C   UNL     1     -12.735  13.800  71.092  1.00  0.00    -0.438 C  
HETATM   16  O   UNL     1     -14.027  14.049  73.053  1.00  0.00    -0.499 OA 
HETATM   17  C   UNL     1     -13.660  13.093  72.053  1.00  0.00    -0.465 C  
HETATM   18  C   UNL     1     -13.739  15.363  72.551  1.00  0.00    -0.552 C  
ENDBRANCH  13  14
ENDBRANCH  10  13
ENDBRANCH   8   9
BRANCH   8  19
HETATM   19  C   UNL     1      -9.754  16.172  67.423  1.00  0.00    -0.233 C  
BRANCH  19  20
HETATM   20  C   UNL     1      -9.693  17.667  67.254  1.00  0.00    -0.284 A  
HETATM   21  C   UNL     1      -9.083  19.862  68.086  1.00  0.00    -0.349 A  
HETATM   22  C   UNL     1     -10.470  19.661  66.119  1.00  0.00    -0.624 A  
HETATM   23  C   UNL     1     -10.406  18.272  66.213  1.00  0.00    -0.422 A  
HETATM   24  C   UNL     1      -9.025  18.472  68.187  1.00  0.00    -0.326 A  
HETATM   25  C   UNL     1      -9.812  20.455  67.056  1.00  0.00    -0.594 A  
ENDBRANCH  19  20
ENDBRANCH   8  19
ENDBRANCH   7   8
BRANCH   7  26
HETATM   26  O   UNL     1     -12.423  13.443  66.445  1.00  0.00    -0.351 OA 
HETATM   27  O   UNL     1     -12.422  13.605  63.170  1.00  0.00    -0.786 OA 
HETATM   28  O   UNL     1     -11.802  12.021  64.730  1.00  0.00    -0.326 OA 
HETATM   29  O   UNL     1     -11.024  14.343  64.659  1.00  0.00    -0.390 OA 
HETATM   30  P   UNL     1     -12.422  13.528  64.717  1.00  0.00    -0.281 P  
ENDBRANCH   7  26
ENDBRANCH   6   7
ENDBRANCH   5   6
BRANCH   5  31
HETATM   31  S   UNL     1     -11.021  10.404  68.388  1.00  0.00    -0.266 S  
HETATM   32  O   UNL     1     -10.684   9.495  67.312  1.00  0.00    -0.263 OA 
HETATM   33  O   UNL     1     -12.397  10.840  68.518  1.00  0.00    -0.417 OA 
BRANCH  31  34
HETATM   34  C   UNL     1     -10.635   9.541  69.866  1.00  0.00    -0.241 A  
HETATM   35  N   UNL     1      -9.814   7.720  73.540  1.00  0.00    -0.288 NA 
HETATM   36  C   UNL     1      -9.320   9.191  70.170  1.00  0.00    -0.235 A  
HETATM   37  H1  UNL     1     -10.569   7.515  74.195  1.00  0.00     0.000 HD 
HETATM   38  H2  UNL     1      -9.126   8.302  74.018  1.00  0.00     0.000 HD 
HETATM   39  C   UNL     1     -11.640   9.417  70.827  1.00  0.00    -0.364 A  
HETATM   40  C   UNL     1     -11.365   8.801  72.038  1.00  0.00    -0.441 A  
HETATM   41  C   UNL     1      -9.053   8.579  71.397  1.00  0.00    -0.266 A  
HETATM   42  C   UNL     1     -10.089   8.298  72.296  1.00  0.00    -0.300 A  
ENDBRANCH  31  34
ENDBRANCH   5  31
ENDBRANCH   4   5
TORSDOF 12
ENDMDL
MODEL       12
REMARK 921   NORMALIZED FREE ENERGY PREDICTED BY IDOCK:   -6.87 KCAL/MOL
REMARK 922        TOTAL FREE ENERGY PREDICTED BY IDOCK:  -14.49 KCAL/MOL
REMARK 923 INTER-LIGAND FREE ENERGY PREDICTED BY IDOCK:  -11.70 KCAL/MOL
REMARK 924 INTRA-LIGAND FREE ENERGY PREDICTED BY IDOCK:   -2.79 KCAL/MOL
REMARK 927      BINDING AFFINITY PREDICTED BY RF-SCORE:    0.00 PKD
ROOT
HETATM    1  C   UNL     1     -12.447  10.343  69.999  1.00  0.00    -0.186 C  
HETATM    2  C   UNL     1     -11.258   9.630  70.622  1.00  0.00    -0.385 C  
HETATM    3  C   UNL     1     -11.518   8.160  70.958  1.00  0.00    -0.301 C  
HETATM    4  C   UNL     1      -9.819   9.821  70.130  1.00  0.00    -0.255 C  
ENDROOT
BRANCH   4   5
HETATM    5  N   UNL     1      -9.342  10.072  68.739  1.00  0.00    -0.155 N  
BRANCH   5   6
HETATM    6  C   UNL     1      -8.978  11.585  68.662  1.00  0.00    -0.112 C  
BRANCH   6   7
HETATM    7  C   UNL     1      -9.939  12.499  67.773  1.00  0.00    -0.210 C  
BRANCH   7   8
HETATM    8  C   UNL     1     -10.398  13.815  68.576  1.00  0.00    -0.244 C  
BRANCH   8   9
HETATM    9  N   UNL     1     -10.041  15.064  67.879  1.00  0.00    -0.226 N  
HETATM   10  C   UNL     1      -8.910  15.764  68.213  1.00  0.00    -0.180 C  
HETATM   11  H   UNL     1     -10.646  15.413  67.136  1.00  0.00     0.000 HD 
HETATM   12  O   UNL     1      -8.077  15.427  69.037  1.00  0.00    -0.176 OA 
BRANCH  10  13
HETATM   13  O   UNL     1      -8.835  16.899  67.465  1.00  0.00    -0.206 OA 
BRANCH  13  14
HETATM   14  C   UNL     1      -9.815  17.903  67.787  1.00  0.00    -0.300 C  
HETATM   15  C   UNL     1      -9.233  19.139  68.434  1.00  0.00    -0.406 C  
HETATM   16  O   UNL     1     -10.689  19.863  66.722  1.00  0.00    -0.466 OA 
HETATM   17  C   UNL     1     -10.196  20.224  68.016  1.00  0.00    -0.284 C  
HETATM   18  C   UNL     1     -10.428  18.468  66.510  1.00  0.00    -0.398 C  
ENDBRANCH  13  14
ENDBRANCH  10  13
ENDBRANCH   8   9
BRANCH   8  19
HETATM   19  C   UNL     1     -11.857  13.867  69.087  1.00  0.00    -0.401 C  
BRANCH  19  20
HETATM   20  C   UNL     1     -12.085  14.275  70.518  1.00  0.00    -0.413 A  
HETATM   21  C   UNL     1     -13.222  13.985  72.641  1.00  0.00    -0.606 A  
HETATM   22  C   UNL     1     -11.852  15.938  72.264  1.00  0.00    -0.617 A  
HETATM   23  C   UNL     1     -11.544  15.478  70.985  1.00  0.00    -0.424 A  
HETATM   24  C   UNL     1     -12.921  13.527  71.358  1.00  0.00    -0.421 A  
HETATM   25  C   UNL     1     -12.693  15.194  73.089  1.00  0.00    -0.592 A  
ENDBRANCH  19  20
ENDBRANCH   8  19
ENDBRANCH   7   8
BRANCH   7  26
HETATM   26  O   UNL     1     -11.008  11.724  67.115  1.00  0.00    -0.246 OA 
HETATM   27  O   UNL     1     -11.718  12.455  63.999  1.00  0.00    -0.353 OA 
HETATM   28  O   UNL     1     -10.281  10.984  65.047  1.00  0.00    -0.264 OA 
HETATM   29  O   UNL     1     -10.403  13.398  65.446  1.00  0.00    -0.296 OA 
HETATM   30  P   UNL     1     -11.382  12.109  65.471  1.00  0.00    -0.304 P  
ENDBRANCH   7  26
ENDBRANCH   6   7
ENDBRANCH   5   6
BRANCH   5  31
HETATM   31  S   UNL     1      -8.212   9.151  67.847  1.00  0.00    -0.112 S  
HETATM   32  O   UNL     1      -7.270   8.537  68.760  1.00  0.00    -0.075 OA 
HETATM   33  O   UNL     1      -7.696   9.990  66.785  1.00  0.00    -0.101 OA 
BRANCH  31  34
HETATM   34  C   UNL     1      -9.041   7.816  67.064  1.00  0.00    -0.138 A  
HETATM   35  N   UNL     1     -11.080   4.532  65.469  1.00  0.00    -0.888 NA 
HETATM   36  C   UNL     1      -8.346   6.912  66.262  1.00  0.00    -0.126 A  
HETATM   37  H1  UNL     1     -12.076   4.406  65.648  1.00  0.00     0.000 HD 
HETATM   38  H2  UNL     1     -10.592   3.692  65.783  1.00  0.00     0.000 HD 
HETATM   39  C   UNL     1     -10.358   7.555  67.447  1.00  0.00    -0.346 A  
HETATM   40  C   UNL     1     -11.033   6.472  66.905  1.00  0.00    -0.408 A  
HETATM   41  C   UNL     1      -9.034   5.820  65.728  1.00  0.00    -0.144 A  
HETATM   42  C   UNL     1     -10.402   5.647  65.973  1.00  0.00     0.063 A  
ENDBRANCH  31  34
ENDBRANCH   5  31
ENDBRANCH   4   5
TORSDOF 12
ENDMDL
MODEL       13
REMARK 921   NORMALIZED FREE ENERGY PREDICTED BY IDOCK:   -6.86 KCAL/MOL
REMARK 922        TOTAL FREE ENERGY PREDICTED BY IDOCK:  -14.47 KCAL/MOL
REMARK 923 INTER-LIGAND FREE ENERGY PREDICTED BY IDOCK:  -12.71 KCAL/MOL
REMARK 924 INTRA-LIGAND FREE ENERGY PREDICTED BY IDOCK:   -1.76 KCAL/MOL
REMARK 927      BINDING AFFINITY PREDICTED BY RF-SCORE:    0.00 PKD
ROOT
HETATM    1  C   UNL     1     -10.133  19.551  68.816  1.00  0.00    -0.519 C  
HETATM    2  C   UNL     1     -10.705  18.632  67.749  1.00  0.00    -0.394 C  
HETATM    3  C   UNL     1     -10.648  19.209  66.333  1.00  0.00    -0.522 C  
HETATM    4  C   UNL     1     -10.446  17.122  67.723  1.00  0.00    -0.362 C  
ENDROOT
BRANCH   4   5
HETATM    5  N   UNL     1      -9.221  16.385  68.151  1.00  0.00    -0.198 N  
BRANCH   5   6
HETATM    6  C   UNL     1      -9.633  14.889  68.300  1.00  0.00    -0.214 C  
BRANCH   6   7
HETATM    7  C   UNL     1     -10.807  14.381  67.344  1.00  0.00    -0.292 C  
BRANCH   7   8
HETATM    8  C   UNL     1     -11.556  13.104  67.972  1.00  0.00    -0.334 C  
BRANCH   8   9
HETATM    9  N   UNL     1     -11.329  11.870  67.198  1.00  0.00    -0.320 N  
HETATM   10  C   UNL     1     -10.107  11.247  67.197  1.00  0.00    -0.192 C  
HETATM   11  H   UNL     1     -12.095  11.472  66.654  1.00  0.00     0.000 HD 
HETATM   12  O   UNL     1      -9.132  11.585  67.846  1.00  0.00    -0.156 OA 
BRANCH  10  13
HETATM   13  O   UNL     1     -10.143  10.167  66.370  1.00  0.00    -0.220 OA 
BRANCH  13  14
HETATM   14  C   UNL     1      -9.005  10.032  65.499  1.00  0.00    -0.174 C  
HETATM   15  C   UNL     1      -8.622   8.598  65.212  1.00  0.00    -0.206 C  
HETATM   16  O   UNL     1      -8.659   9.740  63.146  1.00  0.00    -0.164 OA 
HETATM   17  C   UNL     1      -7.991   8.683  63.844  1.00  0.00    -0.159 C  
HETATM   18  C   UNL     1      -9.341  10.558  64.108  1.00  0.00    -0.267 C  
ENDBRANCH  13  14
ENDBRANCH  10  13
ENDBRANCH   8   9
BRANCH   8  19
HETATM   19  C   UNL     1     -11.379  12.845  69.487  1.00  0.00    -0.221 C  
BRANCH  19  20
HETATM   20  C   UNL     1     -12.374  13.473  70.426  1.00  0.00    -0.397 A  
HETATM   21  C   UNL     1     -13.611  15.408  71.205  1.00  0.00    -0.585 A  
HETATM   22  C   UNL     1     -13.625  13.368  72.498  1.00  0.00    -0.659 A  
HETATM   23  C   UNL     1     -12.809  12.758  71.547  1.00  0.00    -0.369 A  
HETATM   24  C   UNL     1     -12.786  14.802  70.257  1.00  0.00    -0.263 A  
HETATM   25  C   UNL     1     -14.023  14.693  72.329  1.00  0.00    -0.589 A  
ENDBRANCH  19  20
ENDBRANCH   8  19
ENDBRANCH   7   8
BRANCH   7  26
HETATM   26  O   UNL     1     -10.380  14.267  65.936  1.00  0.00    -0.290 OA 
HETATM   27  O   UNL     1     -12.692  14.520  63.624  1.00  0.00    -0.754 OA 
HETATM   28  O   UNL     1     -11.285  16.001  64.701  1.00  0.00    -0.463 OA 
HETATM   29  O   UNL     1     -12.811  14.424  65.791  1.00  0.00    -0.389 OA 
HETATM   30  P   UNL     1     -11.600  14.401  64.717  1.00  0.00    -0.411 P  
ENDBRANCH   7  26
ENDBRANCH   6   7
ENDBRANCH   5   6
BRANCH   5  31
HETATM   31  S   UNL     1      -7.655  16.498  67.478  1.00  0.00    -0.157 S  
HETATM   32  O   UNL     1      -7.763  16.724  66.051  1.00  0.00    -0.276 OA 
HETATM   33  O   UNL     1      -6.891  15.356  67.939  1.00  0.00    -0.121 OA 
BRANCH  31  34
HETATM   34  C   UNL     1      -6.850  17.921  68.116  1.00  0.00    -0.209 A  
HETATM   35  N   UNL     1      -5.127  21.308  69.861  1.00  0.00    -0.582 NA 
HETATM   36  C   UNL     1      -6.836  19.119  67.402  1.00  0.00    -0.217 A  
HETATM   37  H1  UNL     1      -4.704  21.253  70.788  1.00  0.00     0.000 HD 
HETATM   38  H2  UNL     1      -5.843  22.035  69.881  1.00  0.00     0.000 HD 
HETATM   39  C   UNL     1      -6.425  17.885  69.446  1.00  0.00    -0.224 A  
HETATM   40  C   UNL     1      -5.844  19.008  70.015  1.00  0.00    -0.269 A  
HETATM   41  C   UNL     1      -6.256  20.245  67.988  1.00  0.00    -0.291 A  
HETATM   42  C   UNL     1      -5.674  20.170  69.260  1.00  0.00    -0.285 A  
ENDBRANCH  31  34
ENDBRANCH   5  31
ENDBRANCH   4   5
TORSDOF 12
ENDMDL
MODEL       14
REMARK 921   NORMALIZED FREE ENERGY PREDICTED BY IDOCK:   -6.86 KCAL/MOL
REMARK 922        TOTAL FREE ENERGY PREDICTED BY IDOCK:  -14.47 KCAL/MOL
REMARK 923 INTER-LIGAND FREE ENERGY PREDICTED BY IDOCK:  -11.72 KCAL/MOL
REMARK 924 INTRA-LIGAND FREE ENERGY PREDICTED BY IDOCK:   -2.75 KCAL/MOL
REMARK 927      BINDING AFFINITY PREDICTED BY RF-SCORE:    0.00 PKD
ROOT
HETATM    1  C   UNL     1      -8.044  15.691  69.242  1.00  0.00    -0.244 C  
HETATM    2  C   UNL     1      -8.279  15.448  67.760  1.00  0.00    -0.159 C  
HETATM    3  C   UNL     1      -7.188  16.023  66.854  1.00  0.00    -0.212 C  
HETATM    4  C   UNL     1      -8.790  14.115  67.204  1.00  0.00    -0.229 C  
ENDROOT
BRANCH   4   5
HETATM    5  N   UNL     1      -8.525  12.737  67.711  1.00  0.00    -0.164 N  
BRANCH   5   6
HETATM    6  C   UNL     1      -9.909  12.031  67.823  1.00  0.00    -0.190 C  
BRANCH   6   7
HETATM    7  C   UNL     1     -11.192  12.943  67.552  1.00  0.00    -0.290 C  
BRANCH   7   8
HETATM    8  C   UNL     1     -11.887  13.394  68.931  1.00  0.00    -0.334 C  
BRANCH   8   9
HETATM    9  N   UNL     1     -11.573  12.491  70.052  1.00  0.00    -0.530 N  
HETATM   10  C   UNL     1     -12.207  11.282  70.189  1.00  0.00    -0.330 C  
HETATM   11  H   UNL     1     -10.872  12.769  70.738  1.00  0.00     0.000 HD 
HETATM   12  O   UNL     1     -13.018  10.808  69.410  1.00  0.00    -0.078 OA 
BRANCH  10  13
HETATM   13  O   UNL     1     -11.781  10.666  71.325  1.00  0.00    -0.261 OA 
BRANCH  13  14
HETATM   14  C   UNL     1     -11.550   9.251  71.198  1.00  0.00    -0.327 C  
HETATM   15  C   UNL     1     -10.127   8.835  71.491  1.00  0.00    -0.371 C  
HETATM   16  O   UNL     1     -11.546   7.364  72.675  1.00  0.00    -0.299 OA 
HETATM   17  C   UNL     1     -10.286   7.422  71.998  1.00  0.00    -0.191 C  
HETATM   18  C   UNL     1     -12.332   8.492  72.264  1.00  0.00    -0.387 C  
ENDBRANCH  13  14
ENDBRANCH  10  13
ENDBRANCH   8   9
BRANCH   8  19
HETATM   19  C   UNL     1     -11.735  14.874  69.356  1.00  0.00    -0.349 C  
BRANCH  19  20
HETATM   20  C   UNL     1     -12.272  15.274  70.704  1.00  0.00    -0.412 A  
HETATM   21  C   UNL     1     -11.912  16.045  72.976  1.00  0.00    -0.597 A  
HETATM   22  C   UNL     1     -14.094  15.261  72.301  1.00  0.00    -0.651 A  
HETATM   23  C   UNL     1     -13.613  15.020  71.015  1.00  0.00    -0.442 A  
HETATM   24  C   UNL     1     -11.426  15.796  71.692  1.00  0.00    -0.495 A  
HETATM   25  C   UNL     1     -13.244  15.770  73.281  1.00  0.00    -0.687 A  
ENDBRANCH  19  20
ENDBRANCH   8  19
ENDBRANCH   7   8
BRANCH   7  26
HETATM   26  O   UNL     1     -12.082  12.376  66.522  1.00  0.00    -0.599 OA 
HETATM   27  O   UNL     1     -12.630  14.171  63.833  1.00  0.00    -0.752 OA 
HETATM   28  O   UNL     1     -11.089  12.563  64.440  1.00  0.00    -0.304 OA 
HETATM   29  O   UNL     1     -11.586  14.614  65.685  1.00  0.00    -0.346 OA 
HETATM   30  P   UNL     1     -12.370  13.323  65.103  1.00  0.00    -0.465 P  
ENDBRANCH   7  26
ENDBRANCH   6   7
ENDBRANCH   5   6
BRANCH   5  31
HETATM   31  S   UNL     1      -7.347  11.634  67.148  1.00  0.00    -0.145 S  
HETATM   32  O   UNL     1      -6.086  12.326  66.981  1.00  0.00    -0.177 OA 
HETATM   33  O   UNL     1      -7.906  10.932  66.010  1.00  0.00    -0.159 OA 
BRANCH  31  34
HETATM   34  C   UNL     1      -7.053  10.420  68.381  1.00  0.00    -0.078 A  
HETATM   35  N   UNL     1      -6.640   7.453  71.299  1.00  0.00    -0.043 NA 
HETATM   36  C   UNL     1      -6.642  10.783  69.663  1.00  0.00    -0.114 A  
HETATM   37  H1  UNL     1      -6.817   6.475  71.070  1.00  0.00     0.000 HD 
HETATM   38  H2  UNL     1      -7.244   7.712  72.080  1.00  0.00     0.000 HD 
HETATM   39  C   UNL     1      -7.458   9.110  68.112  1.00  0.00    -0.083 A  
HETATM   40  C   UNL     1      -7.307   8.129  69.080  1.00  0.00    -0.083 A  
HETATM   41  C   UNL     1      -6.502   9.787  70.632  1.00  0.00    -0.109 A  
HETATM   42  C   UNL     1      -6.744   8.444  70.317  1.00  0.00    -0.036 A  
ENDBRANCH  31  34
ENDBRANCH   5  31
ENDBRANCH   4   5
TORSDOF 12
ENDMDL
MODEL       15
REMARK 921   NORMALIZED FREE ENERGY PREDICTED BY IDOCK:   -6.80 KCAL/MOL
REMARK 922        TOTAL FREE ENERGY PREDICTED BY IDOCK:  -14.37 KCAL/MOL
REMARK 923 INTER-LIGAND FREE ENERGY PREDICTED BY IDOCK:  -11.33 KCAL/MOL
REMARK 924 INTRA-LIGAND FREE ENERGY PREDICTED BY IDOCK:   -3.04 KCAL/MOL
REMARK 927      BINDING AFFINITY PREDICTED BY RF-SCORE:    0.00 PKD
ROOT
HETATM    1  C   UNL     1      -7.798   6.970  65.788  1.00  0.00    -0.109 C  
HETATM    2  C   UNL     1      -9.046   6.983  66.656  1.00  0.00    -0.175 C  
HETATM    3  C   UNL     1      -8.804   6.541  68.101  1.00  0.00    -0.115 C  
HETATM    4  C   UNL     1     -10.084   8.109  66.607  1.00  0.00    -0.273 C  
ENDROOT
BRANCH   4   5
HETATM    5  N   UNL     1      -9.863   9.562  66.350  1.00  0.00    -0.233 N  
BRANCH   5   6
HETATM    6  C   UNL     1      -9.146  10.131  67.610  1.00  0.00    -0.137 C  
BRANCH   6   7
HETATM    7  C   UNL     1     -10.029  11.049  68.573  1.00  0.00    -0.193 C  
BRANCH   7   8
HETATM    8  C   UNL     1      -9.693  12.608  68.361  1.00  0.00    -0.187 C  
BRANCH   8   9
HETATM    9  N   UNL     1     -10.494  13.489  69.229  1.00  0.00    -0.434 N  
HETATM   10  C   UNL     1     -11.671  14.040  68.790  1.00  0.00    -0.353 C  
HETATM   11  H   UNL     1     -10.167  13.692  70.174  1.00  0.00     0.000 HD 
HETATM   12  O   UNL     1     -12.198  13.831  67.711  1.00  0.00    -0.329 OA 
BRANCH  10  13
HETATM   13  O   UNL     1     -12.186  14.850  69.754  1.00  0.00    -0.309 OA 
BRANCH  13  14
HETATM   14  C   UNL     1     -12.007  14.379  71.102  1.00  0.00    -0.316 C  
HETATM   15  C   UNL     1     -11.830  15.485  72.118  1.00  0.00    -0.551 C  
HETATM   16  O   UNL     1     -13.423  13.978  72.993  1.00  0.00    -0.655 OA 
HETATM   17  C   UNL     1     -12.376  14.872  73.384  1.00  0.00    -0.399 C  
HETATM   18  C   UNL     1     -13.276  13.693  71.594  1.00  0.00    -0.367 C  
ENDBRANCH  13  14
ENDBRANCH  10  13
ENDBRANCH   8   9
BRANCH   8  19
HETATM   19  C   UNL     1      -8.203  13.025  68.376  1.00  0.00    -0.123 C  
BRANCH  19  20
HETATM   20  C   UNL     1      -7.885  14.492  68.265  1.00  0.00    -0.131 A  
HETATM   21  C   UNL     1      -7.555  16.485  66.921  1.00  0.00    -0.272 A  
HETATM   22  C   UNL     1      -6.966  16.499  69.264  1.00  0.00    -0.227 A  
HETATM   23  C   UNL     1      -7.391  15.177  69.381  1.00  0.00    -0.203 A  
HETATM   24  C   UNL     1      -7.972  15.158  67.034  1.00  0.00    -0.223 A  
HETATM   25  C   UNL     1      -7.045  17.151  68.035  1.00  0.00    -0.179 A  
ENDBRANCH  19  20
ENDBRANCH   8  19
ENDBRANCH   7   8
BRANCH   7  26
HETATM   26  O   UNL     1     -10.040  10.562  69.965  1.00  0.00    -0.121 OA 
HETATM   27  O   UNL     1     -12.954   9.939  71.333  1.00  0.00    -0.352 OA 
HETATM   28  O   UNL     1     -11.412   8.708  70.136  1.00  0.00    -0.158 OA 
HETATM   29  O   UNL     1     -12.406  10.833  69.432  1.00  0.00    -0.321 OA 
HETATM   30  P   UNL     1     -11.578  10.233  70.687  1.00  0.00    -0.356 P  
ENDBRANCH   7  26
ENDBRANCH   6   7
ENDBRANCH   5   6
BRANCH   5  31
HETATM   31  S   UNL     1      -9.225  10.280  64.937  1.00  0.00    -0.252 S  
HETATM   32  O   UNL     1      -9.342   9.349  63.833  1.00  0.00    -0.071 OA 
HETATM   33  O   UNL     1      -7.913  10.805  65.260  1.00  0.00    -0.107 OA 
BRANCH  31  34
HETATM   34  C   UNL     1     -10.212  11.660  64.489  1.00  0.00    -0.291 A  
HETATM   35  N   UNL     1     -12.605  15.001  63.712  1.00  0.00    -0.965 NA 
HETATM   36  C   UNL     1     -11.399  11.492  63.777  1.00  0.00    -0.420 A  
HETATM   37  H1  UNL     1     -12.313  15.928  64.021  1.00  0.00     0.000 HD 
HETATM   38  H2  UNL     1     -13.527  14.809  64.106  1.00  0.00     0.000 HD 
HETATM   39  C   UNL     1      -9.897  12.896  65.057  1.00  0.00    -0.067 A  
HETATM   40  C   UNL     1     -10.687  14.002  64.786  1.00  0.00    -0.442 A  
HETATM   41  C   UNL     1     -12.192  12.612  63.517  1.00  0.00    -0.638 A  
HETATM   42  C   UNL     1     -11.791  13.886  63.941  1.00  0.00    -0.278 A  
ENDBRANCH  31  34
ENDBRANCH   5  31
ENDBRANCH   4   5
TORSDOF 12
ENDMDL
MODEL       16
REMARK 921   NORMALIZED FREE ENERGY PREDICTED BY IDOCK:   -6.79 KCAL/MOL
REMARK 922        TOTAL FREE ENERGY PREDICTED BY IDOCK:  -14.36 KCAL/MOL
REMARK 923 INTER-LIGAND FREE ENERGY PREDICTED BY IDOCK:  -12.46 KCAL/MOL
REMARK 924 INTRA-LIGAND FREE ENERGY PREDICTED BY IDOCK:   -1.90 KCAL/MOL
REMARK 927      BINDING AFFINITY PREDICTED BY RF-SCORE:    0.00 PKD
ROOT
HETATM    1  C   UNL     1      -8.328  18.445  68.372  1.00  0.00    -0.328 C  
HETATM    2  C   UNL     1      -9.836  18.465  68.566  1.00  0.00    -0.402 C  
HETATM    3  C   UNL     1     -10.525  19.693  67.968  1.00  0.00    -0.537 C  
HETATM    4  C   UNL     1     -10.715  17.221  68.395  1.00  0.00    -0.332 C  
ENDROOT
BRANCH   4   5
HETATM    5  N   UNL     1     -10.533  16.081  67.450  1.00  0.00    -0.303 N  
BRANCH   5   6
HETATM    6  C   UNL     1     -11.686  15.075  67.743  1.00  0.00    -0.274 C  
BRANCH   6   7
HETATM    7  C   UNL     1     -11.441  14.047  68.940  1.00  0.00    -0.294 C  
BRANCH   7   8
HETATM    8  C   UNL     1     -10.702  12.716  68.422  1.00  0.00    -0.242 C  
BRANCH   8   9
HETATM    9  N   UNL     1      -9.370  12.530  69.025  1.00  0.00    -0.275 N  
HETATM   10  C   UNL     1      -8.303  12.106  68.275  1.00  0.00    -0.172 C  
HETATM   11  H   UNL     1      -9.240  12.720  70.019  1.00  0.00     0.000 HD 
HETATM   12  O   UNL     1      -8.311  11.901  67.073  1.00  0.00    -0.167 OA 
BRANCH  10  13
HETATM   13  O   UNL     1      -7.209  11.964  69.071  1.00  0.00    -0.112 OA 
BRANCH  13  14
HETATM   14  C   UNL     1      -6.357  13.121  69.144  1.00  0.00    -0.104 C  
HETATM   15  C   UNL     1      -5.412  13.260  67.972  1.00  0.00    -0.111 C  
HETATM   16  O   UNL     1      -6.423  15.367  68.312  1.00  0.00    -0.102 OA 
HETATM   17  C   UNL     1      -5.204  14.752  67.880  1.00  0.00    -0.071 C  
HETATM   18  C   UNL     1      -7.189  14.394  69.038  1.00  0.00    -0.129 C  
ENDBRANCH  13  14
ENDBRANCH  10  13
ENDBRANCH   8   9
BRANCH   8  19
HETATM   19  C   UNL     1     -11.507  11.396  68.446  1.00  0.00    -0.367 C  
BRANCH  19  20
HETATM   20  C   UNL     1     -11.533  10.614  69.732  1.00  0.00    -0.375 A  
HETATM   21  C   UNL     1     -10.578   8.940  71.204  1.00  0.00    -0.335 A  
HETATM   22  C   UNL     1     -12.767   9.847  71.671  1.00  0.00    -0.527 A  
HETATM   23  C   UNL     1     -12.670  10.664  70.547  1.00  0.00    -0.395 A  
HETATM   24  C   UNL     1     -10.483   9.751  70.073  1.00  0.00    -0.314 A  
HETATM   25  C   UNL     1     -11.723   8.983  71.998  1.00  0.00    -0.417 A  
ENDBRANCH  19  20
ENDBRANCH   8  19
ENDBRANCH   7   8
BRANCH   7  26
HETATM   26  O   UNL     1     -12.644  13.850  69.771  1.00  0.00    -0.262 OA 
HETATM   27  O   UNL     1     -12.625  15.119  72.794  1.00  0.00    -0.339 OA 
HETATM   28  O   UNL     1     -13.285  15.864  70.712  1.00  0.00    -0.491 OA 
HETATM   29  O   UNL     1     -11.078  14.962  71.278  1.00  0.00    -0.206 OA 
HETATM   30  P   UNL     1     -12.633  14.520  71.366  1.00  0.00    -0.388 P  
ENDBRANCH   7  26
ENDBRANCH   6   7
ENDBRANCH   5   6
BRANCH   5  31
HETATM   31  S   UNL     1     -10.239  16.164  65.769  1.00  0.00    -0.370 S  
HETATM   32  O   UNL     1      -8.812  16.091  65.530  1.00  0.00    -0.187 OA 
HETATM   33  O   UNL     1     -10.968  17.303  65.248  1.00  0.00    -0.472 OA 
BRANCH  31  34
HETATM   34  C   UNL     1     -10.916  14.745  64.990  1.00  0.00    -0.414 A  
HETATM   35  N   UNL     1     -12.280  11.344  62.975  1.00  0.00    -0.875 NA 
HETATM   36  C   UNL     1     -12.074  14.833  64.219  1.00  0.00    -0.415 A  
HETATM   37  H1  UNL     1     -11.784  10.457  63.064  1.00  0.00     0.000 HD 
HETATM   38  H2  UNL     1     -12.332  11.581  61.984  1.00  0.00     0.000 HD 
HETATM   39  C   UNL     1     -10.145  13.581  64.978  1.00  0.00    -0.280 A  
HETATM   40  C   UNL     1     -10.609  12.453  64.318  1.00  0.00    -0.391 A  
HETATM   41  C   UNL     1     -12.527  13.693  63.551  1.00  0.00    -0.152 A  
HETATM   42  C   UNL     1     -11.846  12.475  63.674  1.00  0.00    -0.530 A  
ENDBRANCH  31  34
ENDBRANCH   5  31
ENDBRANCH   4   5
TORSDOF 12
ENDMDL
MODEL       17
REMARK 921   NORMALIZED FREE ENERGY PREDICTED BY IDOCK:   -6.78 KCAL/MOL
REMARK 922        TOTAL FREE ENERGY PREDICTED BY IDOCK:  -14.34 KCAL/MOL
REMARK 923 INTER-LIGAND FREE ENERGY PREDICTED BY IDOCK:  -11.73 KCAL/MOL
REMARK 924 INTRA-LIGAND FREE ENERGY PREDICTED BY IDOCK:   -2.61 KCAL/MOL
REMARK 927      BINDING AFFINITY PREDICTED BY RF-SCORE:    0.00 PKD
ROOT
HETATM    1  C   UNL     1      -8.069  15.453  69.426  1.00  0.00    -0.249 C  
HETATM    2  C   UNL     1      -8.035  15.188  67.930  1.00  0.00    -0.143 C  
HETATM    3  C   UNL     1      -6.737  15.627  67.248  1.00  0.00    -0.167 C  
HETATM    4  C   UNL     1      -8.560  13.893  67.299  1.00  0.00    -0.211 C  
ENDROOT
BRANCH   4   5
HETATM    5  N   UNL     1      -8.537  12.512  67.864  1.00  0.00    -0.169 N  
BRANCH   5   6
HETATM    6  C   UNL     1      -9.878  11.839  67.445  1.00  0.00    -0.178 C  
BRANCH   6   7
HETATM    7  C   UNL     1     -11.162  12.787  67.404  1.00  0.00    -0.294 C  
BRANCH   7   8
HETATM    8  C   UNL     1     -11.718  13.078  68.885  1.00  0.00    -0.328 C  
BRANCH   8   9
HETATM    9  N   UNL     1     -11.279  12.072  69.869  1.00  0.00    -0.493 N  
HETATM   10  C   UNL     1     -12.076  11.004  70.196  1.00  0.00    -0.356 C  
HETATM   11  H   UNL     1     -10.366  12.171  70.314  1.00  0.00     0.000 HD 
HETATM   12  O   UNL     1     -13.157  10.740  69.698  1.00  0.00    -0.060 OA 
BRANCH  10  13
HETATM   13  O   UNL     1     -11.469  10.257  71.158  1.00  0.00    -0.341 OA 
BRANCH  13  14
HETATM   14  C   UNL     1     -11.763   8.849  71.108  1.00  0.00    -0.298 C  
HETATM   15  C   UNL     1     -10.733   8.037  70.356  1.00  0.00    -0.233 C  
HETATM   16  O   UNL     1     -11.163   6.915  72.389  1.00  0.00    -0.250 OA 
HETATM   17  C   UNL     1     -10.821   6.683  71.019  1.00  0.00    -0.245 C  
HETATM   18  C   UNL     1     -11.689   8.245  72.506  1.00  0.00    -0.383 C  
ENDBRANCH  13  14
ENDBRANCH  10  13
ENDBRANCH   8   9
BRANCH   8  19
HETATM   19  C   UNL     1     -11.542  14.510  69.445  1.00  0.00    -0.343 C  
BRANCH  19  20
HETATM   20  C   UNL     1     -12.225  14.843  70.745  1.00  0.00    -0.387 A  
HETATM   21  C   UNL     1     -14.218  14.905  72.126  1.00  0.00    -0.616 A  
HETATM   22  C   UNL     1     -12.216  16.049  72.846  1.00  0.00    -0.621 A  
HETATM   23  C   UNL     1     -11.555  15.619  71.697  1.00  0.00    -0.519 A  
HETATM   24  C   UNL     1     -13.561  14.482  70.971  1.00  0.00    -0.294 A  
HETATM   25  C   UNL     1     -13.547  15.695  73.059  1.00  0.00    -0.619 A  
ENDBRANCH  19  20
ENDBRANCH   8  19
ENDBRANCH   7   8
BRANCH   7  26
HETATM   26  O   UNL     1     -12.155  12.352  66.403  1.00  0.00    -0.607 OA 
HETATM   27  O   UNL     1     -12.540  14.220  63.736  1.00  0.00    -0.821 OA 
HETATM   28  O   UNL     1     -11.215  12.413  64.291  1.00  0.00    -0.311 OA 
HETATM   29  O   UNL     1     -11.385  14.506  65.553  1.00  0.00    -0.321 OA 
HETATM   30  P   UNL     1     -12.357  13.338  64.996  1.00  0.00    -0.438 P  
ENDBRANCH   7  26
ENDBRANCH   6   7
ENDBRANCH   5   6
BRANCH   5  31
HETATM   31  S   UNL     1      -7.260  11.380  67.782  1.00  0.00    -0.095 S  
HETATM   32  O   UNL     1      -6.898  10.970  69.123  1.00  0.00    -0.074 OA 
HETATM   33  O   UNL     1      -6.229  11.935  66.928  1.00  0.00    -0.154 OA 
BRANCH  31  34
HETATM   34  C   UNL     1      -7.828   9.922  66.986  1.00  0.00    -0.102 A  
HETATM   35  N   UNL     1      -8.953   6.304  65.216  1.00  0.00    -0.368 NA 
HETATM   36  C   UNL     1      -7.856   9.828  65.595  1.00  0.00    -0.114 A  
HETATM   37  H1  UNL     1      -9.225   5.509  65.794  1.00  0.00     0.000 HD 
HETATM   38  H2  UNL     1      -8.185   6.012  64.611  1.00  0.00     0.000 HD 
HETATM   39  C   UNL     1      -8.033   8.789  67.776  1.00  0.00    -0.106 A  
HETATM   40  C   UNL     1      -8.418   7.596  67.184  1.00  0.00    -0.121 A  
HETATM   41  C   UNL     1      -8.236   8.619  65.010  1.00  0.00    -0.159 A  
HETATM   42  C   UNL     1      -8.609   7.526  65.803  1.00  0.00    -0.142 A  
ENDBRANCH  31  34
ENDBRANCH   5  31
ENDBRANCH   4   5
TORSDOF 12
ENDMDL
MODEL       18
REMARK 921   NORMALIZED FREE ENERGY PREDICTED BY IDOCK:   -6.75 KCAL/MOL
REMARK 922        TOTAL FREE ENERGY PREDICTED BY IDOCK:  -14.29 KCAL/MOL
REMARK 923 INTER-LIGAND FREE ENERGY PREDICTED BY IDOCK:  -11.74 KCAL/MOL
REMARK 924 INTRA-LIGAND FREE ENERGY PREDICTED BY IDOCK:   -2.55 KCAL/MOL
REMARK 927      BINDING AFFINITY PREDICTED BY RF-SCORE:    0.00 PKD
ROOT
HETATM    1  C   UNL     1     -12.322   7.744  71.377  1.00  0.00    -0.346 C  
HETATM    2  C   UNL     1     -11.184   8.232  72.259  1.00  0.00    -0.443 C  
HETATM    3  C   UNL     1     -10.830   7.280  73.403  1.00  0.00    -0.370 C  
HETATM    4  C   UNL     1      -9.919   8.891  71.699  1.00  0.00    -0.327 C  
ENDROOT
BRANCH   4   5
HETATM    5  N   UNL     1      -9.222   8.611  70.410  1.00  0.00    -0.162 N  
BRANCH   5   6
HETATM    6  C   UNL     1      -8.391   9.884  70.069  1.00  0.00    -0.168 C  
BRANCH   6   7
HETATM    7  C   UNL     1      -8.858  10.711  68.785  1.00  0.00    -0.161 C  
BRANCH   7   8
HETATM    8  C   UNL     1     -10.445  10.972  68.807  1.00  0.00    -0.198 C  
BRANCH   8   9
HETATM    9  N   UNL     1     -10.797  12.310  69.314  1.00  0.00    -0.435 N  
HETATM   10  C   UNL     1     -11.790  12.477  70.246  1.00  0.00    -0.223 C  
HETATM   11  H   UNL     1     -10.294  13.126  68.966  1.00  0.00     0.000 HD 
HETATM   12  O   UNL     1     -12.424  11.584  70.783  1.00  0.00    -0.362 OA 
BRANCH  10  13
HETATM   13  O   UNL     1     -11.955  13.802  70.508  1.00  0.00    -0.323 OA 
BRANCH  13  14
HETATM   14  C   UNL     1     -12.586  14.097  71.767  1.00  0.00    -0.315 C  
HETATM   15  C   UNL     1     -11.854  15.133  72.590  1.00  0.00    -0.484 C  
HETATM   16  O   UNL     1     -14.138  15.734  72.578  1.00  0.00    -0.554 OA 
HETATM   17  C   UNL     1     -12.961  15.772  73.392  1.00  0.00    -0.583 C  
HETATM   18  C   UNL     1     -13.936  14.768  71.536  1.00  0.00    -0.467 C  
ENDBRANCH  13  14
ENDBRANCH  10  13
ENDBRANCH   8   9
BRANCH   8  19
HETATM   19  C   UNL     1     -11.240  10.643  67.521  1.00  0.00    -0.326 C  
BRANCH  19  20
HETATM   20  C   UNL     1     -11.281  11.685  66.436  1.00  0.00    -0.349 A  
HETATM   21  C   UNL     1     -12.258  13.682  65.463  1.00  0.00    -0.476 A  
HETATM   22  C   UNL     1     -10.665  12.379  64.198  1.00  0.00    -0.414 A  
HETATM   23  C   UNL     1     -10.537  11.493  65.267  1.00  0.00    -0.339 A  
HETATM   24  C   UNL     1     -12.138  12.791  66.531  1.00  0.00    -0.338 A  
HETATM   25  C   UNL     1     -11.526  13.470  64.295  1.00  0.00    -0.414 A  
ENDBRANCH  19  20
ENDBRANCH   8  19
ENDBRANCH   7   8
BRANCH   7  26
HETATM   26  O   UNL     1      -8.297  10.173  67.532  1.00  0.00    -0.118 OA 
HETATM   27  O   UNL     1      -5.790  11.791  66.172  1.00  0.00    -0.143 OA 
HETATM   28  O   UNL     1      -5.991  10.063  67.689  1.00  0.00    -0.052 OA 
HETATM   29  O   UNL     1      -7.070  12.256  67.864  1.00  0.00    -0.086 OA 
HETATM   30  P   UNL     1      -6.974  11.027  66.815  1.00  0.00    -0.136 P  
ENDBRANCH   7  26
ENDBRANCH   6   7
ENDBRANCH   5   6
BRANCH   5  31
HETATM   31  S   UNL     1      -8.343   7.207  69.990  1.00  0.00    -0.139 S  
HETATM   32  O   UNL     1      -8.457   6.235  71.057  1.00  0.00    -0.125 OA 
HETATM   33  O   UNL     1      -7.018   7.622  69.573  1.00  0.00    -0.053 OA 
BRANCH  31  34
HETATM   34  C   UNL     1      -9.087   6.453  68.591  1.00  0.00    -0.127 A  
HETATM   35  N   UNL     1     -11.125   4.711  65.381  1.00  0.00    -0.958 NA 
HETATM   36  C   UNL     1      -8.870   5.107  68.301  1.00  0.00    -0.107 A  
HETATM   37  H1  UNL     1     -11.755   5.270  64.805  1.00  0.00     0.000 HD 
HETATM   38  H2  UNL     1     -11.649   3.918  65.751  1.00  0.00     0.000 HD 
HETATM   39  C   UNL     1     -10.074   7.172  67.913  1.00  0.00    -0.211 A  
HETATM   40  C   UNL     1     -10.737   6.594  66.842  1.00  0.00    -0.401 A  
HETATM   41  C   UNL     1      -9.550   4.532  67.225  1.00  0.00    -0.213 A  
HETATM   42  C   UNL     1     -10.416   5.298  66.434  1.00  0.00    -0.292 A  
ENDBRANCH  31  34
ENDBRANCH   5  31
ENDBRANCH   4   5
TORSDOF 12
ENDMDL
MODEL       19
REMARK 921   NORMALIZED FREE ENERGY PREDICTED BY IDOCK:   -6.73 KCAL/MOL
REMARK 922        TOTAL FREE ENERGY PREDICTED BY IDOCK:  -14.26 KCAL/MOL
REMARK 923 INTER-LIGAND FREE ENERGY PREDICTED BY IDOCK:  -11.65 KCAL/MOL
REMARK 924 INTRA-LIGAND FREE ENERGY PREDICTED BY IDOCK:   -2.60 KCAL/MOL
REMARK 927      BINDING AFFINITY PREDICTED BY RF-SCORE:    0.00 PKD
ROOT
HETATM    1  C   UNL     1     -12.381  11.144  69.425  1.00  0.00    -0.224 C  
HETATM    2  C   UNL     1     -10.984  10.771  69.893  1.00  0.00    -0.304 C  
HETATM    3  C   UNL     1     -10.924   9.470  70.697  1.00  0.00    -0.370 C  
HETATM    4  C   UNL     1      -9.741  10.912  69.008  1.00  0.00    -0.166 C  
ENDROOT
BRANCH   4   5
HETATM    5  N   UNL     1      -9.634  10.743  67.529  1.00  0.00    -0.158 N  
BRANCH   5   6
HETATM    6  C   UNL     1      -8.966  12.040  66.982  1.00  0.00    -0.198 C  
BRANCH   6   7
HETATM    7  C   UNL     1      -9.924  13.055  66.206  1.00  0.00    -0.283 C  
BRANCH   7   8
HETATM    8  C   UNL     1      -9.886  14.517  66.875  1.00  0.00    -0.262 C  
BRANCH   8   9
HETATM    9  N   UNL     1     -10.129  14.487  68.329  1.00  0.00    -0.226 N  
HETATM   10  C   UNL     1     -11.399  14.575  68.839  1.00  0.00    -0.274 C  
HETATM   11  H   UNL     1      -9.338  14.400  68.966  1.00  0.00     0.000 HD 
HETATM   12  O   UNL     1     -12.429  14.623  68.187  1.00  0.00    -0.021 OA 
BRANCH  10  13
HETATM   13  O   UNL     1     -11.349  14.578  70.198  1.00  0.00    -0.252 OA 
BRANCH  13  14
HETATM   14  C   UNL     1     -12.378  15.351  70.842  1.00  0.00    -0.398 C  
HETATM   15  C   UNL     1     -13.511  14.520  71.398  1.00  0.00    -0.445 C  
HETATM   16  O   UNL     1     -12.868  16.045  73.083  1.00  0.00    -0.460 OA 
HETATM   17  C   UNL     1     -14.005  15.352  72.556  1.00  0.00    -0.543 C  
HETATM   18  C   UNL     1     -11.826  16.021  72.096  1.00  0.00    -0.528 C  
ENDBRANCH  13  14
ENDBRANCH  10  13
ENDBRANCH   8   9
BRANCH   8  19
HETATM   19  C   UNL     1      -8.683  15.427  66.535  1.00  0.00    -0.335 C  
BRANCH  19  20
HETATM   20  C   UNL     1      -8.940  16.902  66.381  1.00  0.00    -0.317 A  
HETATM   21  C   UNL     1      -8.136  19.190  66.313  1.00  0.00    -0.308 A  
HETATM   22  C   UNL     1     -10.509  18.748  66.393  1.00  0.00    -0.485 A  
HETATM   23  C   UNL     1     -10.256  17.378  66.401  1.00  0.00    -0.339 A  
HETATM   24  C   UNL     1      -7.881  17.818  66.329  1.00  0.00    -0.299 A  
HETATM   25  C   UNL     1      -9.451  19.653  66.352  1.00  0.00    -0.479 A  
ENDBRANCH  19  20
ENDBRANCH   8  19
ENDBRANCH   7   8
BRANCH   7  26
HETATM   26  O   UNL     1     -11.259  12.485  65.945  1.00  0.00    -0.294 OA 
HETATM   27  O   UNL     1     -12.756  13.340  63.156  1.00  0.00    -0.604 OA 
HETATM   28  O   UNL     1     -11.340  11.633  63.796  1.00  0.00    -0.397 OA 
HETATM   29  O   UNL     1     -10.918  14.029  64.086  1.00  0.00    -0.237 OA 
HETATM   30  P   UNL     1     -12.048  12.936  64.473  1.00  0.00    -0.454 P  
ENDBRANCH   7  26
ENDBRANCH   6   7
ENDBRANCH   5   6
BRANCH   5  31
HETATM   31  S   UNL     1      -9.049   9.379  66.681  1.00  0.00    -0.155 S  
HETATM   32  O   UNL     1      -7.611   9.480  66.548  1.00  0.00    -0.093 OA 
HETATM   33  O   UNL     1      -9.845   9.231  65.479  1.00  0.00    -0.265 OA 
BRANCH  31  34
HETATM   34  C   UNL     1      -9.329   7.936  67.640  1.00  0.00    -0.143 A  
HETATM   35  N   UNL     1     -10.233   4.633  70.041  1.00  0.00    -0.195 NA 
HETATM   36  C   UNL     1      -8.396   7.508  68.583  1.00  0.00    -0.129 A  
HETATM   37  H1  UNL     1     -11.115   4.135  69.922  1.00  0.00     0.000 HD 
HETATM   38  H2  UNL     1     -10.167   4.939  71.012  1.00  0.00     0.000 HD 
HETATM   39  C   UNL     1     -10.602   7.362  67.593  1.00  0.00    -0.309 A  
HETATM   40  C   UNL     1     -10.891   6.260  68.382  1.00  0.00    -0.394 A  
HETATM   41  C   UNL     1      -8.702   6.402  69.379  1.00  0.00    -0.129 A  
HETATM   42  C   UNL     1      -9.913   5.717  69.217  1.00  0.00    -0.182 A  
ENDBRANCH  31  34
ENDBRANCH   5  31
ENDBRANCH   4   5
TORSDOF 12
ENDMDL
MODEL       20
REMARK 921   NORMALIZED FREE ENERGY PREDICTED BY IDOCK:   -6.69 KCAL/MOL
REMARK 922        TOTAL FREE ENERGY PREDICTED BY IDOCK:  -14.18 KCAL/MOL
REMARK 923 INTER-LIGAND FREE ENERGY PREDICTED BY IDOCK:  -11.67 KCAL/MOL
REMARK 924 INTRA-LIGAND FREE ENERGY PREDICTED BY IDOCK:   -2.51 KCAL/MOL
REMARK 927      BINDING AFFINITY PREDICTED BY RF-SCORE:    0.00 PKD
ROOT
HETATM    1  C   UNL     1      -7.071  15.253  67.214  1.00  0.00    -0.187 C  
HETATM    2  C   UNL     1      -7.429  14.229  68.280  1.00  0.00    -0.125 C  
HETATM    3  C   UNL     1      -6.845  14.537  69.660  1.00  0.00    -0.142 C  
HETATM    4  C   UNL     1      -8.828  13.618  68.414  1.00  0.00    -0.152 C  
ENDROOT
BRANCH   4   5
HETATM    5  N   UNL     1     -10.148  14.256  68.134  1.00  0.00    -0.227 N  
BRANCH   5   6
HETATM    6  C   UNL     1     -11.195  13.104  68.084  1.00  0.00    -0.271 C  
BRANCH   6   7
HETATM    7  C   UNL     1     -11.201  12.211  66.760  1.00  0.00    -0.322 C  
BRANCH   7   8
HETATM    8  C   UNL     1     -10.631  10.736  67.050  1.00  0.00    -0.260 C  
BRANCH   8   9
HETATM    9  N   UNL     1     -11.318  10.068  68.170  1.00  0.00    -0.530 N  
HETATM   10  C   UNL     1     -10.635   9.693  69.300  1.00  0.00    -0.219 C  
HETATM   11  H   UNL     1     -12.318   9.881  68.105  1.00  0.00     0.000 HD 
HETATM   12  O   UNL     1      -9.456   9.908  69.527  1.00  0.00    -0.196 OA 
BRANCH  10  13
HETATM   13  O   UNL     1     -11.478   9.053  70.155  1.00  0.00    -0.193 OA 
BRANCH  13  14
HETATM   14  C   UNL     1     -10.891   7.958  70.880  1.00  0.00    -0.234 C  
HETATM   15  C   UNL     1     -10.684   8.239  72.351  1.00  0.00    -0.411 C  
HETATM   16  O   UNL     1     -11.705   6.116  72.180  1.00  0.00    -0.309 OA 
HETATM   17  C   UNL     1     -10.781   6.868  72.974  1.00  0.00    -0.297 C  
HETATM   18  C   UNL     1     -11.851   6.773  70.912  1.00  0.00    -0.385 C  
ENDBRANCH  13  14
ENDBRANCH  10  13
ENDBRANCH   8   9
BRANCH   8  19
HETATM   19  C   UNL     1     -10.482   9.778  65.845  1.00  0.00    -0.028 C  
BRANCH  19  20
HETATM   20  C   UNL     1      -9.217   9.863  65.034  1.00  0.00    -0.295 A  
HETATM   21  C   UNL     1      -6.802  10.047  64.904  1.00  0.00    -0.133 A  
HETATM   22  C   UNL     1      -8.139  10.290  62.907  1.00  0.00    -0.156 A  
HETATM   23  C   UNL     1      -9.296  10.076  63.653  1.00  0.00    -0.301 A  
HETATM   24  C   UNL     1      -7.960   9.842  65.654  1.00  0.00    -0.117 A  
HETATM   25  C   UNL     1      -6.893  10.279  63.532  1.00  0.00    -0.083 A  
ENDBRANCH  19  20
ENDBRANCH   8  19
ENDBRANCH   7   8
BRANCH   7  26
HETATM   26  O   UNL     1     -10.632  12.919  65.598  1.00  0.00    -0.269 OA 
HETATM   27  O   UNL     1     -12.653  13.638  63.118  1.00  0.00    -0.792 OA 
HETATM   28  O   UNL     1     -11.975  14.719  65.042  1.00  0.00    -0.366 OA 
HETATM   29  O   UNL     1     -12.934  12.467  64.925  1.00  0.00    -0.821 OA 
HETATM   30  P   UNL     1     -11.699  13.299  64.290  1.00  0.00    -0.440 P  
ENDBRANCH   7  26
ENDBRANCH   6   7
ENDBRANCH   5   6
BRANCH   5  31
HETATM   31  S   UNL     1     -10.820  15.628  68.900  1.00  0.00    -0.271 S  
HETATM   32  O   UNL     1     -10.300  15.724  70.248  1.00  0.00    -0.286 OA 
HETATM   33  O   UNL     1     -12.256  15.578  68.717  1.00  0.00    -0.218 OA 
BRANCH  31  34
HETATM   34  C   UNL     1     -10.268  17.079  68.082  1.00  0.00    -0.322 A  
HETATM   35  N   UNL     1      -9.167  20.685  66.273  1.00  0.00    -0.537 NA 
HETATM   36  C   UNL     1     -10.324  17.185  66.693  1.00  0.00    -0.310 A  
HETATM   37  H1  UNL     1      -8.841  21.469  66.840  1.00  0.00     0.000 HD 
HETATM   38  H2  UNL     1      -9.964  21.001  65.721  1.00  0.00     0.000 HD 
HETATM   39  C   UNL     1      -9.986  18.199  68.867  1.00  0.00    -0.352 A  
HETATM   40  C   UNL     1      -9.609  19.388  68.261  1.00  0.00    -0.454 A  
HETATM   41  C   UNL     1      -9.951  18.391  66.095  1.00  0.00    -0.330 A  
HETATM   42  C   UNL     1      -9.503  19.467  66.872  1.00  0.00    -0.333 A  
ENDBRANCH  31  34
ENDBRANCH   5  31
ENDBRANCH   4   5
TORSDOF 12
ENDMDL
MODEL       21
REMARK 921   NORMALIZED FREE ENERGY PREDICTED BY IDOCK:   -6.67 KCAL/MOL
REMARK 922        TOTAL FREE ENERGY PREDICTED BY IDOCK:  -14.16 KCAL/MOL
REMARK 923 INTER-LIGAND FREE ENERGY PREDICTED BY IDOCK:  -11.41 KCAL/MOL
REMARK 924 INTRA-LIGAND FREE ENERGY PREDICTED BY IDOCK:   -2.75 KCAL/MOL
REMARK 927      BINDING AFFINITY PREDICTED BY RF-SCORE:    0.00 PKD
ROOT
HETATM    1  C   UNL     1      -8.771  11.084  62.332  1.00  0.00    -0.356 C  
HETATM    2  C   UNL     1      -9.079   9.838  63.147  1.00  0.00    -0.270 C  
HETATM    3  C   UNL     1      -8.091   8.690  62.927  1.00  0.00    -0.177 C  
HETATM    4  C   UNL     1      -9.524   9.889  64.612  1.00  0.00    -0.278 C  
ENDROOT
BRANCH   4   5
HETATM    5  N   UNL     1      -9.127  10.866  65.668  1.00  0.00    -0.199 N  
BRANCH   5   6
HETATM    6  C   UNL     1     -10.301  10.914  66.691  1.00  0.00    -0.239 C  
BRANCH   6   7
HETATM    7  C   UNL     1     -10.873  12.363  67.044  1.00  0.00    -0.246 C  
BRANCH   7   8
HETATM    8  C   UNL     1     -10.574  12.749  68.576  1.00  0.00    -0.252 C  
BRANCH   8   9
HETATM    9  N   UNL     1      -9.863  14.033  68.713  1.00  0.00    -0.360 N  
HETATM   10  C   UNL     1     -10.519  15.228  68.562  1.00  0.00    -0.235 C  
HETATM   11  H   UNL     1      -8.865  14.033  68.925  1.00  0.00     0.000 HD 
HETATM   12  O   UNL     1     -11.715  15.367  68.368  1.00  0.00    -0.352 OA 
BRANCH  10  13
HETATM   13  O   UNL     1      -9.636  16.256  68.684  1.00  0.00    -0.219 OA 
BRANCH  13  14
HETATM   14  C   UNL     1      -9.883  17.375  67.814  1.00  0.00    -0.283 C  
HETATM   15  C   UNL     1      -9.304  18.679  68.314  1.00  0.00    -0.359 C  
HETATM   16  O   UNL     1      -8.704  18.473  66.040  1.00  0.00    -0.497 OA 
HETATM   17  C   UNL     1      -9.037  19.442  67.040  1.00  0.00    -0.309 C  
HETATM   18  C   UNL     1      -9.148  17.185  66.491  1.00  0.00    -0.269 C  
ENDBRANCH  13  14
ENDBRANCH  10  13
ENDBRANCH   8   9
BRANCH   8  19
HETATM   19  C   UNL     1     -11.749  12.661  69.577  1.00  0.00    -0.374 C  
BRANCH  19  20
HETATM   20  C   UNL     1     -11.830  11.442  70.457  1.00  0.00    -0.394 A  
HETATM   21  C   UNL     1     -11.137   9.181  71.001  1.00  0.00    -0.374 A  
HETATM   22  C   UNL     1     -13.023  10.171  72.140  1.00  0.00    -0.436 A  
HETATM   23  C   UNL     1     -12.851  11.345  71.410  1.00  0.00    -0.502 A  
HETATM   24  C   UNL     1     -10.969  10.353  70.262  1.00  0.00    -0.353 A  
HETATM   25  C   UNL     1     -12.169   9.089  71.934  1.00  0.00    -0.451 A  
ENDBRANCH  19  20
ENDBRANCH   8  19
ENDBRANCH   7   8
BRANCH   7  26
HETATM   26  O   UNL     1     -12.259  12.553  66.576  1.00  0.00    -0.569 OA 
HETATM   27  O   UNL     1     -12.727  14.448  63.942  1.00  0.00    -0.771 OA 
HETATM   28  O   UNL     1     -12.372  12.195  64.293  1.00  0.00    -0.403 OA 
HETATM   29  O   UNL     1     -10.955  14.015  65.121  1.00  0.00    -0.319 OA 
HETATM   30  P   UNL     1     -12.505  13.553  65.186  1.00  0.00    -0.405 P  
ENDBRANCH   7  26
ENDBRANCH   6   7
ENDBRANCH   5   6
BRANCH   5  31
HETATM   31  S   UNL     1      -7.630  10.957  66.486  1.00  0.00    -0.142 S  
HETATM   32  O   UNL     1      -7.480  12.277  67.063  1.00  0.00    -0.140 OA 
HETATM   33  O   UNL     1      -6.602  10.478  65.584  1.00  0.00    -0.124 OA 
BRANCH  31  34
HETATM   34  C   UNL     1      -7.645   9.851  67.849  1.00  0.00    -0.090 A  
HETATM   35  N   UNL     1      -7.969   7.164  71.038  1.00  0.00    -0.102 NA 
HETATM   36  C   UNL     1      -7.410  10.307  69.146  1.00  0.00    -0.096 A  
HETATM   37  H1  UNL     1      -8.195   6.185  70.866  1.00  0.00     0.000 HD 
HETATM   38  H2  UNL     1      -8.662   7.544  71.683  1.00  0.00     0.000 HD 
HETATM   39  C   UNL     1      -8.120   8.556  67.630  1.00  0.00    -0.107 A  
HETATM   40  C   UNL     1      -8.213   7.666  68.689  1.00  0.00    -0.128 A  
HETATM   41  C   UNL     1      -7.515   9.404  70.206  1.00  0.00    -0.131 A  
HETATM   42  C   UNL     1      -7.826   8.058  69.971  1.00  0.00    -0.104 A  
ENDBRANCH  31  34
ENDBRANCH   5  31
ENDBRANCH   4   5
TORSDOF 12
ENDMDL
MODEL       22
REMARK 921   NORMALIZED FREE ENERGY PREDICTED BY IDOCK:   -6.66 KCAL/MOL
REMARK 922        TOTAL FREE ENERGY PREDICTED BY IDOCK:  -14.14 KCAL/MOL
REMARK 923 INTER-LIGAND FREE ENERGY PREDICTED BY IDOCK:  -12.69 KCAL/MOL
REMARK 924 INTRA-LIGAND FREE ENERGY PREDICTED BY IDOCK:   -1.45 KCAL/MOL
REMARK 927      BINDING AFFINITY PREDICTED BY RF-SCORE:    0.00 PKD
ROOT
HETATM    1  C   UNL     1      -7.778   9.806  70.575  1.00  0.00    -0.094 C  
HETATM    2  C   UNL     1      -7.184  10.608  69.429  1.00  0.00    -0.126 C  
HETATM    3  C   UNL     1      -6.304   9.787  68.484  1.00  0.00    -0.047 C  
HETATM    4  C   UNL     1      -7.979  11.657  68.644  1.00  0.00    -0.127 C  
ENDROOT
BRANCH   4   5
HETATM    5  N   UNL     1      -9.433  11.656  68.308  1.00  0.00    -0.187 N  
BRANCH   5   6
HETATM    6  C   UNL     1      -9.608  12.613  67.091  1.00  0.00    -0.207 C  
BRANCH   6   7
HETATM    7  C   UNL     1     -10.684  13.781  67.259  1.00  0.00    -0.283 C  
BRANCH   7   8
HETATM    8  C   UNL     1     -10.754  14.293  68.782  1.00  0.00    -0.254 C  
BRANCH   8   9
HETATM    9  N   UNL     1      -9.599  15.127  69.159  1.00  0.00    -0.227 N  
HETATM   10  C   UNL     1      -9.363  16.332  68.547  1.00  0.00    -0.213 C  
HETATM   11  H   UNL     1      -8.963  14.802  69.887  1.00  0.00     0.000 HD 
HETATM   12  O   UNL     1     -10.074  16.859  67.708  1.00  0.00    -0.272 OA 
BRANCH  10  13
HETATM   13  O   UNL     1      -8.215  16.877  69.034  1.00  0.00    -0.234 OA 
BRANCH  13  14
HETATM   14  C   UNL     1      -7.005  16.369  68.443  1.00  0.00    -0.144 C  
HETATM   15  C   UNL     1      -6.130  15.600  69.407  1.00  0.00    -0.131 C  
HETATM   16  O   UNL     1      -6.308  14.307  67.439  1.00  0.00    -0.324 OA 
HETATM   17  C   UNL     1      -5.410  14.625  68.507  1.00  0.00    -0.103 C  
HETATM   18  C   UNL     1      -7.334  15.311  67.396  1.00  0.00    -0.210 C  
ENDBRANCH  13  14
ENDBRANCH  10  13
ENDBRANCH   8   9
BRANCH   8  19
HETATM   19  C   UNL     1     -12.077  14.937  69.258  1.00  0.00    -0.286 C  
BRANCH  19  20
HETATM   20  C   UNL     1     -12.341  14.984  70.739  1.00  0.00    -0.400 A  
HETATM   21  C   UNL     1     -13.505  14.165  72.703  1.00  0.00    -0.634 A  
HETATM   22  C   UNL     1     -12.186  16.183  72.839  1.00  0.00    -0.640 A  
HETATM   23  C   UNL     1     -11.842  16.052  71.495  1.00  0.00    -0.554 A  
HETATM   24  C   UNL     1     -13.170  14.036  71.355  1.00  0.00    -0.404 A  
HETATM   25  C   UNL     1     -13.019  15.243  73.442  1.00  0.00    -0.656 A  
ENDBRANCH  19  20
ENDBRANCH   8  19
ENDBRANCH   7   8
BRANCH   7  26
HETATM   26  O   UNL     1     -11.971  13.461  66.612  1.00  0.00    -0.381 OA 
HETATM   27  O   UNL     1     -12.527  14.715  63.634  1.00  0.00    -0.754 OA 
HETATM   28  O   UNL     1     -11.602  12.759  64.439  1.00  0.00    -0.324 OA 
HETATM   29  O   UNL     1     -10.922  15.029  65.063  1.00  0.00    -0.373 OA 
HETATM   30  P   UNL     1     -12.264  14.123  65.041  1.00  0.00    -0.425 P  
ENDBRANCH   7  26
ENDBRANCH   6   7
ENDBRANCH   5   6
BRANCH   5  31
HETATM   31  S   UNL     1     -10.457  10.299  68.139  1.00  0.00    -0.206 S  
HETATM   32  O   UNL     1      -9.650   9.113  67.940  1.00  0.00    -0.143 OA 
HETATM   33  O   UNL     1     -11.462  10.623  67.146  1.00  0.00    -0.359 OA 
BRANCH  31  34
HETATM   34  C   UNL     1     -11.318  10.030  69.644  1.00  0.00    -0.202 A  
HETATM   35  N   UNL     1     -13.502   9.156  73.102  1.00  0.00    -0.869 NA 
HETATM   36  C   UNL     1     -12.210  10.980  70.141  1.00  0.00    -0.424 A  
HETATM   37  H1  UNL     1     -13.369   8.268  73.586  1.00  0.00     0.000 HD 
HETATM   38  H2  UNL     1     -14.491   9.243  72.864  1.00  0.00     0.000 HD 
HETATM   39  C   UNL     1     -11.259   8.753  70.207  1.00  0.00    -0.212 A  
HETATM   40  C   UNL     1     -11.976   8.473  71.360  1.00  0.00    -0.345 A  
HETATM   41  C   UNL     1     -12.933  10.684  71.298  1.00  0.00    -0.513 A  
HETATM   42  C   UNL     1     -12.749   9.465  71.964  1.00  0.00    -0.403 A  
ENDBRANCH  31  34
ENDBRANCH   5  31
ENDBRANCH   4   5
TORSDOF 12
ENDMDL
MODEL       23
REMARK 921   NORMALIZED FREE ENERGY PREDICTED BY IDOCK:   -6.65 KCAL/MOL
REMARK 922        TOTAL FREE ENERGY PREDICTED BY IDOCK:  -14.12 KCAL/MOL
REMARK 923 INTER-LIGAND FREE ENERGY PREDICTED BY IDOCK:  -12.08 KCAL/MOL
REMARK 924 INTRA-LIGAND FREE ENERGY PREDICTED BY IDOCK:   -2.05 KCAL/MOL
REMARK 927      BINDING AFFINITY PREDICTED BY RF-SCORE:    0.00 PKD
ROOT
HETATM    1  C   UNL     1      -9.523   8.876  65.820  1.00  0.00    -0.272 C  
HETATM    2  C   UNL     1     -10.383   8.176  66.860  1.00  0.00    -0.401 C  
HETATM    3  C   UNL     1     -10.645   6.699  66.560  1.00  0.00    -0.096 C  
HETATM    4  C   UNL     1     -10.213   8.395  68.367  1.00  0.00    -0.206 C  
ENDROOT
BRANCH   4   5
HETATM    5  N   UNL     1      -8.958   8.669  69.127  1.00  0.00    -0.141 N  
BRANCH   5   6
HETATM    6  C   UNL     1      -9.374   9.479  70.392  1.00  0.00    -0.257 C  
BRANCH   6   7
HETATM    7  C   UNL     1     -10.924   9.449  70.772  1.00  0.00    -0.304 C  
BRANCH   7   8
HETATM    8  C   UNL     1     -11.645  10.834  70.384  1.00  0.00    -0.339 C  
BRANCH   8   9
HETATM    9  N   UNL     1     -12.093  10.871  68.980  1.00  0.00    -0.488 N  
HETATM   10  C   UNL     1     -11.381  11.551  68.025  1.00  0.00    -0.298 C  
HETATM   11  H   UNL     1     -12.948  10.382  68.714  1.00  0.00     0.000 HD 
HETATM   12  O   UNL     1     -10.319  12.124  68.199  1.00  0.00    -0.195 OA 
BRANCH  10  13
HETATM   13  O   UNL     1     -12.028  11.477  66.831  1.00  0.00    -0.516 OA 
BRANCH  13  14
HETATM   14  C   UNL     1     -11.564  12.402  65.831  1.00  0.00    -0.396 C  
HETATM   15  C   UNL     1     -11.590  11.848  64.425  1.00  0.00    -0.369 C  
HETATM   16  O   UNL     1     -12.575  13.993  64.351  1.00  0.00    -0.651 OA 
HETATM   17  C   UNL     1     -11.786  13.082  63.578  1.00  0.00    -0.516 C  
HETATM   18  C   UNL     1     -12.519  13.586  65.726  1.00  0.00    -0.462 C  
ENDBRANCH  13  14
ENDBRANCH  10  13
ENDBRANCH   8   9
BRANCH   8  19
HETATM   19  C   UNL     1     -12.754  11.351  71.331  1.00  0.00    -0.489 C  
BRANCH  19  20
HETATM   20  C   UNL     1     -12.954  12.840  71.428  1.00  0.00    -0.359 A  
HETATM   21  C   UNL     1     -14.224  14.752  72.212  1.00  0.00    -0.562 A  
HETATM   22  C   UNL     1     -12.451  15.061  70.602  1.00  0.00    -0.422 A  
HETATM   23  C   UNL     1     -12.189  13.692  70.624  1.00  0.00    -0.434 A  
HETATM   24  C   UNL     1     -13.970  13.380  72.229  1.00  0.00    -0.605 A  
HETATM   25  C   UNL     1     -13.469  15.590  71.393  1.00  0.00    -0.583 A  
ENDBRANCH  19  20
ENDBRANCH   8  19
ENDBRANCH   7   8
BRANCH   7  26
HETATM   26  O   UNL     1     -11.162   8.944  72.138  1.00  0.00    -0.360 OA 
HETATM   27  O   UNL     1     -12.396   5.922  72.446  1.00  0.00    -0.198 OA 
HETATM   28  O   UNL     1     -10.271   6.820  72.353  1.00  0.00    -0.178 OA 
HETATM   29  O   UNL     1     -12.051   7.178  70.708  1.00  0.00    -0.331 OA 
HETATM   30  P   UNL     1     -11.813   7.349  72.300  1.00  0.00    -0.196 P  
ENDBRANCH   7  26
ENDBRANCH   6   7
ENDBRANCH   5   6
BRANCH   5  31
HETATM   31  S   UNL     1      -7.722   7.558  69.522  1.00  0.00    -0.105 S  
HETATM   32  O   UNL     1      -7.528   7.549  70.957  1.00  0.00    -0.071 OA 
HETATM   33  O   UNL     1      -6.582   7.843  68.674  1.00  0.00    -0.053 OA 
BRANCH  31  34
HETATM   34  C   UNL     1      -8.247   5.934  69.112  1.00  0.00    -0.106 A  
HETATM   35  N   UNL     1      -9.577   2.170  67.868  1.00  0.00    -0.380 NA 
HETATM   36  C   UNL     1      -9.293   5.322  69.803  1.00  0.00    -0.182 A  
HETATM   37  H1  UNL     1      -9.127   1.697  67.083  1.00  0.00     0.000 HD 
HETATM   38  H2  UNL     1     -10.572   2.254  67.661  1.00  0.00     0.000 HD 
HETATM   39  C   UNL     1      -7.746   5.366  67.939  1.00  0.00    -0.092 A  
HETATM   40  C   UNL     1      -8.182   4.113  67.538  1.00  0.00    -0.098 A  
HETATM   41  C   UNL     1      -9.730   4.064  69.385  1.00  0.00    -0.205 A  
HETATM   42  C   UNL     1      -9.113   3.413  68.308  1.00  0.00    -0.155 A  
ENDBRANCH  31  34
ENDBRANCH   5  31
ENDBRANCH   4   5
TORSDOF 12
ENDMDL
MODEL       24
REMARK 921   NORMALIZED FREE ENERGY PREDICTED BY IDOCK:   -6.64 KCAL/MOL
REMARK 922        TOTAL FREE ENERGY PREDICTED BY IDOCK:  -14.11 KCAL/MOL
REMARK 923 INTER-LIGAND FREE ENERGY PREDICTED BY IDOCK:  -11.04 KCAL/MOL
REMARK 924 INTRA-LIGAND FREE ENERGY PREDICTED BY IDOCK:   -3.07 KCAL/MOL
REMARK 927      BINDING AFFINITY PREDICTED BY RF-SCORE:    0.00 PKD
ROOT
HETATM    1  C   UNL     1     -10.486   7.554  66.842  1.00  0.00    -0.385 C  
HETATM    2  C   UNL     1      -9.465   6.914  67.768  1.00  0.00    -0.128 C  
HETATM    3  C   UNL     1      -8.459   6.007  67.055  1.00  0.00    -0.108 C  
HETATM    4  C   UNL     1      -8.784   7.673  68.913  1.00  0.00    -0.135 C  
ENDROOT
BRANCH   4   5
HETATM    5  N   UNL     1      -8.401   9.114  68.969  1.00  0.00    -0.124 N  
BRANCH   5   6
HETATM    6  C   UNL     1      -8.940   9.663  70.324  1.00  0.00    -0.219 C  
BRANCH   6   7
HETATM    7  C   UNL     1     -10.502   9.468  70.594  1.00  0.00    -0.308 C  
BRANCH   7   8
HETATM    8  C   UNL     1     -11.344  10.741  70.087  1.00  0.00    -0.309 C  
BRANCH   8   9
HETATM    9  N   UNL     1     -11.669  10.676  68.651  1.00  0.00    -0.488 N  
HETATM   10  C   UNL     1     -10.989  11.436  67.734  1.00  0.00    -0.247 C  
HETATM   11  H   UNL     1     -12.413  10.055  68.334  1.00  0.00     0.000 HD 
HETATM   12  O   UNL     1     -10.045  12.171  67.973  1.00  0.00    -0.192 OA 
BRANCH  10  13
HETATM   13  O   UNL     1     -11.510  11.235  66.493  1.00  0.00    -0.335 OA 
BRANCH  13  14
HETATM   14  C   UNL     1     -11.377  12.348  65.591  1.00  0.00    -0.347 C  
HETATM   15  C   UNL     1     -11.526  11.975  64.133  1.00  0.00    -0.460 C  
HETATM   16  O   UNL     1     -12.868  13.881  64.510  1.00  0.00    -0.644 OA 
HETATM   17  C   UNL     1     -12.063  13.242  63.513  1.00  0.00    -0.482 C  
HETATM   18  C   UNL     1     -12.527  13.328  65.790  1.00  0.00    -0.417 C  
ENDBRANCH  13  14
ENDBRANCH  10  13
ENDBRANCH   8   9
BRANCH   8  19
HETATM   19  C   UNL     1     -12.584  11.153  70.915  1.00  0.00    -0.483 C  
BRANCH  19  20
HETATM   20  C   UNL     1     -12.775  12.617  71.210  1.00  0.00    -0.354 A  
HETATM   21  C   UNL     1     -13.911  14.399  72.401  1.00  0.00    -0.585 A  
HETATM   22  C   UNL     1     -12.428  14.927  70.569  1.00  0.00    -0.419 A  
HETATM   23  C   UNL     1     -12.158  13.571  70.394  1.00  0.00    -0.415 A  
HETATM   24  C   UNL     1     -13.649  13.040  72.221  1.00  0.00    -0.643 A  
HETATM   25  C   UNL     1     -13.307  15.340  71.569  1.00  0.00    -0.559 A  
ENDBRANCH  19  20
ENDBRANCH   8  19
ENDBRANCH   7   8
BRANCH   7  26
HETATM   26  O   UNL     1     -10.784   8.996  71.963  1.00  0.00    -0.349 OA 
HETATM   27  O   UNL     1     -12.169   6.043  72.296  1.00  0.00    -0.281 OA 
HETATM   28  O   UNL     1     -10.002   6.835  72.224  1.00  0.00    -0.161 OA 
HETATM   29  O   UNL     1     -11.737   7.254  70.546  1.00  0.00    -0.285 OA 
HETATM   30  P   UNL     1     -11.514   7.438  72.139  1.00  0.00    -0.304 P  
ENDBRANCH   7  26
ENDBRANCH   6   7
ENDBRANCH   5   6
BRANCH   5  31
HETATM   31  S   UNL     1      -6.872   9.795  68.626  1.00  0.00    -0.051 S  
HETATM   32  O   UNL     1      -5.835   8.873  69.042  1.00  0.00    -0.039 OA 
HETATM   33  O   UNL     1      -6.855  11.140  69.163  1.00  0.00    -0.082 OA 
BRANCH  31  34
HETATM   34  C   UNL     1      -6.684   9.954  66.888  1.00  0.00    -0.078 A  
HETATM   35  N   UNL     1      -6.408  10.096  62.718  1.00  0.00    -0.126 NA 
HETATM   36  C   UNL     1      -5.432   9.831  66.288  1.00  0.00    -0.044 A  
HETATM   37  H1  UNL     1      -7.243  10.240  62.150  1.00  0.00     0.000 HD 
HETATM   38  H2  UNL     1      -5.963   9.229  62.416  1.00  0.00     0.000 HD 
HETATM   39  C   UNL     1      -7.843   9.982  66.110  1.00  0.00    -0.114 A  
HETATM   40  C   UNL     1      -7.745  10.041  64.728  1.00  0.00    -0.142 A  
HETATM   41  C   UNL     1      -5.346   9.883  64.895  1.00  0.00    -0.066 A  
HETATM   42  C   UNL     1      -6.492  10.082  64.114  1.00  0.00    -0.131 A  
ENDBRANCH  31  34
ENDBRANCH   5  31
ENDBRANCH   4   5
TORSDOF 12
ENDMDL
MODEL       25
REMARK 921   NORMALIZED FREE ENERGY PREDICTED BY IDOCK:   -6.64 KCAL/MOL
REMARK 922        TOTAL FREE ENERGY PREDICTED BY IDOCK:  -14.10 KCAL/MOL
REMARK 923 INTER-LIGAND FREE ENERGY PREDICTED BY IDOCK:  -11.52 KCAL/MOL
REMARK 924 INTRA-LIGAND FREE ENERGY PREDICTED BY IDOCK:   -2.58 KCAL/MOL
REMARK 927      BINDING AFFINITY PREDICTED BY RF-SCORE:    0.00 PKD
ROOT
HETATM    1  C   UNL     1      -6.432  14.505  67.724  1.00  0.00    -0.181 C  
HETATM    2  C   UNL     1      -7.259  15.178  68.807  1.00  0.00    -0.127 C  
HETATM    3  C   UNL     1      -6.579  16.391  69.447  1.00  0.00    -0.210 C  
HETATM    4  C   UNL     1      -8.767  15.416  68.679  1.00  0.00    -0.191 C  
ENDROOT
BRANCH   4   5
HETATM    5  N   UNL     1      -9.556  15.715  67.448  1.00  0.00    -0.216 N  
BRANCH   5   6
HETATM    6  C   UNL     1     -10.815  14.798  67.496  1.00  0.00    -0.287 C  
BRANCH   6   7
HETATM    7  C   UNL     1     -10.750  13.462  66.625  1.00  0.00    -0.282 C  
BRANCH   7   8
HETATM    8  C   UNL     1      -9.713  12.406  67.255  1.00  0.00    -0.201 C  
BRANCH   8   9
HETATM    9  N   UNL     1     -10.052  12.028  68.639  1.00  0.00    -0.328 N  
HETATM   10  C   UNL     1     -11.204  11.342  68.926  1.00  0.00    -0.253 C  
HETATM   11  H   UNL     1      -9.418  12.282  69.397  1.00  0.00     0.000 HD 
HETATM   12  O   UNL     1     -12.013  10.930  68.111  1.00  0.00    -0.581 OA 
BRANCH  10  13
HETATM   13  O   UNL     1     -11.309  11.162  70.271  1.00  0.00    -0.268 OA 
BRANCH  13  14
HETATM   14  C   UNL     1     -11.752   9.855  70.676  1.00  0.00    -0.323 C  
HETATM   15  C   UNL     1     -10.860   9.197  71.705  1.00  0.00    -0.442 C  
HETATM   16  O   UNL     1     -13.087   8.959  72.453  1.00  0.00    -0.407 OA 
HETATM   17  C   UNL     1     -11.814   8.303  72.458  1.00  0.00    -0.373 C  
HETATM   18  C   UNL     1     -13.079   9.955  71.420  1.00  0.00    -0.407 C  
ENDBRANCH  13  14
ENDBRANCH  10  13
ENDBRANCH   8   9
BRANCH   8  19
HETATM   19  C   UNL     1      -9.365  11.157  66.412  1.00  0.00    -0.207 C  
BRANCH  19  20
HETATM   20  C   UNL     1      -8.122  10.390  66.776  1.00  0.00    -0.120 A  
HETATM   21  C   UNL     1      -7.043   8.348  67.519  1.00  0.00    -0.083 A  
HETATM   22  C   UNL     1      -5.782  10.405  67.404  1.00  0.00    -0.045 A  
HETATM   23  C   UNL     1      -6.912  11.075  66.939  1.00  0.00    -0.125 A  
HETATM   24  C   UNL     1      -8.178   9.019  67.063  1.00  0.00    -0.109 A  
HETATM   25  C   UNL     1      -5.848   9.044  67.697  1.00  0.00    -0.043 A  
ENDBRANCH  19  20
ENDBRANCH   8  19
ENDBRANCH   7   8
BRANCH   7  26
HETATM   26  O   UNL     1     -10.617  13.733  65.181  1.00  0.00    -0.330 OA 
HETATM   27  O   UNL     1     -13.017  12.683  63.210  1.00  0.00    -0.595 OA 
HETATM   28  O   UNL     1     -12.587  14.633  64.368  1.00  0.00    -0.662 OA 
HETATM   29  O   UNL     1     -12.642  12.379  65.327  1.00  0.00    -0.636 OA 
HETATM   30  P   UNL     1     -11.884  13.179  64.141  1.00  0.00    -0.476 P  
ENDBRANCH   7  26
ENDBRANCH   6   7
ENDBRANCH   5   6
BRANCH   5  31
HETATM   31  S   UNL     1      -9.972  17.253  66.831  1.00  0.00    -0.306 S  
HETATM   32  O   UNL     1     -11.034  17.820  67.637  1.00  0.00    -0.301 OA 
HETATM   33  O   UNL     1     -10.188  17.114  65.405  1.00  0.00    -0.605 OA 
BRANCH  31  34
HETATM   34  C   UNL     1      -8.610  18.343  67.021  1.00  0.00    -0.262 A  
HETATM   35  N   UNL     1      -5.190  20.700  67.503  1.00  0.00    -0.182 NA 
HETATM   36  C   UNL     1      -8.541  19.225  68.099  1.00  0.00    -0.363 A  
HETATM   37  H1  UNL     1      -4.426  20.646  66.828  1.00  0.00     0.000 HD 
HETATM   38  H2  UNL     1      -4.812  20.499  68.429  1.00  0.00     0.000 HD 
HETATM   39  C   UNL     1      -7.500  18.144  66.197  1.00  0.00    -0.297 A  
HETATM   40  C   UNL     1      -6.374  18.937  66.354  1.00  0.00    -0.214 A  
HETATM   41  C   UNL     1      -7.398  20.012  68.252  1.00  0.00    -0.295 A  
HETATM   42  C   UNL     1      -6.349  19.938  67.326  1.00  0.00    -0.189 A  
ENDBRANCH  31  34
ENDBRANCH   5  31
ENDBRANCH   4   5
TORSDOF 12
ENDMDL
MODEL       26
REMARK 921   NORMALIZED FREE ENERGY PREDICTED BY IDOCK:   -6.62 KCAL/MOL
REMARK 922        TOTAL FREE ENERGY PREDICTED BY IDOCK:  -14.06 KCAL/MOL
REMARK 923 INTER-LIGAND FREE ENERGY PREDICTED BY IDOCK:  -11.64 KCAL/MOL
REMARK 924 INTRA-LIGAND FREE ENERGY PREDICTED BY IDOCK:   -2.42 KCAL/MOL
REMARK 927      BINDING AFFINITY PREDICTED BY RF-SCORE:    0.00 PKD
ROOT
HETATM    1  C   UNL     1     -10.760  14.517  64.733  1.00  0.00    -0.414 C  
HETATM    2  C   UNL     1     -12.020  13.789  65.175  1.00  0.00    -0.393 C  
HETATM    3  C   UNL     1     -12.232  12.438  64.489  1.00  0.00    -0.509 C  
HETATM    4  C   UNL     1     -12.478  13.726  66.636  1.00  0.00    -0.260 C  
ENDROOT
BRANCH   4   5
HETATM    5  N   UNL     1     -11.639  13.680  67.868  1.00  0.00    -0.320 N  
BRANCH   5   6
HETATM    6  C   UNL     1     -10.597  12.541  67.653  1.00  0.00    -0.217 C  
BRANCH   6   7
HETATM    7  C   UNL     1     -10.857  11.185  68.454  1.00  0.00    -0.205 C  
BRANCH   7   8
HETATM    8  C   UNL     1     -10.264   9.918  67.661  1.00  0.00    -0.208 C  
BRANCH   8   9
HETATM    9  N   UNL     1     -10.667   8.631  68.256  1.00  0.00    -0.436 N  
HETATM   10  C   UNL     1      -9.742   7.659  68.542  1.00  0.00    -0.158 C  
HETATM   11  H   UNL     1     -11.652   8.460  68.458  1.00  0.00     0.000 HD 
HETATM   12  O   UNL     1      -8.535   7.760  68.403  1.00  0.00    -0.124 OA 
BRANCH  10  13
HETATM   13  O   UNL     1     -10.371   6.556  69.030  1.00  0.00    -0.169 OA 
BRANCH  13  14
HETATM   14  C   UNL     1     -10.444   6.486  70.466  1.00  0.00    -0.207 C  
HETATM   15  C   UNL     1     -11.840   6.670  71.017  1.00  0.00    -0.427 C  
HETATM   16  O   UNL     1     -10.907   4.784  72.088  1.00  0.00    -0.138 OA 
HETATM   17  C   UNL     1     -11.804   5.879  72.302  1.00  0.00    -0.208 C  
HETATM   18  C   UNL     1     -10.095   5.080  70.943  1.00  0.00    -0.232 C  
ENDBRANCH  13  14
ENDBRANCH  10  13
ENDBRANCH   8   9
BRANCH   8  19
HETATM   19  C   UNL     1     -10.436   9.893  66.124  1.00  0.00    -0.144 C  
BRANCH  19  20
HETATM   20  C   UNL     1      -9.192   9.941  65.278  1.00  0.00    -0.280 A  
HETATM   21  C   UNL     1      -6.787  10.187  65.073  1.00  0.00    -0.132 A  
HETATM   22  C   UNL     1      -8.173  10.202  63.096  1.00  0.00    -0.160 A  
HETATM   23  C   UNL     1      -9.307  10.023  63.886  1.00  0.00    -0.315 A  
HETATM   24  C   UNL     1      -7.922  10.017  65.867  1.00  0.00    -0.124 A  
HETATM   25  C   UNL     1      -6.915  10.287  63.689  1.00  0.00    -0.070 A  
ENDBRANCH  19  20
ENDBRANCH   8  19
ENDBRANCH   7   8
BRANCH   7  26
HETATM   26  O   UNL     1     -12.247  11.068  68.934  1.00  0.00    -0.519 OA 
HETATM   27  O   UNL     1     -12.714   9.960  71.984  1.00  0.00    -0.392 OA 
HETATM   28  O   UNL     1     -12.439  12.041  71.024  1.00  0.00    -0.368 OA 
HETATM   29  O   UNL     1     -10.928  10.131  70.760  1.00  0.00    -0.320 OA 
HETATM   30  P   UNL     1     -12.493  10.484  70.544  1.00  0.00    -0.294 P  
ENDBRANCH   7  26
ENDBRANCH   6   7
ENDBRANCH   5   6
BRANCH   5  31
HETATM   31  S   UNL     1     -10.910  14.998  68.676  1.00  0.00    -0.261 S  
HETATM   32  O   UNL     1     -11.112  16.204  67.901  1.00  0.00    -0.340 OA 
HETATM   33  O   UNL     1      -9.554  14.614  69.015  1.00  0.00    -0.207 OA 
BRANCH  31  34
HETATM   34  C   UNL     1     -11.739  15.277  70.198  1.00  0.00    -0.312 A  
HETATM   35  N   UNL     1     -13.899  16.122  73.677  1.00  0.00    -0.755 NA 
HETATM   36  C   UNL     1     -11.086  15.884  71.269  1.00  0.00    -0.197 A  
HETATM   37  H1  UNL     1     -14.884  15.866  73.748  1.00  0.00     0.000 HD 
HETATM   38  H2  UNL     1     -13.816  17.124  73.848  1.00  0.00     0.000 HD 
HETATM   39  C   UNL     1     -13.121  15.082  70.229  1.00  0.00    -0.124 A  
HETATM   40  C   UNL     1     -13.830  15.352  71.390  1.00  0.00    -0.577 A  
HETATM   41  C   UNL     1     -11.812  16.160  72.430  1.00  0.00    -0.637 A  
HETATM   42  C   UNL     1     -13.165  15.810  72.528  1.00  0.00    -0.487 A  
ENDBRANCH  31  34
ENDBRANCH   5  31
ENDBRANCH   4   5
TORSDOF 12
ENDMDL
MODEL       27
REMARK 921   NORMALIZED FREE ENERGY PREDICTED BY IDOCK:   -6.61 KCAL/MOL
REMARK 922        TOTAL FREE ENERGY PREDICTED BY IDOCK:  -14.05 KCAL/MOL
REMARK 923 INTER-LIGAND FREE ENERGY PREDICTED BY IDOCK:  -11.83 KCAL/MOL
REMARK 924 INTRA-LIGAND FREE ENERGY PREDICTED BY IDOCK:   -2.23 KCAL/MOL
REMARK 927      BINDING AFFINITY PREDICTED BY RF-SCORE:    0.00 PKD
ROOT
HETATM    1  C   UNL     1      -7.817  10.433  64.678  1.00  0.00    -0.077 C  
HETATM    2  C   UNL     1      -8.932   9.483  65.083  1.00  0.00    -0.253 C  
HETATM    3  C   UNL     1      -8.571   8.002  64.943  1.00  0.00     0.000 C  
HETATM    4  C   UNL     1      -9.812   9.706  66.318  1.00  0.00    -0.256 C  
ENDROOT
BRANCH   4   5
HETATM    5  N   UNL     1      -9.435  10.324  67.623  1.00  0.00    -0.151 N  
BRANCH   5   6
HETATM    6  C   UNL     1     -10.677  11.132  68.105  1.00  0.00    -0.204 C  
BRANCH   6   7
HETATM    7  C   UNL     1     -11.030  12.449  67.275  1.00  0.00    -0.260 C  
BRANCH   7   8
HETATM    8  C   UNL     1     -10.956  13.760  68.204  1.00  0.00    -0.246 C  
BRANCH   8   9
HETATM    9  N   UNL     1     -10.032  14.782  67.679  1.00  0.00    -0.226 N  
HETATM   10  C   UNL     1      -9.365  15.636  68.520  1.00  0.00    -0.197 C  
HETATM   11  H   UNL     1      -9.887  14.855  66.672  1.00  0.00     0.000 HD 
HETATM   12  O   UNL     1      -9.405  15.615  69.738  1.00  0.00    -0.270 OA 
BRANCH  10  13
HETATM   13  O   UNL     1      -8.622  16.511  67.790  1.00  0.00    -0.175 OA 
BRANCH  13  14
HETATM   14  C   UNL     1      -9.383  17.433  66.989  1.00  0.00    -0.260 C  
HETATM   15  C   UNL     1     -10.360  18.271  67.783  1.00  0.00    -0.419 C  
HETATM   16  O   UNL     1      -9.185  19.734  66.349  1.00  0.00    -0.356 OA 
HETATM   17  C   UNL     1     -10.461  19.536  66.967  1.00  0.00    -0.472 C  
HETATM   18  C   UNL     1      -8.465  18.493  66.390  1.00  0.00    -0.258 C  
ENDBRANCH  13  14
ENDBRANCH  10  13
ENDBRANCH   8   9
BRANCH   8  19
HETATM   19  C   UNL     1     -12.294  14.400  68.644  1.00  0.00    -0.051 C  
BRANCH  19  20
HETATM   20  C   UNL     1     -12.632  14.378  70.110  1.00  0.00    -0.340 A  
HETATM   21  C   UNL     1     -12.918  15.527  72.228  1.00  0.00    -0.504 A  
HETATM   22  C   UNL     1     -12.924  13.113  72.156  1.00  0.00    -0.382 A  
HETATM   23  C   UNL     1     -12.744  13.152  70.774  1.00  0.00    -0.260 A  
HETATM   24  C   UNL     1     -12.728  15.568  70.846  1.00  0.00    -0.525 A  
HETATM   25  C   UNL     1     -13.008  14.300  72.882  1.00  0.00    -0.548 A  
ENDBRANCH  19  20
ENDBRANCH   8  19
ENDBRANCH   7   8
BRANCH   7  26
HETATM   26  O   UNL     1     -12.245  12.293  66.454  1.00  0.00    -0.613 OA 
HETATM   27  O   UNL     1     -12.312  13.788  63.537  1.00  0.00    -0.706 OA 
HETATM   28  O   UNL     1     -11.662  11.706  64.294  1.00  0.00    -0.281 OA 
HETATM   29  O   UNL     1     -10.882  13.857  65.170  1.00  0.00    -0.320 OA 
HETATM   30  P   UNL     1     -12.280  13.081  64.915  1.00  0.00    -0.463 P  
ENDBRANCH   7  26
ENDBRANCH   6   7
ENDBRANCH   5   6
BRANCH   5  31
HETATM   31  S   UNL     1      -8.679   9.561  68.952  1.00  0.00    -0.138 S  
HETATM   32  O   UNL     1      -8.106  10.570  69.819  1.00  0.00    -0.116 OA 
HETATM   33  O   UNL     1      -7.810   8.524  68.432  1.00  0.00    -0.103 OA 
BRANCH  31  34
HETATM   34  C   UNL     1      -9.893   8.747  69.922  1.00  0.00    -0.184 A  
HETATM   35  N   UNL     1     -12.950   6.778  71.988  1.00  0.00    -0.546 NA 
HETATM   36  C   UNL     1     -10.549   9.412  70.958  1.00  0.00    -0.400 A  
HETATM   37  H1  UNL     1     -13.197   5.817  71.752  1.00  0.00     0.000 HD 
HETATM   38  H2  UNL     1     -13.789   7.353  71.905  1.00  0.00     0.000 HD 
HETATM   39  C   UNL     1     -10.343   7.499  69.487  1.00  0.00    -0.216 A  
HETATM   40  C   UNL     1     -11.348   6.845  70.183  1.00  0.00    -0.364 A  
HETATM   41  C   UNL     1     -11.566   8.748  71.647  1.00  0.00    -0.390 A  
HETATM   42  C   UNL     1     -11.905   7.428  71.323  1.00  0.00    -0.301 A  
ENDBRANCH  31  34
ENDBRANCH   5  31
ENDBRANCH   4   5
TORSDOF 12
ENDMDL
MODEL       28
REMARK 921   NORMALIZED FREE ENERGY PREDICTED BY IDOCK:   -6.59 KCAL/MOL
REMARK 922        TOTAL FREE ENERGY PREDICTED BY IDOCK:  -14.01 KCAL/MOL
REMARK 923 INTER-LIGAND FREE ENERGY PREDICTED BY IDOCK:  -11.34 KCAL/MOL
REMARK 924 INTRA-LIGAND FREE ENERGY PREDICTED BY IDOCK:   -2.67 KCAL/MOL
REMARK 927      BINDING AFFINITY PREDICTED BY RF-SCORE:    0.00 PKD
ROOT
HETATM    1  C   UNL     1      -7.151  13.440  67.585  1.00  0.00    -0.168 C  
HETATM    2  C   UNL     1      -7.549  14.632  68.440  1.00  0.00    -0.119 C  
HETATM    3  C   UNL     1      -6.643  15.853  68.268  1.00  0.00    -0.123 C  
HETATM    4  C   UNL     1      -9.005  15.068  68.637  1.00  0.00    -0.186 C  
ENDROOT
BRANCH   4   5
HETATM    5  N   UNL     1     -10.136  14.983  67.668  1.00  0.00    -0.230 N  
BRANCH   5   6
HETATM    6  C   UNL     1     -11.445  14.985  68.513  1.00  0.00    -0.317 C  
BRANCH   6   7
HETATM    7  C   UNL     1     -11.655  13.742  69.493  1.00  0.00    -0.297 C  
BRANCH   7   8
HETATM    8  C   UNL     1     -11.155  12.373  68.813  1.00  0.00    -0.262 C  
BRANCH   8   9
HETATM    9  N   UNL     1     -10.890  11.309  69.798  1.00  0.00    -0.465 N  
HETATM   10  C   UNL     1      -9.866  10.414  69.618  1.00  0.00    -0.144 C  
HETATM   11  H   UNL     1     -11.479  11.236  70.627  1.00  0.00     0.000 HD 
HETATM   12  O   UNL     1      -9.058  10.427  68.705  1.00  0.00    -0.148 OA 
BRANCH  10  13
HETATM   13  O   UNL     1      -9.866   9.507  70.632  1.00  0.00    -0.263 OA 
BRANCH  13  14
HETATM   14  C   UNL     1     -11.048   8.691  70.717  1.00  0.00    -0.255 C  
HETATM   15  C   UNL     1     -10.928   7.365  70.002  1.00  0.00    -0.264 C  
HETATM   16  O   UNL     1     -11.830   6.930  72.141  1.00  0.00    -0.288 OA 
HETATM   17  C   UNL     1     -11.862   6.473  70.785  1.00  0.00    -0.332 C  
HETATM   18  C   UNL     1     -11.286   8.258  72.159  1.00  0.00    -0.352 C  
ENDBRANCH  13  14
ENDBRANCH  10  13
ENDBRANCH   8   9
BRANCH   8  19
HETATM   19  C   UNL     1     -11.974  11.828  67.619  1.00  0.00    -0.106 C  
BRANCH  19  20
HETATM   20  C   UNL     1     -11.442  12.076  66.233  1.00  0.00    -0.408 A  
HETATM   21  C   UNL     1     -11.774  12.806  63.944  1.00  0.00    -0.530 A  
HETATM   22  C   UNL     1      -9.727  11.686  64.567  1.00  0.00    -0.203 A  
HETATM   23  C   UNL     1     -10.181  11.583  65.881  1.00  0.00    -0.286 A  
HETATM   24  C   UNL     1     -12.234  12.696  65.256  1.00  0.00    -0.532 A  
HETATM   25  C   UNL     1     -10.524  12.294  63.599  1.00  0.00    -0.483 A  
ENDBRANCH  19  20
ENDBRANCH   8  19
ENDBRANCH   7   8
BRANCH   7  26
HETATM   26  O   UNL     1     -13.000  13.722  70.101  1.00  0.00    -0.078 OA 
HETATM   27  O   UNL     1     -13.364  15.144  73.032  1.00  0.00    -0.462 OA 
HETATM   28  O   UNL     1     -13.557  15.841  70.840  1.00  0.00    -0.538 OA 
HETATM   29  O   UNL     1     -11.604  14.738  71.826  1.00  0.00    -0.335 OA 
HETATM   30  P   UNL     1     -13.191  14.473  71.647  1.00  0.00    -0.405 P  
ENDBRANCH   7  26
ENDBRANCH   6   7
ENDBRANCH   5   6
BRANCH   5  31
HETATM   31  S   UNL     1     -10.355  15.904  66.246  1.00  0.00    -0.327 S  
HETATM   32  O   UNL     1     -11.772  16.071  65.997  1.00  0.00     0.472 OA 
HETATM   33  O   UNL     1      -9.536  15.314  65.205  1.00  0.00    -0.216 OA 
BRANCH  31  34
HETATM   34  C   UNL     1      -9.733  17.525  66.503  1.00  0.00    -0.295 A  
HETATM   35  N   UNL     1      -8.028  21.266  67.270  1.00  0.00    -0.634 NA 
HETATM   36  C   UNL     1     -10.468  18.471  67.216  1.00  0.00    -0.455 A  
HETATM   37  H1  UNL     1      -7.096  21.490  66.921  1.00  0.00     0.000 HD 
HETATM   38  H2  UNL     1      -8.030  21.397  68.282  1.00  0.00     0.000 HD 
HETATM   39  C   UNL     1      -8.398  17.768  66.173  1.00  0.00    -0.171 A  
HETATM   40  C   UNL     1      -7.842  19.015  66.419  1.00  0.00    -0.291 A  
HETATM   41  C   UNL     1      -9.895  19.720  67.465  1.00  0.00    -0.516 A  
HETATM   42  C   UNL     1      -8.615  20.029  66.986  1.00  0.00    -0.334 A  
ENDBRANCH  31  34
ENDBRANCH   5  31
ENDBRANCH   4   5
TORSDOF 12
ENDMDL
MODEL       29
REMARK 921   NORMALIZED FREE ENERGY PREDICTED BY IDOCK:   -6.59 KCAL/MOL
REMARK 922        TOTAL FREE ENERGY PREDICTED BY IDOCK:  -14.01 KCAL/MOL
REMARK 923 INTER-LIGAND FREE ENERGY PREDICTED BY IDOCK:  -12.92 KCAL/MOL
REMARK 924 INTRA-LIGAND FREE ENERGY PREDICTED BY IDOCK:   -1.09 KCAL/MOL
REMARK 927      BINDING AFFINITY PREDICTED BY RF-SCORE:    0.00 PKD
ROOT
HETATM    1  C   UNL     1     -12.256  12.523  65.799  1.00  0.00    -0.361 C  
HETATM    2  C   UNL     1     -10.856  12.785  65.269  1.00  0.00    -0.319 C  
HETATM    3  C   UNL     1     -10.613  14.234  64.840  1.00  0.00    -0.452 C  
HETATM    4  C   UNL     1      -9.596  12.200  65.917  1.00  0.00    -0.214 C  
ENDROOT
BRANCH   4   5
HETATM    5  N   UNL     1      -9.341  11.921  67.361  1.00  0.00    -0.173 N  
BRANCH   5   6
HETATM    6  C   UNL     1     -10.184  12.954  68.167  1.00  0.00    -0.239 C  
BRANCH   6   7
HETATM    7  C   UNL     1      -9.506  14.378  68.416  1.00  0.00    -0.207 C  
BRANCH   7   8
HETATM    8  C   UNL     1     -10.613  15.500  68.739  1.00  0.00    -0.242 C  
BRANCH   8   9
HETATM    9  N   UNL     1     -10.709  16.528  67.686  1.00  0.00    -0.329 N  
HETATM   10  C   UNL     1     -10.508  17.855  67.968  1.00  0.00    -0.382 C  
HETATM   11  H   UNL     1     -10.929  16.246  66.731  1.00  0.00     0.000 HD 
HETATM   12  O   UNL     1     -10.184  18.314  69.051  1.00  0.00    -0.376 OA 
BRANCH  10  13
HETATM   13  O   UNL     1     -10.705  18.598  66.845  1.00  0.00    -0.395 OA 
BRANCH  13  14
HETATM   14  C   UNL     1      -9.537  19.286  66.361  1.00  0.00    -0.371 C  
HETATM   15  C   UNL     1      -9.071  20.408  67.262  1.00  0.00    -0.500 C  
HETATM   16  O   UNL     1      -7.171  19.121  66.704  1.00  0.00    -0.205 OA 
HETATM   17  C   UNL     1      -7.586  20.459  66.997  1.00  0.00    -0.316 C  
HETATM   18  C   UNL     1      -8.334  18.350  66.367  1.00  0.00    -0.251 C  
ENDBRANCH  13  14
ENDBRANCH  10  13
ENDBRANCH   8   9
BRANCH   8  19
HETATM   19  C   UNL     1     -12.018  15.016  69.167  1.00  0.00    -0.308 C  
BRANCH  19  20
HETATM   20  C   UNL     1     -12.435  15.248  70.594  1.00  0.00    -0.458 A  
HETATM   21  C   UNL     1     -14.168  15.458  72.279  1.00  0.00    -0.639 A  
HETATM   22  C   UNL     1     -11.889  16.055  72.812  1.00  0.00    -0.584 A  
HETATM   23  C   UNL     1     -11.494  15.707  71.522  1.00  0.00    -0.494 A  
HETATM   24  C   UNL     1     -13.776  15.119  70.984  1.00  0.00    -0.450 A  
HETATM   25  C   UNL     1     -13.225  15.933  73.189  1.00  0.00    -0.692 A  
ENDBRANCH  19  20
ENDBRANCH   8  19
ENDBRANCH   7   8
BRANCH   7  26
HETATM   26  O   UNL     1      -8.507  14.718  67.386  1.00  0.00    -0.175 OA 
HETATM   27  O   UNL     1      -5.477  15.462  68.396  1.00  0.00    -0.095 OA 
HETATM   28  O   UNL     1      -6.560  13.525  67.760  1.00  0.00    -0.142 OA 
HETATM   29  O   UNL     1      -7.319  15.091  69.485  1.00  0.00    -0.185 OA 
HETATM   30  P   UNL     1      -6.908  15.110  67.919  1.00  0.00    -0.184 P  
ENDBRANCH   7  26
ENDBRANCH   6   7
ENDBRANCH   5   6
BRANCH   5  31
HETATM   31  S   UNL     1      -9.367  10.403  68.144  1.00  0.00    -0.148 S  
HETATM   32  O   UNL     1      -8.103  10.191  68.819  1.00  0.00    -0.099 OA 
HETATM   33  O   UNL     1      -9.808   9.415  67.180  1.00  0.00    -0.165 OA 
BRANCH  31  34
HETATM   34  C   UNL     1     -10.577  10.426  69.415  1.00  0.00    -0.239 A  
HETATM   35  N   UNL     1     -13.462  10.185  72.433  1.00  0.00    -0.594 NA 
HETATM   36  C   UNL     1     -11.825  11.012  69.208  1.00  0.00    -0.411 A  
HETATM   37  H1  UNL     1     -13.247   9.722  73.317  1.00  0.00     0.000 HD 
HETATM   38  H2  UNL     1     -14.284   9.735  72.029  1.00  0.00     0.000 HD 
HETATM   39  C   UNL     1     -10.340   9.649  70.551  1.00  0.00    -0.359 A  
HETATM   40  C   UNL     1     -11.295   9.583  71.554  1.00  0.00    -0.456 A  
HETATM   41  C   UNL     1     -12.783  10.932  70.221  1.00  0.00    -0.285 A  
HETATM   42  C   UNL     1     -12.489  10.297  71.435  1.00  0.00    -0.424 A  
ENDBRANCH  31  34
ENDBRANCH   5  31
ENDBRANCH   4   5
TORSDOF 12
ENDMDL
MODEL       30
REMARK 921   NORMALIZED FREE ENERGY PREDICTED BY IDOCK:   -6.58 KCAL/MOL
REMARK 922        TOTAL FREE ENERGY PREDICTED BY IDOCK:  -13.99 KCAL/MOL
REMARK 923 INTER-LIGAND FREE ENERGY PREDICTED BY IDOCK:  -11.71 KCAL/MOL
REMARK 924 INTRA-LIGAND FREE ENERGY PREDICTED BY IDOCK:   -2.29 KCAL/MOL
REMARK 927      BINDING AFFINITY PREDICTED BY RF-SCORE:    0.00 PKD
ROOT
HETATM    1  C   UNL     1      -8.216   6.674  67.537  1.00  0.00    -0.122 C  
HETATM    2  C   UNL     1      -9.644   6.702  68.057  1.00  0.00    -0.123 C  
HETATM    3  C   UNL     1      -9.775   6.347  69.540  1.00  0.00    -0.167 C  
HETATM    4  C   UNL     1     -10.649   7.795  67.677  1.00  0.00    -0.213 C  
ENDROOT
BRANCH   4   5
HETATM    5  N   UNL     1     -10.386   9.237  67.397  1.00  0.00    -0.246 N  
BRANCH   5   6
HETATM    6  C   UNL     1      -9.899   9.867  68.736  1.00  0.00    -0.171 C  
BRANCH   6   7
HETATM    7  C   UNL     1     -11.004  10.625  69.605  1.00  0.00    -0.278 C  
BRANCH   7   8
HETATM    8  C   UNL     1     -10.897  12.219  69.419  1.00  0.00     0.047 C  
BRANCH   8   9
HETATM    9  N   UNL     1     -10.095  12.606  68.244  1.00  0.00    -0.230 N  
HETATM   10  C   UNL     1      -9.232  13.671  68.293  1.00  0.00    -0.198 C  
HETATM   11  H   UNL     1     -10.183  12.071  67.380  1.00  0.00     0.000 HD 
HETATM   12  O   UNL     1      -8.992  14.352  69.276  1.00  0.00     0.019 OA 
BRANCH  10  13
HETATM   13  O   UNL     1      -8.656  13.851  67.074  1.00  0.00    -0.216 OA 
BRANCH  13  14
HETATM   14  C   UNL     1      -9.115  15.006  66.350  1.00  0.00    -0.277 C  
HETATM   15  C   UNL     1     -10.406  15.587  66.880  1.00  0.00    -0.290 C  
HETATM   16  O   UNL     1      -8.903  17.382  66.578  1.00  0.00    -0.247 OA 
HETATM   17  C   UNL     1     -10.294  17.048  66.519  1.00  0.00    -0.298 C  
HETATM   18  C   UNL     1      -8.143  16.166  66.536  1.00  0.00    -0.296 C  
ENDBRANCH  13  14
ENDBRANCH  10  13
ENDBRANCH   8   9
BRANCH   8  19
HETATM   19  C   UNL     1     -12.210  13.034  69.482  1.00  0.00    -0.198 C  
BRANCH  19  20
HETATM   20  C   UNL     1     -12.420  13.935  70.669  1.00  0.00    -0.436 A  
HETATM   21  C   UNL     1     -13.484  14.410  72.797  1.00  0.00    -0.582 A  
HETATM   22  C   UNL     1     -12.224  16.134  71.668  1.00  0.00    -0.424 A  
HETATM   23  C   UNL     1     -11.927  15.244  70.637  1.00  0.00    -0.386 A  
HETATM   24  C   UNL     1     -13.195  13.521  71.762  1.00  0.00    -0.490 A  
HETATM   25  C   UNL     1     -13.004  15.718  72.745  1.00  0.00    -0.585 A  
ENDBRANCH  19  20
ENDBRANCH   8  19
ENDBRANCH   7   8
BRANCH   7  26
HETATM   26  O   UNL     1     -11.072  10.128  70.992  1.00  0.00    -0.323 OA 
HETATM   27  O   UNL     1     -14.006   9.210  72.133  1.00  0.00    -0.424 OA 
HETATM   28  O   UNL     1     -12.263   8.146  71.056  1.00  0.00    -0.277 OA 
HETATM   29  O   UNL     1     -13.406  10.169  70.280  1.00  0.00    -0.065 OA 
HETATM   30  P   UNL     1     -12.620   9.643  71.593  1.00  0.00    -0.437 P  
ENDBRANCH   7  26
ENDBRANCH   6   7
ENDBRANCH   5   6
BRANCH   5  31
HETATM   31  S   UNL     1      -9.511   9.896  66.086  1.00  0.00    -0.218 S  
HETATM   32  O   UNL     1      -9.264   8.858  65.107  1.00  0.00    -0.162 OA 
HETATM   33  O   UNL     1      -8.377  10.618  66.627  1.00  0.00    -0.128 OA 
BRANCH  31  34
HETATM   34  C   UNL     1     -10.506  11.085  65.263  1.00  0.00    -0.251 A  
HETATM   35  N   UNL     1     -12.631  14.082  63.265  1.00  0.00    -1.005 NA 
HETATM   36  C   UNL     1     -11.529  11.753  65.935  1.00  0.00    -0.273 A  
HETATM   37  H1  UNL     1     -12.417  14.306  62.293  1.00  0.00     0.000 HD 
HETATM   38  H2  UNL     1     -12.539  14.936  63.816  1.00  0.00     0.000 HD 
HETATM   39  C   UNL     1     -10.101  11.505  63.994  1.00  0.00    -0.366 A  
HETATM   40  C   UNL     1     -10.817  12.490  63.332  1.00  0.00    -0.351 A  
HETATM   41  C   UNL     1     -12.238  12.750  65.261  1.00  0.00    -0.535 A  
HETATM   42  C   UNL     1     -11.945  13.058  63.926  1.00  0.00    -0.485 A  
ENDBRANCH  31  34
ENDBRANCH   5  31
ENDBRANCH   4   5
TORSDOF 12
ENDMDL
MODEL       31
REMARK 921   NORMALIZED FREE ENERGY PREDICTED BY IDOCK:   -6.57 KCAL/MOL
REMARK 922        TOTAL FREE ENERGY PREDICTED BY IDOCK:  -13.98 KCAL/MOL
REMARK 923 INTER-LIGAND FREE ENERGY PREDICTED BY IDOCK:  -11.81 KCAL/MOL
REMARK 924 INTRA-LIGAND FREE ENERGY PREDICTED BY IDOCK:   -2.17 KCAL/MOL
REMARK 927      BINDING AFFINITY PREDICTED BY RF-SCORE:    0.00 PKD
ROOT
HETATM    1  C   UNL     1      -7.460  15.355  67.087  1.00  0.00    -0.224 C  
HETATM    2  C   UNL     1      -7.761  14.231  68.065  1.00  0.00    -0.141 C  
HETATM    3  C   UNL     1      -7.088  14.396  69.429  1.00  0.00    -0.113 C  
HETATM    4  C   UNL     1      -9.155  13.615  68.226  1.00  0.00    -0.193 C  
ENDROOT
BRANCH   4   5
HETATM    5  N   UNL     1     -10.483  14.284  68.096  1.00  0.00    -0.241 N  
BRANCH   5   6
HETATM    6  C   UNL     1     -11.551  13.150  68.092  1.00  0.00    -0.339 C  
BRANCH   6   7
HETATM    7  C   UNL     1     -11.437  12.075  66.917  1.00  0.00    -0.337 C  
BRANCH   7   8
HETATM    8  C   UNL     1     -10.893  10.665  67.468  1.00  0.00    -0.296 C  
BRANCH   8   9
HETATM    9  N   UNL     1      -9.914  10.037  66.563  1.00  0.00    -0.214 N  
HETATM   10  C   UNL     1      -9.932   8.686  66.325  1.00  0.00    -0.217 C  
HETATM   11  H   UNL     1      -9.211  10.617  66.105  1.00  0.00     0.000 HD 
HETATM   12  O   UNL     1     -10.751   7.894  66.761  1.00  0.00    -0.304 OA 
BRANCH  10  13
HETATM   13  O   UNL     1      -8.901   8.351  65.503  1.00  0.00    -0.172 OA 
BRANCH  13  14
HETATM   14  C   UNL     1      -8.118   9.461  65.028  1.00  0.00    -0.129 C  
HETATM   15  C   UNL     1      -6.672   9.422  65.466  1.00  0.00    -0.075 C  
HETATM   16  O   UNL     1      -6.690   9.888  63.152  1.00  0.00    -0.115 OA 
HETATM   17  C   UNL     1      -5.961  10.154  64.354  1.00  0.00    -0.138 C  
HETATM   18  C   UNL     1      -7.994   9.407  63.509  1.00  0.00    -0.141 C  
ENDBRANCH  13  14
ENDBRANCH  10  13
ENDBRANCH   8   9
BRANCH   8  19
HETATM   19  C   UNL     1     -10.402  10.613  68.934  1.00  0.00    -0.225 C  
BRANCH  19  20
HETATM   20  C   UNL     1     -11.294   9.952  69.949  1.00  0.00    -0.273 A  
HETATM   21  C   UNL     1     -12.947  10.096  71.719  1.00  0.00    -0.567 A  
HETATM   22  C   UNL     1     -11.851   7.993  71.261  1.00  0.00    -0.321 A  
HETATM   23  C   UNL     1     -11.127   8.592  70.232  1.00  0.00    -0.222 A  
HETATM   24  C   UNL     1     -12.216  10.699  70.695  1.00  0.00    -0.459 A  
HETATM   25  C   UNL     1     -12.758   8.745  72.006  1.00  0.00    -0.444 A  
ENDBRANCH  19  20
ENDBRANCH   8  19
ENDBRANCH   7   8
BRANCH   7  26
HETATM   26  O   UNL     1     -10.767  12.616  65.719  1.00  0.00    -0.260 OA 
HETATM   27  O   UNL     1     -12.658  13.514  63.195  1.00  0.00    -0.762 OA 
HETATM   28  O   UNL     1     -11.803  14.576  65.058  1.00  0.00    -0.372 OA 
HETATM   29  O   UNL     1     -13.115  12.506  65.064  1.00  0.00    -0.765 OA 
HETATM   30  P   UNL     1     -11.765  13.090  64.388  1.00  0.00    -0.432 P  
ENDBRANCH   7  26
ENDBRANCH   6   7
ENDBRANCH   5   6
BRANCH   5  31
HETATM   31  S   UNL     1     -11.058  15.629  68.979  1.00  0.00    -0.303 S  
HETATM   32  O   UNL     1     -10.449  15.634  70.293  1.00  0.00    -0.315 OA 
HETATM   33  O   UNL     1     -12.504  15.633  68.889  1.00  0.00    -0.034 OA 
BRANCH  31  34
HETATM   34  C   UNL     1     -10.512  17.107  68.206  1.00  0.00    -0.373 A  
HETATM   35  N   UNL     1      -9.400  20.778  66.539  1.00  0.00    -0.578 NA 
HETATM   36  C   UNL     1     -10.708  17.319  66.842  1.00  0.00    -0.126 A  
HETATM   37  H1  UNL     1      -8.971  21.499  67.119  1.00  0.00     0.000 HD 
HETATM   38  H2  UNL     1     -10.232  21.174  66.100  1.00  0.00     0.000 HD 
HETATM   39  C   UNL     1     -10.083  18.150  69.030  1.00  0.00    -0.290 A  
HETATM   40  C   UNL     1      -9.704  19.361  68.470  1.00  0.00    -0.497 A  
HETATM   41  C   UNL     1     -10.331  18.545  66.291  1.00  0.00    -0.459 A  
HETATM   42  C   UNL     1      -9.742  19.537  67.086  1.00  0.00    -0.342 A  
ENDBRANCH  31  34
ENDBRANCH   5  31
ENDBRANCH   4   5
TORSDOF 12
ENDMDL
MODEL       32
REMARK 921   NORMALIZED FREE ENERGY PREDICTED BY IDOCK:   -6.55 KCAL/MOL
REMARK 922        TOTAL FREE ENERGY PREDICTED BY IDOCK:  -13.94 KCAL/MOL
REMARK 923 INTER-LIGAND FREE ENERGY PREDICTED BY IDOCK:  -12.60 KCAL/MOL
REMARK 924 INTRA-LIGAND FREE ENERGY PREDICTED BY IDOCK:   -1.34 KCAL/MOL
REMARK 927      BINDING AFFINITY PREDICTED BY RF-SCORE:    0.00 PKD
ROOT
HETATM    1  C   UNL     1     -12.562  14.681  64.254  1.00  0.00    -0.106 C  
HETATM    2  C   UNL     1     -12.443  13.439  65.121  1.00  0.00    -0.509 C  
HETATM    3  C   UNL     1     -11.841  12.231  64.400  1.00  0.00    -0.464 C  
HETATM    4  C   UNL     1     -11.973  13.481  66.579  1.00  0.00    -0.413 C  
ENDROOT
BRANCH   4   5
HETATM    5  N   UNL     1     -10.976  14.399  67.205  1.00  0.00    -0.296 N  
BRANCH   5   6
HETATM    6  C   UNL     1     -10.709  13.852  68.639  1.00  0.00    -0.260 C  
BRANCH   6   7
HETATM    7  C   UNL     1     -10.894  12.279  68.841  1.00  0.00    -0.196 C  
BRANCH   7   8
HETATM    8  C   UNL     1     -11.738  11.959  70.172  1.00  0.00    -0.253 C  
BRANCH   8   9
HETATM    9  N   UNL     1     -12.766  12.976  70.456  1.00  0.00    -0.110 N  
HETATM   10  C   UNL     1     -13.339  13.079  71.698  1.00  0.00    -0.292 C  
HETATM   11  H   UNL     1     -13.056  13.614  69.715  1.00  0.00     0.000 HD 
HETATM   12  O   UNL     1     -13.042  12.420  72.679  1.00  0.00    -0.177 OA 
BRANCH  10  13
HETATM   13  O   UNL     1     -14.289  14.053  71.685  1.00  0.00    -0.351 OA 
BRANCH  13  14
HETATM   14  C   UNL     1     -13.818  15.365  72.041  1.00  0.00    -0.522 C  
HETATM   15  C   UNL     1     -13.127  15.423  73.385  1.00  0.00    -0.633 C  
HETATM   16  O   UNL     1     -11.756  16.571  71.843  1.00  0.00    -0.458 OA 
HETATM   17  C   UNL     1     -12.156  16.566  73.217  1.00  0.00    -0.387 C  
HETATM   18  C   UNL     1     -12.707  15.802  71.092  1.00  0.00    -0.431 C  
ENDBRANCH  13  14
ENDBRANCH  10  13
ENDBRANCH   8   9
BRANCH   8  19
HETATM   19  C   UNL     1     -12.316  10.532  70.325  1.00  0.00    -0.377 C  
BRANCH  19  20
HETATM   20  C   UNL     1     -11.593   9.577  71.236  1.00  0.00    -0.445 A  
HETATM   21  C   UNL     1      -9.577   8.391  71.880  1.00  0.00    -0.324 A  
HETATM   22  C   UNL     1     -11.691   7.818  72.899  1.00  0.00    -0.231 A  
HETATM   23  C   UNL     1     -12.325   8.801  72.143  1.00  0.00    -0.458 A  
HETATM   24  C   UNL     1     -10.212   9.370  71.115  1.00  0.00    -0.361 A  
HETATM   25  C   UNL     1     -10.319   7.610  72.766  1.00  0.00    -0.351 A  
ENDBRANCH  19  20
ENDBRANCH   8  19
ENDBRANCH   7   8
BRANCH   7  26
HETATM   26  O   UNL     1      -9.632  11.534  68.667  1.00  0.00    -0.193 OA 
HETATM   27  O   UNL     1      -9.575   9.150  66.417  1.00  0.00    -0.202 OA 
HETATM   28  O   UNL     1      -9.100  11.408  66.419  1.00  0.00    -0.182 OA 
HETATM   29  O   UNL     1     -11.190  10.383  67.183  1.00  0.00    -0.249 OA 
HETATM   30  P   UNL     1      -9.602  10.276  67.480  1.00  0.00    -0.162 P  
ENDBRANCH   7  26
ENDBRANCH   6   7
ENDBRANCH   5   6
BRANCH   5  31
HETATM   31  S   UNL     1      -9.524  14.977  66.516  1.00  0.00    -0.299 S  
HETATM   32  O   UNL     1      -9.553  14.759  65.085  1.00  0.00    -0.116 OA 
HETATM   33  O   UNL     1      -8.421  14.422  67.276  1.00  0.00    -0.190 OA 
BRANCH  31  34
HETATM   34  C   UNL     1      -9.437  16.718  66.720  1.00  0.00    -0.246 A  
HETATM   35  N   UNL     1      -9.455  20.890  67.016  1.00  0.00    -0.690 NA 
HETATM   36  C   UNL     1      -8.299  17.429  66.342  1.00  0.00    -0.302 A  
HETATM   37  H1  UNL     1     -10.274  21.378  67.380  1.00  0.00     0.000 HD 
HETATM   38  H2  UNL     1      -9.251  21.259  66.087  1.00  0.00     0.000 HD 
HETATM   39  C   UNL     1     -10.613  17.392  67.057  1.00  0.00    -0.238 A  
HETATM   40  C   UNL     1     -10.609  18.774  67.166  1.00  0.00    -0.491 A  
HETATM   41  C   UNL     1      -8.309  18.822  66.447  1.00  0.00    -0.294 A  
HETATM   42  C   UNL     1      -9.433  19.493  66.947  1.00  0.00    -0.344 A  
ENDBRANCH  31  34
ENDBRANCH   5  31
ENDBRANCH   4   5
TORSDOF 12
ENDMDL
MODEL       33
REMARK 921   NORMALIZED FREE ENERGY PREDICTED BY IDOCK:   -6.52 KCAL/MOL
REMARK 922        TOTAL FREE ENERGY PREDICTED BY IDOCK:  -13.89 KCAL/MOL
REMARK 923 INTER-LIGAND FREE ENERGY PREDICTED BY IDOCK:  -11.74 KCAL/MOL
REMARK 924 INTRA-LIGAND FREE ENERGY PREDICTED BY IDOCK:   -2.15 KCAL/MOL
REMARK 927      BINDING AFFINITY PREDICTED BY RF-SCORE:    0.00 PKD
ROOT
HETATM    1  C   UNL     1      -8.791  13.837  67.623  1.00  0.00    -0.189 C  
HETATM    2  C   UNL     1      -7.544  12.986  67.446  1.00  0.00    -0.141 C  
HETATM    3  C   UNL     1      -6.454  13.254  68.487  1.00  0.00    -0.085 C  
HETATM    4  C   UNL     1      -7.593  11.496  67.094  1.00  0.00    -0.149 C  
ENDROOT
BRANCH   4   5
HETATM    5  N   UNL     1      -8.611  10.482  67.497  1.00  0.00    -0.122 N  
BRANCH   5   6
HETATM    6  C   UNL     1      -9.059  10.854  68.942  1.00  0.00    -0.144 C  
BRANCH   6   7
HETATM    7  C   UNL     1      -9.003   9.681  70.023  1.00  0.00    -0.237 C  
BRANCH   7   8
HETATM    8  C   UNL     1     -10.381   9.582  70.847  1.00  0.00    -0.302 C  
BRANCH   8   9
HETATM    9  N   UNL     1     -11.296  10.704  70.567  1.00  0.00    -0.401 N  
HETATM   10  C   UNL     1     -12.445  10.881  71.295  1.00  0.00    -0.388 C  
HETATM   11  H   UNL     1     -11.069  11.360  69.820  1.00  0.00     0.000 HD 
HETATM   12  O   UNL     1     -12.800  10.206  72.246  1.00  0.00    -0.341 OA 
BRANCH  10  13
HETATM   13  O   UNL     1     -13.136  11.948  70.809  1.00  0.00    -0.016 OA 
BRANCH  13  14
HETATM   14  C   UNL     1     -12.800  13.212  71.408  1.00  0.00    -0.311 C  
HETATM   15  C   UNL     1     -12.489  14.301  70.407  1.00  0.00    -0.426 C  
HETATM   16  O   UNL     1     -13.982  15.213  71.993  1.00  0.00    -0.426 OA 
HETATM   17  C   UNL     1     -12.885  15.559  71.141  1.00  0.00    -0.489 C  
HETATM   18  C   UNL     1     -14.008  13.786  72.140  1.00  0.00    -0.544 C  
ENDBRANCH  13  14
ENDBRANCH  10  13
ENDBRANCH   8   9
BRANCH   8  19
HETATM   19  C   UNL     1     -11.137   8.233  70.815  1.00  0.00    -0.280 C  
BRANCH  19  20
HETATM   20  C   UNL     1     -10.983   7.315  71.998  1.00  0.00    -0.271 A  
HETATM   21  C   UNL     1     -10.053   6.828  74.185  1.00  0.00    -0.381 A  
HETATM   22  C   UNL     1     -11.181   5.092  72.941  1.00  0.00    -0.362 A  
HETATM   23  C   UNL     1     -11.433   5.993  71.908  1.00  0.00    -0.328 A  
HETATM   24  C   UNL     1     -10.296   7.729  73.148  1.00  0.00    -0.403 A  
HETATM   25  C   UNL     1     -10.488   5.508  74.077  1.00  0.00    -0.308 A  
ENDBRANCH  19  20
ENDBRANCH   8  19
ENDBRANCH   7   8
BRANCH   7  26
HETATM   26  O   UNL     1      -7.761   9.704  70.819  1.00  0.00    -0.283 OA 
HETATM   27  O   UNL     1      -5.461   7.477  70.111  1.00  0.00    -0.023 OA 
HETATM   28  O   UNL     1      -5.927   9.627  69.412  1.00  0.00    -0.034 OA 
HETATM   29  O   UNL     1      -7.493   7.743  69.392  1.00  0.00    -0.084 OA 
HETATM   30  P   UNL     1      -6.548   8.529  70.445  1.00  0.00    -0.040 P  
ENDBRANCH   7  26
ENDBRANCH   6   7
ENDBRANCH   5   6
BRANCH   5  31
HETATM   31  S   UNL     1      -9.952   9.942  66.587  1.00  0.00    -0.228 S  
HETATM   32  O   UNL     1     -11.024   9.572  67.488  1.00  0.00    -0.241 OA 
HETATM   33  O   UNL     1      -9.476   8.954  65.639  1.00  0.00    -0.229 OA 
BRANCH  31  34
HETATM   34  C   UNL     1     -10.583  11.275  65.635  1.00  0.00    -0.244 A  
HETATM   35  N   UNL     1     -12.357  14.335  63.404  1.00  0.00    -1.126 NA 
HETATM   36  C   UNL     1     -10.218  11.439  64.299  1.00  0.00    -0.367 A  
HETATM   37  H1  UNL     1     -13.031  14.966  63.838  1.00  0.00     0.000 HD 
HETATM   38  H2  UNL     1     -12.801  13.900  62.595  1.00  0.00     0.000 HD 
HETATM   39  C   UNL     1     -11.626  12.026  66.180  1.00  0.00    -0.371 A  
HETATM   40  C   UNL     1     -12.202  13.047  65.440  1.00  0.00    -0.520 A  
HETATM   41  C   UNL     1     -10.810  12.465  63.561  1.00  0.00    -0.487 A  
HETATM   42  C   UNL     1     -11.736  13.332  64.156  1.00  0.00    -0.420 A  
ENDBRANCH  31  34
ENDBRANCH   5  31
ENDBRANCH   4   5
TORSDOF 12
ENDMDL
MODEL       34
REMARK 921   NORMALIZED FREE ENERGY PREDICTED BY IDOCK:   -6.49 KCAL/MOL
REMARK 922        TOTAL FREE ENERGY PREDICTED BY IDOCK:  -13.85 KCAL/MOL
REMARK 923 INTER-LIGAND FREE ENERGY PREDICTED BY IDOCK:  -12.09 KCAL/MOL
REMARK 924 INTRA-LIGAND FREE ENERGY PREDICTED BY IDOCK:   -1.77 KCAL/MOL
REMARK 927      BINDING AFFINITY PREDICTED BY RF-SCORE:    0.00 PKD
ROOT
HETATM    1  C   UNL     1     -11.753  15.325  72.701  1.00  0.00    -0.518 C  
HETATM    2  C   UNL     1     -12.836  14.607  71.913  1.00  0.00    -0.399 C  
HETATM    3  C   UNL     1     -14.041  15.484  71.568  1.00  0.00    -0.502 C  
HETATM    4  C   UNL     1     -12.529  13.641  70.762  1.00  0.00    -0.359 C  
ENDROOT
BRANCH   4   5
HETATM    5  N   UNL     1     -11.408  13.699  69.779  1.00  0.00    -0.169 N  
BRANCH   5   6
HETATM    6  C   UNL     1     -11.579  12.468  68.840  1.00  0.00    -0.318 C  
BRANCH   6   7
HETATM    7  C   UNL     1     -11.242  11.042  69.474  1.00  0.00    -0.279 C  
BRANCH   7   8
HETATM    8  C   UNL     1     -10.101  10.285  68.631  1.00  0.00    -0.174 C  
BRANCH   8   9
HETATM    9  N   UNL     1     -10.619   9.125  67.883  1.00  0.00    -0.361 N  
HETATM   10  C   UNL     1     -10.349   7.842  68.286  1.00  0.00    -0.198 C  
HETATM   11  H   UNL     1     -11.187   9.280  67.050  1.00  0.00     0.000 HD 
HETATM   12  O   UNL     1      -9.735   7.522  69.290  1.00  0.00    -0.161 OA 
BRANCH  10  13
HETATM   13  O   UNL     1     -10.892   6.960  67.403  1.00  0.00    -0.287 OA 
BRANCH  13  14
HETATM   14  C   UNL     1      -9.997   5.931  66.945  1.00  0.00    -0.171 C  
HETATM   15  C   UNL     1     -10.640   4.931  66.012  1.00  0.00    -0.312 C  
HETATM   16  O   UNL     1      -8.595   5.589  65.031  1.00  0.00    -0.149 OA 
HETATM   17  C   UNL     1      -9.484   4.474  65.156  1.00  0.00    -0.162 C  
HETATM   18  C   UNL     1      -8.907   6.534  66.066  1.00  0.00    -0.143 C  
ENDBRANCH  13  14
ENDBRANCH  10  13
ENDBRANCH   8   9
BRANCH   8  19
HETATM   19  C   UNL     1      -9.179  11.149  67.740  1.00  0.00    -0.153 C  
BRANCH  19  20
HETATM   20  C   UNL     1      -9.215  10.910  66.255  1.00  0.00    -0.197 A  
HETATM   21  C   UNL     1     -10.401  10.946  64.139  1.00  0.00    -0.432 A  
HETATM   22  C   UNL     1      -8.250   9.859  64.297  1.00  0.00    -0.161 A  
HETATM   23  C   UNL     1      -8.172  10.205  65.644  1.00  0.00    -0.150 A  
HETATM   24  C   UNL     1     -10.328  11.286  65.490  1.00  0.00    -0.321 A  
HETATM   25  C   UNL     1      -9.365  10.226  63.546  1.00  0.00    -0.341 A  
ENDBRANCH  19  20
ENDBRANCH   8  19
ENDBRANCH   7   8
BRANCH   7  26
HETATM   26  O   UNL     1     -12.454  10.263  69.789  1.00  0.00    -0.093 OA 
HETATM   27  O   UNL     1     -12.483   8.566  72.595  1.00  0.00    -0.370 OA 
HETATM   28  O   UNL     1     -13.120  10.693  71.962  1.00  0.00    -0.481 OA 
HETATM   29  O   UNL     1     -10.916   9.688  71.594  1.00  0.00    -0.322 OA 
HETATM   30  P   UNL     1     -12.469   9.368  71.270  1.00  0.00    -0.311 P  
ENDBRANCH   7  26
ENDBRANCH   6   7
ENDBRANCH   5   6
BRANCH   5  31
HETATM   31  S   UNL     1     -10.886  15.056  68.881  1.00  0.00    -0.255 S  
HETATM   32  O   UNL     1      -9.440  15.123  68.915  1.00  0.00    -0.196 OA 
HETATM   33  O   UNL     1     -11.641  16.206  69.336  1.00  0.00    -0.321 OA 
BRANCH  31  34
HETATM   34  C   UNL     1     -11.303  14.828  67.191  1.00  0.00    -0.356 A  
HETATM   35  N   UNL     1     -12.339  13.999  63.225  1.00  0.00    -1.145 NA 
HETATM   36  C   UNL     1     -10.367  15.060  66.184  1.00  0.00    -0.310 A  
HETATM   37  H1  UNL     1     -13.270  13.652  62.997  1.00  0.00     0.000 HD 
HETATM   38  H2  UNL     1     -11.654  13.332  62.868  1.00  0.00     0.000 HD 
HETATM   39  C   UNL     1     -12.513  14.196  66.900  1.00  0.00    -0.142 A  
HETATM   40  C   UNL     1     -12.857  13.936  65.583  1.00  0.00    -0.467 A  
HETATM   41  C   UNL     1     -10.720  14.785  64.861  1.00  0.00    -0.438 A  
HETATM   42  C   UNL     1     -12.000  14.310  64.546  1.00  0.00    -0.462 A  
ENDBRANCH  31  34
ENDBRANCH   5  31
ENDBRANCH   4   5
TORSDOF 12
ENDMDL
MODEL       35
REMARK 921   NORMALIZED FREE ENERGY PREDICTED BY IDOCK:   -6.49 KCAL/MOL
REMARK 922        TOTAL FREE ENERGY PREDICTED BY IDOCK:  -13.84 KCAL/MOL
REMARK 923 INTER-LIGAND FREE ENERGY PREDICTED BY IDOCK:  -11.04 KCAL/MOL
REMARK 924 INTRA-LIGAND FREE ENERGY PREDICTED BY IDOCK:   -2.80 KCAL/MOL
REMARK 927      BINDING AFFINITY PREDICTED BY RF-SCORE:    0.00 PKD
ROOT
HETATM    1  C   UNL     1     -10.323  14.201  65.142  1.00  0.00    -0.429 C  
HETATM    2  C   UNL     1     -11.318  13.109  65.496  1.00  0.00    -0.325 C  
HETATM    3  C   UNL     1     -10.928  11.720  64.985  1.00  0.00    -0.357 C  
HETATM    4  C   UNL     1     -11.989  13.005  66.871  1.00  0.00    -0.352 C  
ENDROOT
BRANCH   4   5
HETATM    5  N   UNL     1     -11.426  13.364  68.205  1.00  0.00    -0.293 N  
BRANCH   5   6
HETATM    6  C   UNL     1     -10.301  12.329  68.505  1.00  0.00    -0.223 C  
BRANCH   6   7
HETATM    7  C   UNL     1     -10.763  10.962  69.191  1.00  0.00    -0.226 C  
BRANCH   7   8
HETATM    8  C   UNL     1     -10.047   9.696  68.503  1.00  0.00    -0.175 C  
BRANCH   8   9
HETATM    9  N   UNL     1      -9.673   8.654  69.476  1.00  0.00    -0.177 N  
HETATM   10  C   UNL     1      -8.360   8.425  69.801  1.00  0.00    -0.125 C  
HETATM   11  H   UNL     1     -10.403   8.093  69.915  1.00  0.00     0.000 HD 
HETATM   12  O   UNL     1      -7.402   9.061  69.395  1.00  0.00    -0.072 OA 
BRANCH  10  13
HETATM   13  O   UNL     1      -8.278   7.384  70.674  1.00  0.00    -0.109 OA 
BRANCH  13  14
HETATM   14  C   UNL     1      -9.257   6.348  70.477  1.00  0.00    -0.158 C  
HETATM   15  C   UNL     1      -8.704   5.099  69.830  1.00  0.00    -0.115 C  
HETATM   16  O   UNL     1      -9.991   4.415  71.687  1.00  0.00    -0.179 OA 
HETATM   17  C   UNL     1      -9.601   4.012  70.370  1.00  0.00    -0.195 C  
HETATM   18  C   UNL     1      -9.746   5.823  71.822  1.00  0.00    -0.156 C  
ENDBRANCH  13  14
ENDBRANCH  10  13
ENDBRANCH   8   9
BRANCH   8  19
HETATM   19  C   UNL     1     -10.734   9.073  67.265  1.00  0.00    -0.222 C  
BRANCH  19  20
HETATM   20  C   UNL     1     -10.202   7.761  66.754  1.00  0.00    -0.346 A  
HETATM   21  C   UNL     1     -10.341   5.345  66.596  1.00  0.00    -0.325 A  
HETATM   22  C   UNL     1      -8.370   6.493  65.801  1.00  0.00    -0.143 A  
HETATM   23  C   UNL     1      -8.936   7.715  66.160  1.00  0.00    -0.197 A  
HETATM   24  C   UNL     1     -10.905   6.567  66.964  1.00  0.00    -0.465 A  
HETATM   25  C   UNL     1      -9.071   5.309  66.022  1.00  0.00    -0.154 A  
ENDBRANCH  19  20
ENDBRANCH   8  19
ENDBRANCH   7   8
BRANCH   7  26
HETATM   26  O   UNL     1     -12.226  10.880  69.359  1.00  0.00    -0.336 OA 
HETATM   27  O   UNL     1     -13.367   9.934  72.284  1.00  0.00    -0.435 OA 
HETATM   28  O   UNL     1     -12.853  11.961  71.306  1.00  0.00    -0.380 OA 
HETATM   29  O   UNL     1     -11.354  10.030  71.474  1.00  0.00    -0.301 OA 
HETATM   30  P   UNL     1     -12.828  10.381  70.903  1.00  0.00    -0.317 P  
ENDBRANCH   7  26
ENDBRANCH   6   7
ENDBRANCH   5   6
BRANCH   5  31
HETATM   31  S   UNL     1     -10.958  14.915  68.749  1.00  0.00    -0.267 S  
HETATM   32  O   UNL     1     -11.352  15.904  67.768  1.00  0.00    -0.299 OA 
HETATM   33  O   UNL     1      -9.563  14.845  69.137  1.00  0.00    -0.210 OA 
BRANCH  31  34
HETATM   34  C   UNL     1     -11.855  15.315  70.203  1.00  0.00    -0.323 A  
HETATM   35  N   UNL     1     -13.850  16.049  73.805  1.00  0.00    -0.604 NA 
HETATM   36  C   UNL     1     -13.244  15.199  70.245  1.00  0.00    -0.051 A  
HETATM   37  H1  UNL     1     -13.329  16.330  74.636  1.00  0.00     0.000 HD 
HETATM   38  H2  UNL     1     -14.382  15.208  74.032  1.00  0.00     0.000 HD 
HETATM   39  C   UNL     1     -11.128  15.533  71.376  1.00  0.00    -0.318 A  
HETATM   40  C   UNL     1     -11.795  15.788  72.564  1.00  0.00    -0.605 A  
HETATM   41  C   UNL     1     -13.905  15.449  71.449  1.00  0.00    -0.577 A  
HETATM   42  C   UNL     1     -13.190  15.836  72.590  1.00  0.00    -0.502 A  
ENDBRANCH  31  34
ENDBRANCH   5  31
ENDBRANCH   4   5
TORSDOF 12
ENDMDL
MODEL       36
REMARK 921   NORMALIZED FREE ENERGY PREDICTED BY IDOCK:   -6.45 KCAL/MOL
REMARK 922        TOTAL FREE ENERGY PREDICTED BY IDOCK:  -13.79 KCAL/MOL
REMARK 923 INTER-LIGAND FREE ENERGY PREDICTED BY IDOCK:  -10.95 KCAL/MOL
REMARK 924 INTRA-LIGAND FREE ENERGY PREDICTED BY IDOCK:   -2.84 KCAL/MOL
REMARK 927      BINDING AFFINITY PREDICTED BY RF-SCORE:    0.00 PKD
ROOT
HETATM    1  C   UNL     1      -7.232  11.544  66.797  1.00  0.00    -0.111 C  
HETATM    2  C   UNL     1      -6.753  12.376  67.975  1.00  0.00    -0.081 C  
HETATM    3  C   UNL     1      -5.326  12.908  67.824  1.00  0.00    -0.114 C  
HETATM    4  C   UNL     1      -7.638  13.410  68.681  1.00  0.00    -0.101 C  
ENDROOT
BRANCH   4   5
HETATM    5  N   UNL     1      -8.698  14.278  68.092  1.00  0.00    -0.167 N  
BRANCH   5   6
HETATM    6  C   UNL     1      -9.495  14.879  69.288  1.00  0.00    -0.114 C  
BRANCH   6   7
HETATM    7  C   UNL     1     -10.970  14.310  69.511  1.00  0.00    -0.169 C  
BRANCH   7   8
HETATM    8  C   UNL     1     -11.278  13.084  68.517  1.00  0.00    -0.274 C  
BRANCH   8   9
HETATM    9  N   UNL     1     -11.750  11.880  69.223  1.00  0.00    -0.306 N  
HETATM   10  C   UNL     1     -10.877  10.896  69.612  1.00  0.00    -0.216 C  
HETATM   11  H   UNL     1     -12.744  11.776  69.426  1.00  0.00     0.000 HD 
HETATM   12  O   UNL     1      -9.664  10.925  69.482  1.00  0.00    -0.077 OA 
BRANCH  10  13
HETATM   13  O   UNL     1     -11.564   9.875  70.192  1.00  0.00    -0.253 OA 
BRANCH  13  14
HETATM   14  C   UNL     1     -10.746   8.809  70.707  1.00  0.00    -0.228 C  
HETATM   15  C   UNL     1     -10.954   8.534  72.179  1.00  0.00    -0.427 C  
HETATM   16  O   UNL     1     -11.006   6.454  71.064  1.00  0.00    -0.248 OA 
HETATM   17  C   UNL     1     -10.623   7.067  72.300  1.00  0.00    -0.213 C  
HETATM   18  C   UNL     1     -11.150   7.482  70.074  1.00  0.00    -0.204 C  
ENDBRANCH  13  14
ENDBRANCH  10  13
ENDBRANCH   8   9
BRANCH   8  19
HETATM   19  C   UNL     1     -12.154  13.374  67.275  1.00  0.00    -0.352 C  
BRANCH  19  20
HETATM   20  C   UNL     1     -11.750  12.744  65.969  1.00  0.00    -0.470 A  
HETATM   21  C   UNL     1     -12.237  12.166  63.664  1.00  0.00    -0.663 A  
HETATM   22  C   UNL     1     -10.288  11.243  64.753  1.00  0.00    -0.366 A  
HETATM   23  C   UNL     1     -10.605  11.941  65.917  1.00  0.00    -0.306 A  
HETATM   24  C   UNL     1     -12.561  12.858  64.832  1.00  0.00    -0.525 A  
HETATM   25  C   UNL     1     -11.105  11.353  63.629  1.00  0.00    -0.411 A  
ENDBRANCH  19  20
ENDBRANCH   8  19
ENDBRANCH   7   8
BRANCH   7  26
HETATM   26  O   UNL     1     -11.985  15.379  69.571  1.00  0.00    -0.325 OA 
HETATM   27  O   UNL     1     -13.929  15.480  72.210  1.00  0.00    -0.507 OA 
HETATM   28  O   UNL     1     -11.902  16.423  71.634  1.00  0.00    -0.456 OA 
HETATM   29  O   UNL     1     -12.446  14.035  71.556  1.00  0.00    -0.341 OA 
HETATM   30  P   UNL     1     -13.011  15.432  70.964  1.00  0.00    -0.437 P  
ENDBRANCH   7  26
ENDBRANCH   6   7
ENDBRANCH   5   6
BRANCH   5  31
HETATM   31  S   UNL     1      -8.513  15.450  66.862  1.00  0.00    -0.265 S  
HETATM   32  O   UNL     1      -9.363  15.106  65.742  1.00  0.00    -0.310 OA 
HETATM   33  O   UNL     1      -7.094  15.622  66.623  1.00  0.00    -0.144 OA 
BRANCH  31  34
HETATM   34  C   UNL     1      -9.107  16.997  67.440  1.00  0.00    -0.222 A  
HETATM   35  N   UNL     1     -10.543  20.769  68.534  1.00  0.00     0.351 NA 
HETATM   36  C   UNL     1      -8.306  17.825  68.226  1.00  0.00    -0.276 A  
HETATM   37  H1  UNL     1     -11.475  21.070  68.248  1.00  0.00     0.000 HD 
HETATM   38  H2  UNL     1      -9.869  21.458  68.198  1.00  0.00     0.000 HD 
HETATM   39  C   UNL     1     -10.308  17.472  66.908  1.00  0.00    -0.315 A  
HETATM   40  C   UNL     1     -10.785  18.718  67.284  1.00  0.00    -0.490 A  
HETATM   41  C   UNL     1      -8.793  19.082  68.591  1.00  0.00    -0.388 A  
HETATM   42  C   UNL     1     -10.073  19.496  68.199  1.00  0.00    -0.429 A  
ENDBRANCH  31  34
ENDBRANCH   5  31
ENDBRANCH   4   5
TORSDOF 12
ENDMDL
MODEL       37
REMARK 921   NORMALIZED FREE ENERGY PREDICTED BY IDOCK:   -6.45 KCAL/MOL
REMARK 922        TOTAL FREE ENERGY PREDICTED BY IDOCK:  -13.78 KCAL/MOL
REMARK 923 INTER-LIGAND FREE ENERGY PREDICTED BY IDOCK:  -11.74 KCAL/MOL
REMARK 924 INTRA-LIGAND FREE ENERGY PREDICTED BY IDOCK:   -2.04 KCAL/MOL
REMARK 927      BINDING AFFINITY PREDICTED BY RF-SCORE:    0.00 PKD
ROOT
HETATM    1  C   UNL     1      -6.910  11.381  69.451  1.00  0.00    -0.112 C  
HETATM    2  C   UNL     1      -7.405  12.290  68.337  1.00  0.00    -0.109 C  
HETATM    3  C   UNL     1      -6.299  12.793  67.406  1.00  0.00    -0.139 C  
HETATM    4  C   UNL     1      -8.688  12.016  67.545  1.00  0.00    -0.166 C  
ENDROOT
BRANCH   4   5
HETATM    5  N   UNL     1      -9.278  10.700  67.164  1.00  0.00    -0.147 N  
BRANCH   5   6
HETATM    6  C   UNL     1     -10.821  10.842  67.326  1.00  0.00    -0.287 C  
BRANCH   6   7
HETATM    7  C   UNL     1     -11.376  12.325  67.529  1.00  0.00    -0.325 C  
BRANCH   7   8
HETATM    8  C   UNL     1     -11.602  12.654  69.087  1.00  0.00    -0.320 C  
BRANCH   8   9
HETATM    9  N   UNL     1     -11.069  11.605  69.976  1.00  0.00    -0.461 N  
HETATM   10  C   UNL     1     -11.897  10.674  70.552  1.00  0.00    -0.357 C  
HETATM   11  H   UNL     1     -10.068  11.570  70.165  1.00  0.00     0.000 HD 
HETATM   12  O   UNL     1     -13.097  10.570  70.362  1.00  0.00    -0.279 OA 
BRANCH  10  13
HETATM   13  O   UNL     1     -11.173   9.856  71.363  1.00  0.00    -0.348 OA 
BRANCH  13  14
HETATM   14  C   UNL     1     -11.589   8.479  71.362  1.00  0.00    -0.289 C  
HETATM   15  C   UNL     1     -10.574   7.534  70.760  1.00  0.00    -0.227 C  
HETATM   16  O   UNL     1     -11.290   6.585  72.800  1.00  0.00    -0.250 OA 
HETATM   17  C   UNL     1     -10.846   6.238  71.485  1.00  0.00    -0.254 C  
HETATM   18  C   UNL     1     -11.699   7.961  72.792  1.00  0.00    -0.280 C  
ENDBRANCH  13  14
ENDBRANCH  10  13
ENDBRANCH   8   9
BRANCH   8  19
HETATM   19  C   UNL     1     -11.193  14.059  69.587  1.00  0.00    -0.218 C  
BRANCH  19  20
HETATM   20  C   UNL     1     -12.019  14.682  70.681  1.00  0.00    -0.380 A  
HETATM   21  C   UNL     1     -12.186  16.009  72.705  1.00  0.00    -0.619 A  
HETATM   22  C   UNL     1     -14.105  14.777  71.909  1.00  0.00    -0.609 A  
HETATM   23  C   UNL     1     -13.362  14.314  70.825  1.00  0.00    -0.174 A  
HETATM   24  C   UNL     1     -11.437  15.539  71.625  1.00  0.00    -0.496 A  
HETATM   25  C   UNL     1     -13.517  15.620  72.850  1.00  0.00    -0.657 A  
ENDBRANCH  19  20
ENDBRANCH   8  19
ENDBRANCH   7   8
BRANCH   7  26
HETATM   26  O   UNL     1     -12.497  12.639  66.622  1.00  0.00    -0.368 OA 
HETATM   27  O   UNL     1     -12.020  14.976  64.372  1.00  0.00    -0.442 OA 
HETATM   28  O   UNL     1     -11.745  12.685  64.435  1.00  0.00    -0.330 OA 
HETATM   29  O   UNL     1     -10.797  14.286  66.029  1.00  0.00    -0.294 OA 
HETATM   30  P   UNL     1     -12.245  13.872  65.435  1.00  0.00    -0.496 P  
ENDBRANCH   7  26
ENDBRANCH   6   7
ENDBRANCH   5   6
BRANCH   5  31
HETATM   31  S   UNL     1      -8.917   9.762  65.781  1.00  0.00    -0.173 S  
HETATM   32  O   UNL     1      -7.497   9.842  65.508  1.00  0.00    -0.113 OA 
HETATM   33  O   UNL     1      -9.843  10.142  64.734  1.00  0.00    -0.320 OA 
BRANCH  31  34
HETATM   34  C   UNL     1      -9.231   8.071  66.128  1.00  0.00    -0.163 A  
HETATM   35  N   UNL     1     -10.024   4.000  66.664  1.00  0.00    -0.359 NA 
HETATM   36  C   UNL     1     -10.309   7.690  66.926  1.00  0.00    -0.388 A  
HETATM   37  H1  UNL     1      -9.424   3.296  66.235  1.00  0.00     0.000 HD 
HETATM   38  H2  UNL     1     -10.982   3.836  66.352  1.00  0.00     0.000 HD 
HETATM   39  C   UNL     1      -8.514   7.116  65.405  1.00  0.00    -0.090 A  
HETATM   40  C   UNL     1      -8.773   5.767  65.597  1.00  0.00    -0.151 A  
HETATM   41  C   UNL     1     -10.567   6.329  67.105  1.00  0.00    -0.380 A  
HETATM   42  C   UNL     1      -9.742   5.362  66.515  1.00  0.00    -0.164 A  
ENDBRANCH  31  34
ENDBRANCH   5  31
ENDBRANCH   4   5
TORSDOF 12
ENDMDL
MODEL       38
REMARK 921   NORMALIZED FREE ENERGY PREDICTED BY IDOCK:   -6.42 KCAL/MOL
REMARK 922        TOTAL FREE ENERGY PREDICTED BY IDOCK:  -13.73 KCAL/MOL
REMARK 923 INTER-LIGAND FREE ENERGY PREDICTED BY IDOCK:  -10.52 KCAL/MOL
REMARK 924 INTRA-LIGAND FREE ENERGY PREDICTED BY IDOCK:   -3.21 KCAL/MOL
REMARK 927      BINDING AFFINITY PREDICTED BY RF-SCORE:    0.00 PKD
ROOT
HETATM    1  C   UNL     1      -5.173  14.037  68.151  1.00  0.00    -0.118 C  
HETATM    2  C   UNL     1      -6.365  14.314  69.053  1.00  0.00    -0.096 C  
HETATM    3  C   UNL     1      -6.843  15.768  69.025  1.00  0.00    -0.148 C  
HETATM    4  C   UNL     1      -7.558  13.361  69.175  1.00  0.00     0.200 C  
ENDROOT
BRANCH   4   5
HETATM    5  N   UNL     1      -8.154  12.483  68.126  1.00  0.00    -0.159 N  
BRANCH   5   6
HETATM    6  C   UNL     1      -8.499  13.407  66.920  1.00  0.00    -0.051 C  
BRANCH   6   7
HETATM    7  C   UNL     1     -10.044  13.753  66.714  1.00  0.00    -0.265 C  
BRANCH   7   8
HETATM    8  C   UNL     1     -10.689  14.359  68.057  1.00  0.00    -0.241 C  
BRANCH   8   9
HETATM    9  N   UNL     1     -10.528  15.820  68.160  1.00  0.00    -0.256 N  
HETATM   10  C   UNL     1     -10.498  16.447  69.380  1.00  0.00    -0.309 C  
HETATM   11  H   UNL     1     -10.438  16.375  67.309  1.00  0.00     0.000 HD 
HETATM   12  O   UNL     1     -10.537  15.897  70.467  1.00  0.00    -0.257 OA 
BRANCH  10  13
HETATM   13  O   UNL     1     -10.395  17.793  69.202  1.00  0.00    -0.350 OA 
BRANCH  13  14
HETATM   14  C   UNL     1      -9.791  18.196  67.960  1.00  0.00    -0.325 C  
HETATM   15  C   UNL     1     -10.638  19.151  67.150  1.00  0.00    -0.564 C  
HETATM   16  O   UNL     1      -8.449  20.035  67.211  1.00  0.00    -0.310 OA 
HETATM   17  C   UNL     1      -9.611  19.944  66.379  1.00  0.00    -0.431 C  
HETATM   18  C   UNL     1      -8.540  19.026  68.228  1.00  0.00    -0.331 C  
ENDBRANCH  13  14
ENDBRANCH  10  13
ENDBRANCH   8   9
BRANCH   8  19
HETATM   19  C   UNL     1     -12.135  13.937  68.408  1.00  0.00    -0.327 C  
BRANCH  19  20
HETATM   20  C   UNL     1     -12.320  12.870  69.453  1.00  0.00     0.003 A  
HETATM   21  C   UNL     1     -12.818  12.213  71.735  1.00  0.00    -0.367 A  
HETATM   22  C   UNL     1     -11.973  10.581  70.168  1.00  0.00    -0.398 A  
HETATM   23  C   UNL     1     -11.934  11.555  69.171  1.00  0.00    -0.386 A  
HETATM   24  C   UNL     1     -12.770  13.192  70.741  1.00  0.00    -0.260 A  
HETATM   25  C   UNL     1     -12.411  10.911  71.449  1.00  0.00    -0.460 A  
ENDBRANCH  19  20
ENDBRANCH   8  19
ENDBRANCH   7   8
BRANCH   7  26
HETATM   26  O   UNL     1     -10.788  12.658  66.063  1.00  0.00    -0.269 OA 
HETATM   27  O   UNL     1     -12.423  13.358  63.309  1.00  0.00    -0.739 OA 
HETATM   28  O   UNL     1     -10.296  12.611  63.803  1.00  0.00    -0.415 OA 
HETATM   29  O   UNL     1     -11.360  14.616  64.724  1.00  0.00    -0.378 OA 
HETATM   30  P   UNL     1     -11.650  13.028  64.610  1.00  0.00    -0.398 P  
ENDBRANCH   7  26
ENDBRANCH   6   7
ENDBRANCH   5   6
BRANCH   5  31
HETATM   31  S   UNL     1      -7.556  10.984  67.565  1.00  0.00    -0.110 S  
HETATM   32  O   UNL     1      -6.378  10.625  68.327  1.00  0.00    -0.054 OA 
HETATM   33  O   UNL     1      -7.446  11.063  66.122  1.00  0.00    -0.141 OA 
BRANCH  31  34
HETATM   34  C   UNL     1      -8.732   9.726  67.903  1.00  0.00    -0.125 A  
HETATM   35  N   UNL     1     -11.308   6.547  68.768  1.00  0.00    -0.590 NA 
HETATM   36  C   UNL     1      -9.584   9.253  66.905  1.00  0.00    -0.229 A  
HETATM   37  H1  UNL     1     -11.328   6.139  69.702  1.00  0.00     0.000 HD 
HETATM   38  H2  UNL     1     -11.105   5.804  68.099  1.00  0.00     0.000 HD 
HETATM   39  C   UNL     1      -8.637   9.060  69.126  1.00  0.00    -0.133 A  
HETATM   40  C   UNL     1      -9.502   8.015  69.412  1.00  0.00    -0.159 A  
HETATM   41  C   UNL     1     -10.445   8.194  67.201  1.00  0.00    -0.396 A  
HETATM   42  C   UNL     1     -10.472   7.633  68.485  1.00  0.00    -0.174 A  
ENDBRANCH  31  34
ENDBRANCH   5  31
ENDBRANCH   4   5
TORSDOF 12
ENDMDL
MODEL       39
REMARK 921   NORMALIZED FREE ENERGY PREDICTED BY IDOCK:   -6.42 KCAL/MOL
REMARK 922        TOTAL FREE ENERGY PREDICTED BY IDOCK:  -13.73 KCAL/MOL
REMARK 923 INTER-LIGAND FREE ENERGY PREDICTED BY IDOCK:  -10.93 KCAL/MOL
REMARK 924 INTRA-LIGAND FREE ENERGY PREDICTED BY IDOCK:   -2.79 KCAL/MOL
REMARK 927      BINDING AFFINITY PREDICTED BY RF-SCORE:    0.00 PKD
ROOT
HETATM    1  C   UNL     1      -6.283  11.088  68.980  1.00  0.00    -0.045 C  
HETATM    2  C   UNL     1      -6.613  11.570  67.577  1.00  0.00    -0.087 C  
HETATM    3  C   UNL     1      -5.470  11.398  66.574  1.00  0.00    -0.137 C  
HETATM    4  C   UNL     1      -7.963  11.307  66.901  1.00  0.00    -0.155 C  
ENDROOT
BRANCH   4   5
HETATM    5  N   UNL     1      -8.856  10.120  67.046  1.00  0.00    -0.135 N  
BRANCH   5   6
HETATM    6  C   UNL     1     -10.222  10.512  66.408  1.00  0.00    -0.237 C  
BRANCH   6   7
HETATM    7  C   UNL     1     -10.903  11.846  66.962  1.00  0.00    -0.259 C  
BRANCH   7   8
HETATM    8  C   UNL     1     -10.825  11.917  68.567  1.00  0.00    -0.221 C  
BRANCH   8   9
HETATM    9  N   UNL     1     -10.213  13.166  69.055  1.00  0.00    -0.432 N  
HETATM   10  C   UNL     1     -10.935  14.330  69.124  1.00  0.00    -0.261 C  
HETATM   11  H   UNL     1      -9.236  13.163  69.348  1.00  0.00     0.000 HD 
HETATM   12  O   UNL     1     -12.119  14.454  68.861  1.00  0.00    -0.311 OA 
BRANCH  10  13
HETATM   13  O   UNL     1     -10.133  15.342  69.554  1.00  0.00    -0.245 OA 
BRANCH  13  14
HETATM   14  C   UNL     1      -9.532  16.127  68.508  1.00  0.00    -0.216 C  
HETATM   15  C   UNL     1     -10.268  17.414  68.210  1.00  0.00    -0.362 C  
HETATM   16  O   UNL     1      -7.974  17.944  68.393  1.00  0.00    -0.279 OA 
HETATM   17  C   UNL     1      -9.172  18.321  67.706  1.00  0.00    -0.270 C  
HETATM   18  C   UNL     1      -8.164  16.635  68.951  1.00  0.00    -0.231 C  
ENDBRANCH  13  14
ENDBRANCH  10  13
ENDBRANCH   8   9
BRANCH   8  19
HETATM   19  C   UNL     1     -12.112  11.587  69.359  1.00  0.00    -0.345 C  
BRANCH  19  20
HETATM   20  C   UNL     1     -12.046  10.474  70.370  1.00  0.00    -0.418 A  
HETATM   21  C   UNL     1     -13.094   9.114  72.085  1.00  0.00    -0.516 A  
HETATM   22  C   UNL     1     -10.708   8.983  71.733  1.00  0.00    -0.437 A  
HETATM   23  C   UNL     1     -10.806   9.919  70.706  1.00  0.00    -0.387 A  
HETATM   24  C   UNL     1     -13.193  10.059  71.062  1.00  0.00    -0.399 A  
HETATM   25  C   UNL     1     -11.851   8.583  72.424  1.00  0.00    -0.437 A  
ENDBRANCH  19  20
ENDBRANCH   8  19
ENDBRANCH   7   8
BRANCH   7  26
HETATM   26  O   UNL     1     -12.224  12.101  66.356  1.00  0.00    -0.592 OA 
HETATM   27  O   UNL     1     -12.434  14.490  64.120  1.00  0.00    -0.707 OA 
HETATM   28  O   UNL     1     -12.020  12.220  64.054  1.00  0.00    -0.396 OA 
HETATM   29  O   UNL     1     -10.813  13.858  65.419  1.00  0.00    -0.298 OA 
HETATM   30  P   UNL     1     -12.334  13.361  65.176  1.00  0.00    -0.459 P  
ENDBRANCH   7  26
ENDBRANCH   6   7
ENDBRANCH   5   6
BRANCH   5  31
HETATM   31  S   UNL     1      -8.484   8.492  66.681  1.00  0.00    -0.116 S  
HETATM   32  O   UNL     1      -7.046   8.329  66.638  1.00  0.00    -0.074 OA 
HETATM   33  O   UNL     1      -9.256   8.112  65.515  1.00  0.00    -0.054 OA 
BRANCH  31  34
HETATM   34  C   UNL     1      -9.031   7.464  67.993  1.00  0.00    -0.132 A  
HETATM   35  N   UNL     1     -10.539   5.220  71.185  1.00  0.00    -0.208 NA 
HETATM   36  C   UNL     1      -8.188   7.147  69.057  1.00  0.00    -0.125 A  
HETATM   37  H1  UNL     1     -11.504   4.891  71.174  1.00  0.00     0.000 HD 
HETATM   38  H2  UNL     1     -10.399   5.770  72.033  1.00  0.00     0.000 HD 
HETATM   39  C   UNL     1     -10.393   7.160  68.056  1.00  0.00    -0.238 A  
HETATM   40  C   UNL     1     -10.884   6.406  69.110  1.00  0.00    -0.382 A  
HETATM   41  C   UNL     1      -8.696   6.395  70.118  1.00  0.00    -0.139 A  
HETATM   42  C   UNL     1     -10.021   5.942  70.104  1.00  0.00    -0.191 A  
ENDBRANCH  31  34
ENDBRANCH   5  31
ENDBRANCH   4   5
TORSDOF 12
ENDMDL
MODEL       40
REMARK 921   NORMALIZED FREE ENERGY PREDICTED BY IDOCK:   -6.42 KCAL/MOL
REMARK 922        TOTAL FREE ENERGY PREDICTED BY IDOCK:  -13.73 KCAL/MOL
REMARK 923 INTER-LIGAND FREE ENERGY PREDICTED BY IDOCK:  -12.08 KCAL/MOL
REMARK 924 INTRA-LIGAND FREE ENERGY PREDICTED BY IDOCK:   -1.65 KCAL/MOL
REMARK 927      BINDING AFFINITY PREDICTED BY RF-SCORE:    0.00 PKD
ROOT
HETATM    1  C   UNL     1      -6.992  13.827  67.609  1.00  0.00    -0.186 C  
HETATM    2  C   UNL     1      -7.120  12.506  68.351  1.00  0.00    -0.107 C  
HETATM    3  C   UNL     1      -6.389  12.473  69.695  1.00  0.00    -0.100 C  
HETATM    4  C   UNL     1      -8.433  11.721  68.436  1.00  0.00    -0.155 C  
ENDROOT
BRANCH   4   5
HETATM    5  N   UNL     1      -9.827  12.251  68.492  1.00  0.00    -0.189 N  
BRANCH   5   6
HETATM    6  C   UNL     1     -10.093  12.946  67.123  1.00  0.00    -0.243 C  
BRANCH   6   7
HETATM    7  C   UNL     1     -10.762  14.394  67.184  1.00  0.00    -0.283 C  
BRANCH   7   8
HETATM    8  C   UNL     1     -10.739  14.984  68.680  1.00  0.00    -0.244 C  
BRANCH   8   9
HETATM    9  N   UNL     1      -9.522  15.764  68.968  1.00  0.00    -0.230 N  
HETATM   10  C   UNL     1      -9.357  17.033  68.472  1.00  0.00    -0.265 C  
HETATM   11  H   UNL     1      -8.789  15.354  69.546  1.00  0.00     0.000 HD 
HETATM   12  O   UNL     1     -10.177  17.657  67.820  1.00  0.00    -0.320 OA 
BRANCH  10  13
HETATM   13  O   UNL     1      -8.137  17.513  68.834  1.00  0.00    -0.254 OA 
BRANCH  13  14
HETATM   14  C   UNL     1      -7.763  18.755  68.211  1.00  0.00    -0.299 C  
HETATM   15  C   UNL     1      -7.045  19.712  69.135  1.00  0.00    -0.378 C  
HETATM   16  O   UNL     1      -5.812  19.622  67.123  1.00  0.00    -0.175 OA 
HETATM   17  C   UNL     1      -6.173  20.504  68.191  1.00  0.00    -0.301 C  
HETATM   18  C   UNL     1      -6.718  18.508  67.129  1.00  0.00    -0.196 C  
ENDBRANCH  13  14
ENDBRANCH  10  13
ENDBRANCH   8   9
BRANCH   8  19
HETATM   19  C   UNL     1     -12.001  15.730  69.173  1.00  0.00    -0.312 C  
BRANCH  19  20
HETATM   20  C   UNL     1     -12.376  15.588  70.624  1.00  0.00    -0.462 A  
HETATM   21  C   UNL     1     -11.749  15.265  72.945  1.00  0.00    -0.478 A  
HETATM   22  C   UNL     1     -14.072  15.144  72.296  1.00  0.00    -0.633 A  
HETATM   23  C   UNL     1     -13.719  15.409  70.974  1.00  0.00    -0.420 A  
HETATM   24  C   UNL     1     -11.393  15.522  71.620  1.00  0.00    -0.462 A  
HETATM   25  C   UNL     1     -13.088  15.068  73.279  1.00  0.00    -0.607 A  
ENDBRANCH  19  20
ENDBRANCH   8  19
ENDBRANCH   7   8
BRANCH   7  26
HETATM   26  O   UNL     1     -12.055  14.450  66.475  1.00  0.00    -0.418 OA 
HETATM   27  O   UNL     1     -12.135  15.988  63.581  1.00  0.00    -0.768 OA 
HETATM   28  O   UNL     1     -11.767  13.816  64.269  1.00  0.00    -0.394 OA 
HETATM   29  O   UNL     1     -10.575  15.797  65.079  1.00  0.00    -0.432 OA 
HETATM   30  P   UNL     1     -12.097  15.261  64.948  1.00  0.00     0.159 P  
ENDBRANCH   7  26
ENDBRANCH   6   7
ENDBRANCH   5   6
BRANCH   5  31
HETATM   31  S   UNL     1     -11.230  11.426  69.014  1.00  0.00    -0.282 S  
HETATM   32  O   UNL     1     -12.084  11.168  67.873  1.00  0.00    -0.627 OA 
HETATM   33  O   UNL     1     -11.781  12.157  70.137  1.00  0.00    -0.303 OA 
BRANCH  31  34
HETATM   34  C   UNL     1     -10.779   9.844  69.626  1.00  0.00    -0.252 A  
HETATM   35  N   UNL     1      -9.938   5.964  70.940  1.00  0.00    -0.182 NA 
HETATM   36  C   UNL     1     -10.788   9.575  70.994  1.00  0.00    -0.423 A  
HETATM   37  H1  UNL     1      -9.709   5.230  70.269  1.00  0.00     0.000 HD 
HETATM   38  H2  UNL     1     -10.738   5.653  71.491  1.00  0.00     0.000 HD 
HETATM   39  C   UNL     1     -10.633   8.808  68.702  1.00  0.00    -0.174 A  
HETATM   40  C   UNL     1     -10.342   7.526  69.143  1.00  0.00    -0.215 A  
HETATM   41  C   UNL     1     -10.503   8.278  71.427  1.00  0.00    -0.276 A  
HETATM   42  C   UNL     1     -10.187   7.271  70.507  1.00  0.00    -0.196 A  
ENDBRANCH  31  34
ENDBRANCH   5  31
ENDBRANCH   4   5
TORSDOF 12
ENDMDL
MODEL       41
REMARK 921   NORMALIZED FREE ENERGY PREDICTED BY IDOCK:   -6.40 KCAL/MOL
REMARK 922        TOTAL FREE ENERGY PREDICTED BY IDOCK:  -13.70 KCAL/MOL
REMARK 923 INTER-LIGAND FREE ENERGY PREDICTED BY IDOCK:  -10.56 KCAL/MOL
REMARK 924 INTRA-LIGAND FREE ENERGY PREDICTED BY IDOCK:   -3.14 KCAL/MOL
REMARK 927      BINDING AFFINITY PREDICTED BY RF-SCORE:    0.00 PKD
ROOT
HETATM    1  C   UNL     1     -12.644  13.895  65.330  1.00  0.00    -0.538 C  
HETATM    2  C   UNL     1     -11.235  14.454  65.230  1.00  0.00    -0.345 C  
HETATM    3  C   UNL     1     -11.164  15.863  64.635  1.00  0.00    -0.361 C  
HETATM    4  C   UNL     1     -10.190  14.288  66.339  1.00  0.00    -0.291 C  
ENDROOT
BRANCH   4   5
HETATM    5  N   UNL     1     -10.406  14.239  67.815  1.00  0.00    -0.237 N  
BRANCH   5   6
HETATM    6  C   UNL     1      -9.694  12.950  68.324  1.00  0.00    -0.217 C  
BRANCH   6   7
HETATM    7  C   UNL     1     -10.643  11.732  68.729  1.00  0.00    -0.206 C  
BRANCH   7   8
HETATM    8  C   UNL     1     -10.504  10.515  67.686  1.00  0.00    -0.234 C  
BRANCH   8   9
HETATM    9  N   UNL     1     -10.913   9.220  68.260  1.00  0.00    -0.475 N  
HETATM   10  C   UNL     1      -9.990   8.357  68.792  1.00  0.00    -0.187 C  
HETATM   11  H   UNL     1     -11.899   8.962  68.262  1.00  0.00     0.000 HD 
HETATM   12  O   UNL     1      -8.794   8.569  68.904  1.00  0.00    -0.137 OA 
BRANCH  10  13
HETATM   13  O   UNL     1     -10.610   7.218  69.205  1.00  0.00    -0.212 OA 
BRANCH  13  14
HETATM   14  C   UNL     1     -10.874   7.149  70.618  1.00  0.00    -0.245 C  
HETATM   15  C   UNL     1     -12.344   7.062  70.962  1.00  0.00    -0.402 C  
HETATM   16  O   UNL     1     -11.230   5.406  72.223  1.00  0.00    -0.236 OA 
HETATM   17  C   UNL     1     -12.341   6.306  72.268  1.00  0.00    -0.096 C  
HETATM   18  C   UNL     1     -10.333   5.844  71.191  1.00  0.00    -0.221 C  
ENDBRANCH  13  14
ENDBRANCH  10  13
ENDBRANCH   8   9
BRANCH   8  19
HETATM   19  C   UNL     1     -11.113  10.710  66.277  1.00  0.00     0.084 C  
BRANCH  19  20
HETATM   20  C   UNL     1     -10.231  10.434  65.089  1.00  0.00    -0.326 A  
HETATM   21  C   UNL     1      -9.739  10.670  62.725  1.00  0.00    -0.279 A  
HETATM   22  C   UNL     1      -8.468   9.119  64.072  1.00  0.00    -0.195 A  
HETATM   23  C   UNL     1      -9.208   9.485  65.195  1.00  0.00    -0.305 A  
HETATM   24  C   UNL     1     -10.487  11.030  63.846  1.00  0.00    -0.422 A  
HETATM   25  C   UNL     1      -8.736   9.709  62.837  1.00  0.00    -0.227 A  
ENDBRANCH  19  20
ENDBRANCH   8  19
ENDBRANCH   7   8
BRANCH   7  26
HETATM   26  O   UNL     1     -12.014  12.166  69.054  1.00  0.00    -0.297 OA 
HETATM   27  O   UNL     1     -13.279  11.188  71.916  1.00  0.00    -0.470 OA 
HETATM   28  O   UNL     1     -12.076  13.024  71.202  1.00  0.00    -0.174 OA 
HETATM   29  O   UNL     1     -11.429  10.680  70.899  1.00  0.00    -0.301 OA 
HETATM   30  P   UNL     1     -12.681  11.650  70.564  1.00  0.00     0.098 P  
ENDBRANCH   7  26
ENDBRANCH   6   7
ENDBRANCH   5   6
BRANCH   5  31
HETATM   31  S   UNL     1     -10.192  15.510  68.936  1.00  0.00    -0.221 S  
HETATM   32  O   UNL     1      -9.025  15.239  69.750  1.00  0.00    -0.201 OA 
HETATM   33  O   UNL     1     -11.460  15.732  69.602  1.00  0.00    -0.298 OA 
BRANCH  31  34
HETATM   34  C   UNL     1      -9.823  16.992  68.071  1.00  0.00    -0.275 A  
HETATM   35  N   UNL     1      -9.154  20.448  65.813  1.00  0.00    -0.507 NA 
HETATM   36  C   UNL     1      -8.565  17.200  67.508  1.00  0.00    -0.209 A  
HETATM   37  H1  UNL     1      -9.895  21.139  65.694  1.00  0.00     0.000 HD 
HETATM   38  H2  UNL     1      -8.846  20.148  64.887  1.00  0.00     0.000 HD 
HETATM   39  C   UNL     1     -10.884  17.849  67.770  1.00  0.00    -0.237 A  
HETATM   40  C   UNL     1     -10.653  19.000  67.031  1.00  0.00    -0.543 A  
HETATM   41  C   UNL     1      -8.346  18.358  66.758  1.00  0.00    -0.271 A  
HETATM   42  C   UNL     1      -9.364  19.308  66.595  1.00  0.00    -0.341 A  
ENDBRANCH  31  34
ENDBRANCH   5  31
ENDBRANCH   4   5
TORSDOF 12
ENDMDL
MODEL       42
REMARK 921   NORMALIZED FREE ENERGY PREDICTED BY IDOCK:   -6.40 KCAL/MOL
REMARK 922        TOTAL FREE ENERGY PREDICTED BY IDOCK:  -13.69 KCAL/MOL
REMARK 923 INTER-LIGAND FREE ENERGY PREDICTED BY IDOCK:  -10.66 KCAL/MOL
REMARK 924 INTRA-LIGAND FREE ENERGY PREDICTED BY IDOCK:   -3.03 KCAL/MOL
REMARK 927      BINDING AFFINITY PREDICTED BY RF-SCORE:    0.00 PKD
ROOT
HETATM    1  C   UNL     1      -7.494  10.283  63.616  1.00  0.00    -0.087 C  
HETATM    2  C   UNL     1      -8.635   9.430  64.146  1.00  0.00    -0.216 C  
HETATM    3  C   UNL     1      -8.263   7.963  64.374  1.00  0.00    -0.055 C  
HETATM    4  C   UNL     1      -9.603   9.912  65.233  1.00  0.00    -0.295 C  
ENDROOT
BRANCH   4   5
HETATM    5  N   UNL     1      -9.324  10.817  66.386  1.00  0.00    -0.170 N  
BRANCH   5   6
HETATM    6  C   UNL     1     -10.608  10.820  67.268  1.00  0.00    -0.257 C  
BRANCH   6   7
HETATM    7  C   UNL     1     -11.369  12.217  67.405  1.00  0.00    -0.325 C  
BRANCH   7   8
HETATM    8  C   UNL     1     -11.635  12.586  68.947  1.00  0.00    -0.318 C  
BRANCH   8   9
HETATM    9  N   UNL     1     -11.170  11.539  69.874  1.00  0.00    -0.478 N  
HETATM   10  C   UNL     1     -12.047  10.649  70.440  1.00  0.00    -0.341 C  
HETATM   11  H   UNL     1     -10.177  11.474  70.099  1.00  0.00     0.000 HD 
HETATM   12  O   UNL     1     -13.243  10.582  70.211  1.00  0.00    -0.175 OA 
BRANCH  10  13
HETATM   13  O   UNL     1     -11.380   9.824  71.292  1.00  0.00    -0.361 OA 
BRANCH  13  14
HETATM   14  C   UNL     1     -11.307   8.450  70.872  1.00  0.00    -0.268 C  
HETATM   15  C   UNL     1     -10.094   7.714  71.395  1.00  0.00    -0.204 C  
HETATM   16  O   UNL     1     -11.970   6.332  71.777  1.00  0.00    -0.321 OA 
HETATM   17  C   UNL     1     -10.573   6.285  71.473  1.00  0.00    -0.237 C  
HETATM   18  C   UNL     1     -12.454   7.651  71.483  1.00  0.00    -0.336 C  
ENDBRANCH  13  14
ENDBRANCH  10  13
ENDBRANCH   8   9
BRANCH   8  19
HETATM   19  C   UNL     1     -11.196  13.987  69.433  1.00  0.00    -0.283 C  
BRANCH  19  20
HETATM   20  C   UNL     1     -12.011  14.642  70.515  1.00  0.00    -0.376 A  
HETATM   21  C   UNL     1     -12.200  16.195  72.370  1.00  0.00    -0.592 A  
HETATM   22  C   UNL     1     -13.990  14.639  71.913  1.00  0.00    -0.573 A  
HETATM   23  C   UNL     1     -13.277  14.133  70.829  1.00  0.00    -0.212 A  
HETATM   24  C   UNL     1     -11.480  15.683  71.289  1.00  0.00    -0.469 A  
HETATM   25  C   UNL     1     -13.451  15.667  72.685  1.00  0.00    -0.655 A  
ENDBRANCH  19  20
ENDBRANCH   8  19
ENDBRANCH   7   8
BRANCH   7  26
HETATM   26  O   UNL     1     -12.524  12.324  66.494  1.00  0.00    -0.340 OA 
HETATM   27  O   UNL     1     -12.433  14.658  64.192  1.00  0.00    -0.736 OA 
HETATM   28  O   UNL     1     -11.787  12.444  64.304  1.00  0.00    -0.351 OA 
HETATM   29  O   UNL     1     -11.115  14.214  65.860  1.00  0.00    -0.299 OA 
HETATM   30  P   UNL     1     -12.475  13.555  65.279  1.00  0.00    -0.433 P  
ENDBRANCH   7  26
ENDBRANCH   6   7
ENDBRANCH   5   6
BRANCH   5  31
HETATM   31  S   UNL     1      -7.931  10.836  67.376  1.00  0.00    -0.114 S  
HETATM   32  O   UNL     1      -8.299  11.266  68.709  1.00  0.00    -0.154 OA 
HETATM   33  O   UNL     1      -6.899  11.572  66.674  1.00  0.00    -0.134 OA 
BRANCH  31  34
HETATM   34  C   UNL     1      -7.330   9.198  67.563  1.00  0.00    -0.084 A  
HETATM   35  N   UNL     1      -5.962   5.315  68.298  1.00  0.00    -0.021 NA 
HETATM   36  C   UNL     1      -5.993   8.891  67.310  1.00  0.00    -0.050 A  
HETATM   37  H1  UNL     1      -6.603   4.598  68.637  1.00  0.00     0.000 HD 
HETATM   38  H2  UNL     1      -5.187   5.388  68.958  1.00  0.00     0.000 HD 
HETATM   39  C   UNL     1      -8.164   8.267  68.185  1.00  0.00    -0.128 A  
HETATM   40  C   UNL     1      -7.709   6.978  68.414  1.00  0.00    -0.120 A  
HETATM   41  C   UNL     1      -5.543   7.592  67.554  1.00  0.00    -0.035 A  
HETATM   42  C   UNL     1      -6.423   6.606  68.019  1.00  0.00    -0.056 A  
ENDBRANCH  31  34
ENDBRANCH   5  31
ENDBRANCH   4   5
TORSDOF 12
ENDMDL
MODEL       43
REMARK 921   NORMALIZED FREE ENERGY PREDICTED BY IDOCK:   -6.39 KCAL/MOL
REMARK 922        TOTAL FREE ENERGY PREDICTED BY IDOCK:  -13.67 KCAL/MOL
REMARK 923 INTER-LIGAND FREE ENERGY PREDICTED BY IDOCK:  -11.77 KCAL/MOL
REMARK 924 INTRA-LIGAND FREE ENERGY PREDICTED BY IDOCK:   -1.90 KCAL/MOL
REMARK 927      BINDING AFFINITY PREDICTED BY RF-SCORE:    0.00 PKD
ROOT
HETATM    1  C   UNL     1      -7.883  15.896  66.774  1.00  0.00    -0.273 C  
HETATM    2  C   UNL     1      -8.348  16.036  68.215  1.00  0.00    -0.164 C  
HETATM    3  C   UNL     1      -8.879  17.428  68.566  1.00  0.00    -0.277 C  
HETATM    4  C   UNL     1      -9.158  14.955  68.939  1.00  0.00    -0.191 C  
ENDROOT
BRANCH   4   5
HETATM    5  N   UNL     1     -10.172  14.021  68.370  1.00  0.00    -0.234 N  
BRANCH   5   6
HETATM    6  C   UNL     1      -9.461  12.645  68.201  1.00  0.00    -0.218 C  
BRANCH   6   7
HETATM    7  C   UNL     1     -10.045  11.682  67.069  1.00  0.00    -0.209 C  
BRANCH   7   8
HETATM    8  C   UNL     1      -9.898  10.136  67.487  1.00  0.00    -0.177 C  
BRANCH   8   9
HETATM    9  N   UNL     1     -10.636   9.803  68.719  1.00  0.00    -0.213 N  
HETATM   10  C   UNL     1      -9.982   9.609  69.909  1.00  0.00    -0.241 C  
HETATM   11  H   UNL     1     -11.652   9.717  68.686  1.00  0.00     0.000 HD 
HETATM   12  O   UNL     1      -8.784   9.741  70.096  1.00  0.00    -0.207 OA 
BRANCH  10  13
HETATM   13  O   UNL     1     -10.878   9.265  70.874  1.00  0.00    -0.246 OA 
BRANCH  13  14
HETATM   14  C   UNL     1     -10.530   8.094  71.634  1.00  0.00    -0.228 C  
HETATM   15  C   UNL     1     -11.507   7.771  72.742  1.00  0.00    -0.415 C  
HETATM   16  O   UNL     1     -11.090   5.765  71.567  1.00  0.00    -0.265 OA 
HETATM   17  C   UNL     1     -11.386   6.272  72.873  1.00  0.00    -0.152 C  
HETATM   18  C   UNL     1     -10.619   6.850  70.756  1.00  0.00    -0.220 C  
ENDBRANCH  13  14
ENDBRANCH  10  13
ENDBRANCH   8   9
BRANCH   8  19
HETATM   19  C   UNL     1     -10.147   9.072  66.392  1.00  0.00    -0.351 C  
BRANCH  19  20
HETATM   20  C   UNL     1      -9.807   7.642  66.713  1.00  0.00    -0.307 A  
HETATM   21  C   UNL     1      -8.243   5.788  66.692  1.00  0.00    -0.106 A  
HETATM   22  C   UNL     1     -10.552   5.410  67.290  1.00  0.00    -0.250 A  
HETATM   23  C   UNL     1     -10.821   6.766  67.116  1.00  0.00    -0.462 A  
HETATM   24  C   UNL     1      -8.512   7.145  66.509  1.00  0.00    -0.125 A  
HETATM   25  C   UNL     1      -9.265   4.921  67.075  1.00  0.00    -0.127 A  
ENDBRANCH  19  20
ENDBRANCH   8  19
ENDBRANCH   7   8
BRANCH   7  26
HETATM   26  O   UNL     1      -9.575  12.045  65.719  1.00  0.00    -0.241 OA 
HETATM   27  O   UNL     1     -11.832  12.931  63.512  1.00  0.00    -0.493 OA 
HETATM   28  O   UNL     1     -10.539  14.044  65.066  1.00  0.00    -0.360 OA 
HETATM   29  O   UNL     1     -12.006  12.137  65.526  1.00  0.00    -0.461 OA 
HETATM   30  P   UNL     1     -10.766  12.513  64.555  1.00  0.00    -0.383 P  
ENDBRANCH   7  26
ENDBRANCH   6   7
ENDBRANCH   5   6
BRANCH   5  31
HETATM   31  S   UNL     1     -11.781  13.790  68.898  1.00  0.00    -0.356 S  
HETATM   32  O   UNL     1     -12.031  12.373  69.062  1.00  0.00    -0.296 OA 
HETATM   33  O   UNL     1     -12.649  14.547  68.018  1.00  0.00     0.106 OA 
BRANCH  31  34
HETATM   34  C   UNL     1     -11.972  14.486  70.498  1.00  0.00    -0.318 A  
HETATM   35  N   UNL     1     -12.722  16.116  74.275  1.00  0.00    -0.898 NA 
HETATM   36  C   UNL     1     -11.553  15.787  70.770  1.00  0.00    -0.429 A  
HETATM   37  H1  UNL     1     -13.186  15.561  74.994  1.00  0.00     0.000 HD 
HETATM   38  H2  UNL     1     -13.262  16.970  74.133  1.00  0.00     0.000 HD 
HETATM   39  C   UNL     1     -12.755  13.787  71.420  1.00  0.00    -0.450 A  
HETATM   40  C   UNL     1     -12.989  14.328  72.675  1.00  0.00    -0.526 A  
HETATM   41  C   UNL     1     -11.802  16.325  72.034  1.00  0.00    -0.568 A  
HETATM   42  C   UNL     1     -12.439  15.563  73.022  1.00  0.00    -0.442 A  
ENDBRANCH  31  34
ENDBRANCH   5  31
ENDBRANCH   4   5
TORSDOF 12
ENDMDL
MODEL       44
REMARK 921   NORMALIZED FREE ENERGY PREDICTED BY IDOCK:   -6.35 KCAL/MOL
REMARK 922        TOTAL FREE ENERGY PREDICTED BY IDOCK:  -13.60 KCAL/MOL
REMARK 923 INTER-LIGAND FREE ENERGY PREDICTED BY IDOCK:  -11.62 KCAL/MOL
REMARK 924 INTRA-LIGAND FREE ENERGY PREDICTED BY IDOCK:   -1.98 KCAL/MOL
REMARK 927      BINDING AFFINITY PREDICTED BY RF-SCORE:    0.00 PKD
ROOT
HETATM    1  C   UNL     1      -6.770  10.263  63.398  1.00  0.00    -0.096 C  
HETATM    2  C   UNL     1      -8.212   9.796  63.289  1.00  0.00    -0.155 C  
HETATM    3  C   UNL     1      -8.366   8.366  62.766  1.00  0.00    -0.134 C  
HETATM    4  C   UNL     1      -9.268  10.091  64.359  1.00  0.00    -0.266 C  
ENDROOT
BRANCH   4   5
HETATM    5  N   UNL     1      -9.084  10.204  65.836  1.00  0.00    -0.150 N  
BRANCH   5   6
HETATM    6  C   UNL     1     -10.497  10.460  66.441  1.00  0.00    -0.177 C  
BRANCH   6   7
HETATM    7  C   UNL     1     -10.914  11.988  66.642  1.00  0.00    -0.287 C  
BRANCH   7   8
HETATM    8  C   UNL     1     -10.570  12.493  68.130  1.00  0.00    -0.226 C  
BRANCH   8   9
HETATM    9  N   UNL     1      -9.802  13.752  68.143  1.00  0.00    -0.232 N  
HETATM   10  C   UNL     1     -10.421  14.963  67.968  1.00  0.00    -0.246 C  
HETATM   11  H   UNL     1      -8.793  13.721  68.286  1.00  0.00     0.000 HD 
HETATM   12  O   UNL     1     -11.622  15.142  67.847  1.00  0.00    -0.333 OA 
BRANCH  10  13
HETATM   13  O   UNL     1      -9.493  15.958  67.969  1.00  0.00    -0.204 OA 
BRANCH  13  14
HETATM   14  C   UNL     1      -9.590  16.880  66.869  1.00  0.00    -0.254 C  
HETATM   15  C   UNL     1     -10.056  18.262  67.269  1.00  0.00    -0.366 C  
HETATM   16  O   UNL     1      -8.171  18.535  65.873  1.00  0.00    -0.497 OA 
HETATM   17  C   UNL     1      -9.413  19.149  66.231  1.00  0.00    -0.326 C  
HETATM   18  C   UNL     1      -8.207  17.163  66.294  1.00  0.00    -0.271 C  
ENDBRANCH  13  14
ENDBRANCH  10  13
ENDBRANCH   8   9
BRANCH   8  19
HETATM   19  C   UNL     1     -11.729  12.544  69.153  1.00  0.00    -0.375 C  
BRANCH  19  20
HETATM   20  C   UNL     1     -11.887  11.379  70.092  1.00  0.00    -0.440 A  
HETATM   21  C   UNL     1     -11.459   9.063  70.673  1.00  0.00    -0.291 A  
HETATM   22  C   UNL     1     -13.063  10.347  71.942  1.00  0.00    -0.563 A  
HETATM   23  C   UNL     1     -12.807  11.460  71.143  1.00  0.00    -0.440 A  
HETATM   24  C   UNL     1     -11.208  10.173  69.866  1.00  0.00    -0.343 A  
HETATM   25  C   UNL     1     -12.393   9.149  71.705  1.00  0.00    -0.434 A  
ENDBRANCH  19  20
ENDBRANCH   8  19
ENDBRANCH   7   8
BRANCH   7  26
HETATM   26  O   UNL     1     -12.274  12.273  66.149  1.00  0.00    -0.647 OA 
HETATM   27  O   UNL     1     -12.565  14.262  63.558  1.00  0.00    -0.814 OA 
HETATM   28  O   UNL     1     -12.353  11.983  63.855  1.00  0.00    -0.451 OA 
HETATM   29  O   UNL     1     -10.851  13.692  64.764  1.00  0.00    -0.349 OA 
HETATM   30  P   UNL     1     -12.427  13.322  64.782  1.00  0.00    -0.314 P  
ENDBRANCH   7  26
ENDBRANCH   6   7
ENDBRANCH   5   6
BRANCH   5  31
HETATM   31  S   UNL     1      -8.190   9.161  66.852  1.00  0.00    -0.116 S  
HETATM   32  O   UNL     1      -8.458   9.496  68.235  1.00  0.00    -0.118 OA 
HETATM   33  O   UNL     1      -6.815   9.168  66.394  1.00  0.00    -0.077 OA 
BRANCH  31  34
HETATM   34  C   UNL     1      -8.769   7.517  66.649  1.00  0.00    -0.138 A  
HETATM   35  N   UNL     1     -10.112   3.633  65.874  1.00  0.00    -0.410 NA 
HETATM   36  C   UNL     1     -10.065   7.161  67.021  1.00  0.00    -0.308 A  
HETATM   37  H1  UNL     1      -9.493   2.950  65.439  1.00  0.00     0.000 HD 
HETATM   38  H2  UNL     1     -10.952   3.713  65.300  1.00  0.00     0.000 HD 
HETATM   39  C   UNL     1      -7.981   6.638  65.903  1.00  0.00    -0.112 A  
HETATM   40  C   UNL     1      -8.426   5.348  65.660  1.00  0.00    -0.138 A  
HETATM   41  C   UNL     1     -10.506   5.862  66.764  1.00  0.00    -0.344 A  
HETATM   42  C   UNL     1      -9.656   4.923  66.166  1.00  0.00    -0.175 A  
ENDBRANCH  31  34
ENDBRANCH   5  31
ENDBRANCH   4   5
TORSDOF 12
ENDMDL
MODEL       45
REMARK 921   NORMALIZED FREE ENERGY PREDICTED BY IDOCK:   -6.32 KCAL/MOL
REMARK 922        TOTAL FREE ENERGY PREDICTED BY IDOCK:  -13.55 KCAL/MOL
REMARK 923 INTER-LIGAND FREE ENERGY PREDICTED BY IDOCK:  -11.11 KCAL/MOL
REMARK 924 INTRA-LIGAND FREE ENERGY PREDICTED BY IDOCK:   -2.44 KCAL/MOL
REMARK 927      BINDING AFFINITY PREDICTED BY RF-SCORE:    0.00 PKD
ROOT
HETATM    1  C   UNL     1      -7.439  15.818  67.059  1.00  0.00    -0.242 C  
HETATM    2  C   UNL     1      -7.578  14.829  68.205  1.00  0.00    -0.115 C  
HETATM    3  C   UNL     1      -6.990  15.323  69.529  1.00  0.00    -0.191 C  
HETATM    4  C   UNL     1      -8.853  14.016  68.456  1.00  0.00    -0.160 C  
ENDROOT
BRANCH   4   5
HETATM    5  N   UNL     1     -10.269  14.416  68.210  1.00  0.00    -0.235 N  
BRANCH   5   6
HETATM    6  C   UNL     1     -11.122  13.117  68.321  1.00  0.00    -0.266 C  
BRANCH   6   7
HETATM    7  C   UNL     1     -11.129  12.165  67.039  1.00  0.00    -0.294 C  
BRANCH   7   8
HETATM    8  C   UNL     1     -10.582  10.696  67.402  1.00  0.00    -0.256 C  
BRANCH   8   9
HETATM    9  N   UNL     1     -11.215  10.132  68.608  1.00  0.00    -0.434 N  
HETATM   10  C   UNL     1     -10.478   9.845  69.728  1.00  0.00    -0.261 C  
HETATM   11  H   UNL     1     -12.219   9.952  68.608  1.00  0.00     0.000 HD 
HETATM   12  O   UNL     1      -9.288  10.065  69.877  1.00  0.00    -0.220 OA 
BRANCH  10  13
HETATM   13  O   UNL     1     -11.281   9.289  70.676  1.00  0.00    -0.248 OA 
BRANCH  13  14
HETATM   14  C   UNL     1     -10.865   7.991  71.139  1.00  0.00    -0.238 C  
HETATM   15  C   UNL     1     -10.388   7.978  72.573  1.00  0.00    -0.374 C  
HETATM   16  O   UNL     1     -11.885   6.170  72.315  1.00  0.00    -0.319 OA 
HETATM   17  C   UNL     1     -10.708   6.573  73.023  1.00  0.00    -0.263 C  
HETATM   18  C   UNL     1     -12.057   7.043  71.189  1.00  0.00    -0.369 C  
ENDBRANCH  13  14
ENDBRANCH  10  13
ENDBRANCH   8   9
BRANCH   8  19
HETATM   19  C   UNL     1     -10.535   9.650  66.263  1.00  0.00    -0.149 C  
BRANCH  19  20
HETATM   20  C   UNL     1     -10.141   8.242  66.621  1.00  0.00    -0.351 A  
HETATM   21  C   UNL     1     -10.723   6.023  67.409  1.00  0.00    -0.393 A  
HETATM   22  C   UNL     1      -8.402   6.651  67.182  1.00  0.00    -0.113 A  
HETATM   23  C   UNL     1      -8.786   7.911  66.724  1.00  0.00    -0.143 A  
HETATM   24  C   UNL     1     -11.109   7.286  66.960  1.00  0.00    -0.066 A  
HETATM   25  C   UNL     1      -9.370   5.710  67.527  1.00  0.00    -0.109 A  
ENDBRANCH  19  20
ENDBRANCH   8  19
ENDBRANCH   7   8
BRANCH   7  26
HETATM   26  O   UNL     1     -10.541  12.811  65.851  1.00  0.00    -0.266 OA 
HETATM   27  O   UNL     1     -12.528  13.432  63.318  1.00  0.00    -0.739 OA 
HETATM   28  O   UNL     1     -11.858  14.596  65.196  1.00  0.00    -0.363 OA 
HETATM   29  O   UNL     1     -12.840  12.351  65.176  1.00  0.00    -0.609 OA 
HETATM   30  P   UNL     1     -11.590  13.139  64.515  1.00  0.00    -0.413 P  
ENDBRANCH   7  26
ENDBRANCH   6   7
ENDBRANCH   5   6
BRANCH   5  31
HETATM   31  S   UNL     1     -11.111  15.731  68.904  1.00  0.00    -0.321 S  
HETATM   32  O   UNL     1     -10.836  15.778  70.325  1.00  0.00    -0.311 OA 
HETATM   33  O   UNL     1     -12.491  15.653  68.470  1.00  0.00     0.173 OA 
BRANCH  31  34
HETATM   34  C   UNL     1     -10.475  17.234  68.256  1.00  0.00    -0.385 A  
HETATM   35  N   UNL     1      -9.099  20.955  66.934  1.00  0.00    -0.614 NA 
HETATM   36  C   UNL     1     -10.838  17.678  66.985  1.00  0.00    -0.067 A  
HETATM   37  H1  UNL     1      -8.488  21.519  67.525  1.00  0.00     0.000 HD 
HETATM   38  H2  UNL     1      -9.919  21.514  66.698  1.00  0.00     0.000 HD 
HETATM   39  C   UNL     1      -9.782  18.076  69.129  1.00  0.00    -0.114 A  
HETATM   40  C   UNL     1      -9.318  19.303  68.681  1.00  0.00    -0.446 A  
HETATM   41  C   UNL     1     -10.372  18.920  66.548  1.00  0.00    -0.493 A  
HETATM   42  C   UNL     1      -9.533  19.695  67.359  1.00  0.00    -0.329 A  
ENDBRANCH  31  34
ENDBRANCH   5  31
ENDBRANCH   4   5
TORSDOF 12
ENDMDL
MODEL       46
REMARK 921   NORMALIZED FREE ENERGY PREDICTED BY IDOCK:   -6.29 KCAL/MOL
REMARK 922        TOTAL FREE ENERGY PREDICTED BY IDOCK:  -13.51 KCAL/MOL
REMARK 923 INTER-LIGAND FREE ENERGY PREDICTED BY IDOCK:  -10.61 KCAL/MOL
REMARK 924 INTRA-LIGAND FREE ENERGY PREDICTED BY IDOCK:   -2.90 KCAL/MOL
REMARK 927      BINDING AFFINITY PREDICTED BY RF-SCORE:    0.00 PKD
ROOT
HETATM    1  C   UNL     1     -11.985   9.822  70.338  1.00  0.00    -0.218 C  
HETATM    2  C   UNL     1     -10.998   9.403  71.414  1.00  0.00    -0.443 C  
HETATM    3  C   UNL     1     -11.538   8.344  72.378  1.00  0.00    -0.450 C  
HETATM    4  C   UNL     1      -9.510   9.163  71.134  1.00  0.00    -0.261 C  
ENDROOT
BRANCH   4   5
HETATM    5  N   UNL     1      -8.876   8.622  69.897  1.00  0.00    -0.141 N  
BRANCH   5   6
HETATM    6  C   UNL     1      -7.816   9.671  69.446  1.00  0.00    -0.104 C  
BRANCH   6   7
HETATM    7  C   UNL     1      -7.998  10.274  67.979  1.00  0.00    -0.101 C  
BRANCH   7   8
HETATM    8  C   UNL     1      -9.254  11.276  67.914  1.00  0.00    -0.157 C  
BRANCH   8   9
HETATM    9  N   UNL     1      -8.887  12.625  67.447  1.00  0.00    -0.180 N  
HETATM   10  C   UNL     1      -9.479  13.745  67.973  1.00  0.00    -0.207 C  
HETATM   11  H   UNL     1      -8.178  12.728  66.721  1.00  0.00     0.000 HD 
HETATM   12  O   UNL     1     -10.293  13.763  68.882  1.00  0.00    -0.219 OA 
BRANCH  10  13
HETATM   13  O   UNL     1      -9.008  14.854  67.341  1.00  0.00    -0.175 OA 
BRANCH  13  14
HETATM   14  C   UNL     1     -10.007  15.835  67.012  1.00  0.00    -0.239 C  
HETATM   15  C   UNL     1      -9.535  17.264  67.163  1.00  0.00    -0.256 C  
HETATM   16  O   UNL     1     -10.609  17.099  65.067  1.00  0.00    -0.704 OA 
HETATM   17  C   UNL     1     -10.370  18.006  66.149  1.00  0.00    -0.366 C  
HETATM   18  C   UNL     1     -10.344  15.766  65.526  1.00  0.00    -0.404 C  
ENDBRANCH  13  14
ENDBRANCH  10  13
ENDBRANCH   8   9
BRANCH   8  19
HETATM   19  C   UNL     1     -10.531  10.775  67.199  1.00  0.00    -0.285 C  
BRANCH  19  20
HETATM   20  C   UNL     1     -10.899  11.417  65.889  1.00  0.00    -0.292 A  
HETATM   21  C   UNL     1     -12.352  12.847  64.573  1.00  0.00    -0.483 A  
HETATM   22  C   UNL     1     -10.690  11.481  63.476  1.00  0.00    -0.483 A  
HETATM   23  C   UNL     1     -10.270  10.994  64.713  1.00  0.00    -0.381 A  
HETATM   24  C   UNL     1     -11.939  12.354  65.812  1.00  0.00    -0.437 A  
HETATM   25  C   UNL     1     -11.732  12.404  63.406  1.00  0.00    -0.554 A  
ENDBRANCH  19  20
ENDBRANCH   8  19
ENDBRANCH   7   8
BRANCH   7  26
HETATM   26  O   UNL     1      -7.926   9.241  66.929  1.00  0.00    -0.104 OA 
HETATM   27  O   UNL     1      -5.788   9.705  64.487  1.00  0.00    -0.073 OA 
HETATM   28  O   UNL     1      -5.718   8.666  66.547  1.00  0.00    -0.048 OA 
HETATM   29  O   UNL     1      -6.410  10.979  66.131  1.00  0.00    -0.132 OA 
HETATM   30  P   UNL     1      -6.797   9.486  65.641  1.00  0.00    -0.095 P  
ENDBRANCH   7  26
ENDBRANCH   6   7
ENDBRANCH   5   6
BRANCH   5  31
HETATM   31  S   UNL     1      -8.282   7.040  69.643  1.00  0.00    -0.133 S  
HETATM   32  O   UNL     1      -8.583   6.225  70.802  1.00  0.00    -0.133 OA 
HETATM   33  O   UNL     1      -6.901   7.148  69.217  1.00  0.00    -0.054 OA 
BRANCH  31  34
HETATM   34  C   UNL     1      -9.153   6.298  68.312  1.00  0.00    -0.113 A  
HETATM   35  N   UNL     1     -11.473   4.541  65.309  1.00  0.00    -1.068 NA 
HETATM   36  C   UNL     1      -8.823   5.021  67.861  1.00  0.00    -0.107 A  
HETATM   37  H1  UNL     1     -12.255   5.050  64.897  1.00  0.00     0.000 HD 
HETATM   38  H2  UNL     1     -11.825   3.658  65.678  1.00  0.00     0.000 HD 
HETATM   39  C   UNL     1     -10.321   6.925  67.872  1.00  0.00    -0.239 A  
HETATM   40  C   UNL     1     -11.079   6.343  66.867  1.00  0.00    -0.346 A  
HETATM   41  C   UNL     1      -9.599   4.441  66.855  1.00  0.00    -0.219 A  
HETATM   42  C   UNL     1     -10.674   5.139  66.289  1.00  0.00    -0.209 A  
ENDBRANCH  31  34
ENDBRANCH   5  31
ENDBRANCH   4   5
TORSDOF 12
ENDMDL
MODEL       47
REMARK 921   NORMALIZED FREE ENERGY PREDICTED BY IDOCK:   -6.28 KCAL/MOL
REMARK 922        TOTAL FREE ENERGY PREDICTED BY IDOCK:  -13.50 KCAL/MOL
REMARK 923 INTER-LIGAND FREE ENERGY PREDICTED BY IDOCK:  -10.82 KCAL/MOL
REMARK 924 INTRA-LIGAND FREE ENERGY PREDICTED BY IDOCK:   -2.67 KCAL/MOL
REMARK 927      BINDING AFFINITY PREDICTED BY RF-SCORE:    0.00 PKD
ROOT
HETATM    1  C   UNL     1     -12.204   7.224  71.699  1.00  0.00    -0.377 C  
HETATM    2  C   UNL     1     -11.100   7.921  72.478  1.00  0.00    -0.423 C  
HETATM    3  C   UNL     1     -10.576   7.117  73.670  1.00  0.00    -0.375 C  
HETATM    4  C   UNL     1      -9.957   8.685  71.802  1.00  0.00    -0.301 C  
ENDROOT
BRANCH   4   5
HETATM    5  N   UNL     1      -9.287   8.390  70.502  1.00  0.00    -0.158 N  
BRANCH   5   6
HETATM    6  C   UNL     1      -8.422   9.638  70.155  1.00  0.00    -0.204 C  
BRANCH   6   7
HETATM    7  C   UNL     1      -8.709  10.327  68.744  1.00  0.00    -0.144 C  
BRANCH   7   8
HETATM    8  C   UNL     1      -9.990  11.296  68.819  1.00  0.00    -0.193 C  
BRANCH   8   9
HETATM    9  N   UNL     1     -10.276  11.966  67.537  1.00  0.00    -0.195 N  
HETATM   10  C   UNL     1      -9.998  13.297  67.354  1.00  0.00    -0.233 C  
HETATM   11  H   UNL     1     -10.687  11.431  66.773  1.00  0.00     0.000 HD 
HETATM   12  O   UNL     1      -9.456  14.032  68.163  1.00  0.00    -0.202 OA 
BRANCH  10  13
HETATM   13  O   UNL     1     -10.401  13.684  66.113  1.00  0.00    -0.284 OA 
BRANCH  13  14
HETATM   14  C   UNL     1     -11.001  12.645  65.319  1.00  0.00    -0.286 C  
HETATM   15  C   UNL     1     -12.460  12.884  65.000  1.00  0.00    -0.553 C  
HETATM   16  O   UNL     1     -11.394  12.266  62.986  1.00  0.00    -0.261 OA 
HETATM   17  C   UNL     1     -12.640  12.169  63.684  1.00  0.00    -0.504 C  
HETATM   18  C   UNL     1     -10.371  12.613  63.931  1.00  0.00    -0.377 C  
ENDBRANCH  13  14
ENDBRANCH  10  13
ENDBRANCH   8   9
BRANCH   8  19
HETATM   19  C   UNL     1     -11.285  10.722  69.441  1.00  0.00    -0.337 C  
BRANCH  19  20
HETATM   20  C   UNL     1     -12.014  11.569  70.449  1.00  0.00    -0.459 A  
HETATM   21  C   UNL     1     -13.597  11.785  72.274  1.00  0.00    -0.052 A  
HETATM   22  C   UNL     1     -12.738  13.761  71.184  1.00  0.00    -0.438 A  
HETATM   23  C   UNL     1     -11.964  12.963  70.342  1.00  0.00    -0.329 A  
HETATM   24  C   UNL     1     -12.830  10.984  71.427  1.00  0.00    -0.548 A  
HETATM   25  C   UNL     1     -13.556  13.172  72.146  1.00  0.00    -0.637 A  
ENDBRANCH  19  20
ENDBRANCH   8  19
ENDBRANCH   7   8
BRANCH   7  26
HETATM   26  O   UNL     1      -8.677   9.364  67.627  1.00  0.00    -0.116 OA 
HETATM   27  O   UNL     1      -6.833  10.117  65.023  1.00  0.00    -0.127 OA 
HETATM   28  O   UNL     1      -6.487   8.969  66.995  1.00  0.00    -0.059 OA 
HETATM   29  O   UNL     1      -7.365  11.248  66.799  1.00  0.00    -0.137 OA 
HETATM   30  P   UNL     1      -7.703   9.762  66.253  1.00  0.00    -0.107 P  
ENDBRANCH   7  26
ENDBRANCH   6   7
ENDBRANCH   5   6
BRANCH   5  31
HETATM   31  S   UNL     1      -8.459   6.961  70.063  1.00  0.00    -0.141 S  
HETATM   32  O   UNL     1      -8.684   5.949  71.073  1.00  0.00    -0.132 OA 
HETATM   33  O   UNL     1      -7.093   7.322  69.741  1.00  0.00    -0.068 OA 
BRANCH  31  34
HETATM   34  C   UNL     1      -9.159   6.314  68.589  1.00  0.00    -0.126 A  
HETATM   35  N   UNL     1     -11.037   4.645  65.246  1.00  0.00    -0.943 NA 
HETATM   36  C   UNL     1      -8.452   5.412  67.795  1.00  0.00    -0.105 A  
HETATM   37  H1  UNL     1     -11.991   4.911  65.004  1.00  0.00     0.000 HD 
HETATM   38  H2  UNL     1     -11.007   3.631  65.358  1.00  0.00     0.000 HD 
HETATM   39  C   UNL     1     -10.516   6.549  68.357  1.00  0.00    -0.258 A  
HETATM   40  C   UNL     1     -11.130   6.003  67.241  1.00  0.00    -0.247 A  
HETATM   41  C   UNL     1      -9.083   4.861  66.678  1.00  0.00    -0.119 A  
HETATM   42  C   UNL     1     -10.394   5.226  66.344  1.00  0.00    -0.268 A  
ENDBRANCH  31  34
ENDBRANCH   5  31
ENDBRANCH   4   5
TORSDOF 12
ENDMDL
MODEL       48
REMARK 921   NORMALIZED FREE ENERGY PREDICTED BY IDOCK:   -6.27 KCAL/MOL
REMARK 922        TOTAL FREE ENERGY PREDICTED BY IDOCK:  -13.47 KCAL/MOL
REMARK 923 INTER-LIGAND FREE ENERGY PREDICTED BY IDOCK:  -11.40 KCAL/MOL
REMARK 924 INTRA-LIGAND FREE ENERGY PREDICTED BY IDOCK:   -2.07 KCAL/MOL
REMARK 927      BINDING AFFINITY PREDICTED BY RF-SCORE:    0.00 PKD
ROOT
HETATM    1  C   UNL     1      -7.137  16.110  68.935  1.00  0.00    -0.166 C  
HETATM    2  C   UNL     1      -6.955  15.147  67.774  1.00  0.00    -0.190 C  
HETATM    3  C   UNL     1      -5.836  14.124  67.984  1.00  0.00    -0.138 C  
HETATM    4  C   UNL     1      -8.130  14.509  67.026  1.00  0.00    -0.094 C  
ENDROOT
BRANCH   4   5
HETATM    5  N   UNL     1      -9.461  14.104  67.566  1.00  0.00    -0.205 N  
BRANCH   5   6
HETATM    6  C   UNL     1      -9.208  12.876  68.492  1.00  0.00    -0.062 C  
BRANCH   6   7
HETATM    7  C   UNL     1     -10.230  11.658  68.345  1.00  0.00    -0.207 C  
BRANCH   7   8
HETATM    8  C   UNL     1     -11.062  11.430  69.703  1.00  0.00    -0.174 C  
BRANCH   8   9
HETATM    9  N   UNL     1     -11.875  12.600  70.079  1.00  0.00    -0.481 N  
HETATM   10  C   UNL     1     -12.765  12.541  71.121  1.00  0.00    -0.245 C  
HETATM   11  H   UNL     1     -11.774  13.469  69.555  1.00  0.00     0.000 HD 
HETATM   12  O   UNL     1     -12.939  11.587  71.860  1.00  0.00    -0.440 OA 
BRANCH  10  13
HETATM   13  O   UNL     1     -13.424  13.727  71.229  1.00  0.00    -0.272 OA 
BRANCH  13  14
HETATM   14  C   UNL     1     -13.431  14.299  72.549  1.00  0.00    -0.515 C  
HETATM   15  C   UNL     1     -12.079  14.799  73.006  1.00  0.00    -0.292 C  
HETATM   16  O   UNL     1     -13.649  16.498  73.475  1.00  0.00    -0.473 OA 
HETATM   17  C   UNL     1     -12.434  15.915  73.957  1.00  0.00    -0.638 C  
HETATM   18  C   UNL     1     -14.266  15.574  72.567  1.00  0.00    -0.415 C  
ENDBRANCH  13  14
ENDBRANCH  10  13
ENDBRANCH   8   9
BRANCH   8  19
HETATM   19  C   UNL     1     -11.884  10.125  69.826  1.00  0.00    -0.158 C  
BRANCH  19  20
HETATM   20  C   UNL     1     -11.191   8.910  70.381  1.00  0.00    -0.259 A  
HETATM   21  C   UNL     1     -10.226   7.700  72.249  1.00  0.00    -0.268 A  
HETATM   22  C   UNL     1      -9.895   6.900  69.994  1.00  0.00    -0.180 A  
HETATM   23  C   UNL     1     -10.654   7.961  69.504  1.00  0.00    -0.220 A  
HETATM   24  C   UNL     1     -10.978   8.768  71.760  1.00  0.00    -0.415 A  
HETATM   25  C   UNL     1      -9.678   6.771  71.365  1.00  0.00    -0.177 A  
ENDBRANCH  19  20
ENDBRANCH   8  19
ENDBRANCH   7   8
BRANCH   7  26
HETATM   26  O   UNL     1      -9.603  10.463  67.749  1.00  0.00    -0.150 OA 
HETATM   27  O   UNL     1     -10.028   9.968  64.536  1.00  0.00    -0.287 OA 
HETATM   28  O   UNL     1      -8.456  11.055  65.830  1.00  0.00    -0.169 OA 
HETATM   29  O   UNL     1     -10.876  11.426  65.904  1.00  0.00    -0.272 OA 
HETATM   30  P   UNL     1      -9.827  10.202  66.054  1.00  0.00    -0.260 P  
ENDBRANCH   7  26
ENDBRANCH   6   7
ENDBRANCH   5   6
BRANCH   5  31
HETATM   31  S   UNL     1     -10.656  15.117  68.248  1.00  0.00    -0.249 S  
HETATM   32  O   UNL     1     -10.503  15.135  69.687  1.00  0.00    -0.247 OA 
HETATM   33  O   UNL     1     -11.937  14.726  67.694  1.00  0.00    -0.345 OA 
BRANCH  31  34
HETATM   34  C   UNL     1     -10.379  16.771  67.729  1.00  0.00    -0.318 A  
HETATM   35  N   UNL     1      -9.950  20.792  66.662  1.00  0.00    -0.508 NA 
HETATM   36  C   UNL     1     -10.498  17.133  66.388  1.00  0.00    -0.255 A  
HETATM   37  H1  UNL     1      -9.739  21.495  67.371  1.00  0.00     0.000 HD 
HETATM   38  H2  UNL     1     -10.806  21.070  66.182  1.00  0.00     0.000 HD 
HETATM   39  C   UNL     1     -10.260  17.750  68.718  1.00  0.00    -0.373 A  
HETATM   40  C   UNL     1     -10.105  19.080  68.357  1.00  0.00    -0.471 A  
HETATM   41  C   UNL     1     -10.350  18.476  66.037  1.00  0.00    -0.423 A  
HETATM   42  C   UNL     1     -10.060  19.442  67.010  1.00  0.00    -0.387 A  
ENDBRANCH  31  34
ENDBRANCH   5  31
ENDBRANCH   4   5
TORSDOF 12
ENDMDL
MODEL       49
REMARK 921   NORMALIZED FREE ENERGY PREDICTED BY IDOCK:   -6.27 KCAL/MOL
REMARK 922        TOTAL FREE ENERGY PREDICTED BY IDOCK:  -13.47 KCAL/MOL
REMARK 923 INTER-LIGAND FREE ENERGY PREDICTED BY IDOCK:  -11.56 KCAL/MOL
REMARK 924 INTRA-LIGAND FREE ENERGY PREDICTED BY IDOCK:   -1.91 KCAL/MOL
REMARK 927      BINDING AFFINITY PREDICTED BY RF-SCORE:    0.00 PKD
ROOT
HETATM    1  C   UNL     1     -11.664  15.281  72.424  1.00  0.00    -0.538 C  
HETATM    2  C   UNL     1     -12.804  14.540  71.744  1.00  0.00    -0.415 C  
HETATM    3  C   UNL     1     -13.986  15.432  71.359  1.00  0.00    -0.565 C  
HETATM    4  C   UNL     1     -12.580  13.459  70.682  1.00  0.00    -0.253 C  
ENDROOT
BRANCH   4   5
HETATM    5  N   UNL     1     -11.496  13.375  69.659  1.00  0.00    -0.241 N  
BRANCH   5   6
HETATM    6  C   UNL     1     -11.752  12.070  68.848  1.00  0.00    -0.326 C  
BRANCH   6   7
HETATM    7  C   UNL     1     -11.652  10.700  69.661  1.00  0.00    -0.296 C  
BRANCH   7   8
HETATM    8  C   UNL     1     -10.712   9.640  68.902  1.00  0.00    -0.206 C  
BRANCH   8   9
HETATM    9  N   UNL     1     -10.937   8.253  69.349  1.00  0.00    -0.431 N  
HETATM   10  C   UNL     1      -9.891   7.449  69.725  1.00  0.00    -0.171 C  
HETATM   11  H   UNL     1     -11.888   7.885  69.379  1.00  0.00     0.000 HD 
HETATM   12  O   UNL     1      -8.720   7.783  69.789  1.00  0.00    -0.137 OA 
BRANCH  10  13
HETATM   13  O   UNL     1     -10.355   6.210  70.041  1.00  0.00    -0.183 OA 
BRANCH  13  14
HETATM   14  C   UNL     1     -10.187   5.833  71.420  1.00  0.00    -0.216 C  
HETATM   15  C   UNL     1     -11.456   5.925  72.237  1.00  0.00    -0.351 C  
HETATM   16  O   UNL     1     -10.469   3.832  72.708  1.00  0.00    -0.164 OA 
HETATM   17  C   UNL     1     -11.249   4.875  73.302  1.00  0.00    -0.345 C  
HETATM   18  C   UNL     1      -9.847   4.350  71.523  1.00  0.00    -0.189 C  
ENDBRANCH  13  14
ENDBRANCH  10  13
ENDBRANCH   8   9
BRANCH   8  19
HETATM   19  C   UNL     1     -10.648   9.718  67.359  1.00  0.00    -0.330 C  
BRANCH  19  20
HETATM   20  C   UNL     1      -9.348  10.146  66.732  1.00  0.00    -0.190 A  
HETATM   21  C   UNL     1      -7.664   9.918  65.001  1.00  0.00    -0.133 A  
HETATM   22  C   UNL     1      -7.233  11.311  66.927  1.00  0.00    -0.142 A  
HETATM   23  C   UNL     1      -8.497  11.009  67.430  1.00  0.00    -0.132 A  
HETATM   24  C   UNL     1      -8.926   9.608  65.508  1.00  0.00    -0.223 A  
HETATM   25  C   UNL     1      -6.816  10.764  65.715  1.00  0.00    -0.054 A  
ENDBRANCH  19  20
ENDBRANCH   8  19
ENDBRANCH   7   8
BRANCH   7  26
HETATM   26  O   UNL     1     -12.970  10.210  70.107  1.00  0.00    -0.094 OA 
HETATM   27  O   UNL     1     -13.149   8.814  73.068  1.00  0.00    -0.292 OA 
HETATM   28  O   UNL     1     -13.400  10.958  72.253  1.00  0.00    -0.380 OA 
HETATM   29  O   UNL     1     -11.461   9.506  71.891  1.00  0.00    -0.355 OA 
HETATM   30  P   UNL     1     -13.064   9.473  71.670  1.00  0.00    -0.448 P  
ENDBRANCH   7  26
ENDBRANCH   6   7
ENDBRANCH   5   6
BRANCH   5  31
HETATM   31  S   UNL     1     -10.955  14.618  68.619  1.00  0.00    -0.268 S  
HETATM   32  O   UNL     1      -9.535  14.821  68.815  1.00  0.00    -0.201 OA 
HETATM   33  O   UNL     1     -11.843  15.751  68.783  1.00  0.00    -0.387 OA 
BRANCH  31  34
HETATM   34  C   UNL     1     -11.125  14.094  66.952  1.00  0.00    -0.307 A  
HETATM   35  N   UNL     1     -11.698  12.623  63.080  1.00  0.00    -0.759 NA 
HETATM   36  C   UNL     1     -10.016  13.691  66.210  1.00  0.00    -0.305 A  
HETATM   37  H1  UNL     1     -12.634  12.580  62.677  1.00  0.00     0.000 HD 
HETATM   38  H2  UNL     1     -11.295  11.685  63.051  1.00  0.00     0.000 HD 
HETATM   39  C   UNL     1     -12.417  13.879  66.468  1.00  0.00    -0.364 A  
HETATM   40  C   UNL     1     -12.600  13.402  65.179  1.00  0.00    -0.495 A  
HETATM   41  C   UNL     1     -10.213  13.204  64.916  1.00  0.00    -0.306 A  
HETATM   42  C   UNL     1     -11.499  13.146  64.362  1.00  0.00    -0.366 A  
ENDBRANCH  31  34
ENDBRANCH   5  31
ENDBRANCH   4   5
TORSDOF 12
ENDMDL
MODEL       50
REMARK 921   NORMALIZED FREE ENERGY PREDICTED BY IDOCK:   -6.26 KCAL/MOL
REMARK 922        TOTAL FREE ENERGY PREDICTED BY IDOCK:  -13.46 KCAL/MOL
REMARK 923 INTER-LIGAND FREE ENERGY PREDICTED BY IDOCK:  -11.66 KCAL/MOL
REMARK 924 INTRA-LIGAND FREE ENERGY PREDICTED BY IDOCK:   -1.80 KCAL/MOL
REMARK 927      BINDING AFFINITY PREDICTED BY RF-SCORE:    0.00 PKD
ROOT
HETATM    1  C   UNL     1     -12.507  12.504  64.639  1.00  0.00    -0.539 C  
HETATM    2  C   UNL     1     -11.201  13.278  64.699  1.00  0.00    -0.370 C  
HETATM    3  C   UNL     1     -11.373  14.797  64.626  1.00  0.00    -0.370 C  
HETATM    4  C   UNL     1     -10.058  12.914  65.654  1.00  0.00    -0.272 C  
ENDROOT
BRANCH   4   5
HETATM    5  N   UNL     1     -10.147  12.338  67.027  1.00  0.00    -0.212 N  
BRANCH   5   6
HETATM    6  C   UNL     1     -10.619  13.491  67.962  1.00  0.00    -0.239 C  
BRANCH   6   7
HETATM    7  C   UNL     1      -9.481  14.470  68.507  1.00  0.00    -0.211 C  
BRANCH   7   8
HETATM    8  C   UNL     1     -10.112  15.679  69.358  1.00  0.00    -0.269 C  
BRANCH   8   9
HETATM    9  N   UNL     1      -9.596  16.998  68.949  1.00  0.00    -0.266 N  
HETATM   10  C   UNL     1     -10.049  17.616  67.811  1.00  0.00    -0.338 C  
HETATM   11  H   UNL     1      -8.890  17.459  69.522  1.00  0.00     0.000 HD 
HETATM   12  O   UNL     1     -10.927  17.201  67.074  1.00  0.00    -0.113 OA 
BRANCH  10  13
HETATM   13  O   UNL     1      -9.382  18.788  67.629  1.00  0.00    -0.287 OA 
BRANCH  13  14
HETATM   14  C   UNL     1      -7.948  18.675  67.617  1.00  0.00    -0.246 C  
HETATM   15  C   UNL     1      -7.308  19.141  66.329  1.00  0.00    -0.278 C  
HETATM   16  O   UNL     1      -6.099  20.119  68.105  1.00  0.00    -0.229 OA 
HETATM   17  C   UNL     1      -5.945  19.608  66.778  1.00  0.00    -0.172 C  
HETATM   18  C   UNL     1      -7.336  19.625  68.640  1.00  0.00    -0.340 C  
ENDBRANCH  13  14
ENDBRANCH  10  13
ENDBRANCH   8   9
BRANCH   8  19
HETATM   19  C   UNL     1     -11.651  15.715  69.516  1.00  0.00    -0.366 C  
BRANCH  19  20
HETATM   20  C   UNL     1     -12.223  15.408  70.874  1.00  0.00    -0.425 A  
HETATM   21  C   UNL     1     -12.319  15.809  73.265  1.00  0.00    -0.611 A  
HETATM   22  C   UNL     1     -13.450  13.897  72.317  1.00  0.00    -0.623 A  
HETATM   23  C   UNL     1     -13.021  14.270  71.045  1.00  0.00    -0.411 A  
HETATM   24  C   UNL     1     -11.881  16.180  71.993  1.00  0.00    -0.615 A  
HETATM   25  C   UNL     1     -13.096  14.663  73.426  1.00  0.00    -0.385 A  
ENDBRANCH  19  20
ENDBRANCH   8  19
ENDBRANCH   7   8
BRANCH   7  26
HETATM   26  O   UNL     1      -8.505  14.839  67.464  1.00  0.00    -0.167 OA 
HETATM   27  O   UNL     1      -5.322  14.515  68.178  1.00  0.00    -0.108 OA 
HETATM   28  O   UNL     1      -6.932  13.159  67.232  1.00  0.00    -0.138 OA 
HETATM   29  O   UNL     1      -7.110  14.302  69.392  1.00  0.00    -0.132 OA 
HETATM   30  P   UNL     1      -6.826  14.668  67.841  1.00  0.00    -0.185 P  
ENDBRANCH   7  26
ENDBRANCH   6   7
ENDBRANCH   5   6
BRANCH   5  31
HETATM   31  S   UNL     1     -10.886  10.868  67.489  1.00  0.00    -0.290 S  
HETATM   32  O   UNL     1     -10.746   9.905  66.416  1.00  0.00    -0.099 OA 
HETATM   33  O   UNL     1     -12.218  11.174  67.972  1.00  0.00    -0.584 OA 
BRANCH  31  34
HETATM   34  C   UNL     1     -10.014  10.181  68.848  1.00  0.00    -0.199 A  
HETATM   35  N   UNL     1      -8.069   8.747  72.261  1.00  0.00    -0.379 NA 
HETATM   36  C   UNL     1      -8.621  10.222  68.902  1.00  0.00    -0.150 A  
HETATM   37  H1  UNL     1      -8.605   8.353  73.034  1.00  0.00     0.000 HD 
HETATM   38  H2  UNL     1      -7.498   9.510  72.626  1.00  0.00     0.000 HD 
HETATM   39  C   UNL     1     -10.754   9.801  69.970  1.00  0.00    -0.326 A  
HETATM   40  C   UNL     1     -10.104   9.315  71.094  1.00  0.00    -0.374 A  
HETATM   41  C   UNL     1      -7.977   9.738  70.043  1.00  0.00    -0.196 A  
HETATM   42  C   UNL     1      -8.714   9.196  71.104  1.00  0.00    -0.143 A  
ENDBRANCH  31  34
ENDBRANCH   5  31
ENDBRANCH   4   5
TORSDOF 12
ENDMDL
MODEL       51
REMARK 921   NORMALIZED FREE ENERGY PREDICTED BY IDOCK:   -6.23 KCAL/MOL
REMARK 922        TOTAL FREE ENERGY PREDICTED BY IDOCK:  -13.41 KCAL/MOL
REMARK 923 INTER-LIGAND FREE ENERGY PREDICTED BY IDOCK:  -11.40 KCAL/MOL
REMARK 924 INTRA-LIGAND FREE ENERGY PREDICTED BY IDOCK:   -2.00 KCAL/MOL
REMARK 927      BINDING AFFINITY PREDICTED BY RF-SCORE:    0.00 PKD
ROOT
HETATM    1  C   UNL     1     -10.513   7.578  67.206  1.00  0.00    -0.391 C  
HETATM    2  C   UNL     1      -9.298   8.417  66.841  1.00  0.00    -0.221 C  
HETATM    3  C   UNL     1      -9.483   9.267  65.583  1.00  0.00    -0.324 C  
HETATM    4  C   UNL     1      -8.464   9.173  67.881  1.00  0.00    -0.117 C  
ENDROOT
BRANCH   4   5
HETATM    5  N   UNL     1      -8.923   9.815  69.147  1.00  0.00    -0.151 N  
BRANCH   5   6
HETATM    6  C   UNL     1     -10.193  10.644  68.788  1.00  0.00    -0.190 C  
BRANCH   6   7
HETATM    7  C   UNL     1      -9.960  12.188  68.458  1.00  0.00    -0.175 C  
BRANCH   7   8
HETATM    8  C   UNL     1     -11.330  13.022  68.578  1.00  0.00    -0.288 C  
BRANCH   8   9
HETATM    9  N   UNL     1     -12.096  13.048  67.319  1.00  0.00    -0.312 N  
HETATM   10  C   UNL     1     -12.049  14.133  66.481  1.00  0.00    -0.454 C  
HETATM   11  H   UNL     1     -12.670  12.244  67.066  1.00  0.00     0.000 HD 
HETATM   12  O   UNL     1     -11.360  15.127  66.637  1.00  0.00    -0.320 OA 
BRANCH  10  13
HETATM   13  O   UNL     1     -12.879  13.931  65.422  1.00  0.00    -0.662 OA 
BRANCH  13  14
HETATM   14  C   UNL     1     -12.230  13.472  64.222  1.00  0.00    -0.396 C  
HETATM   15  C   UNL     1     -10.738  13.275  64.371  1.00  0.00    -0.432 C  
HETATM   16  O   UNL     1     -11.597  11.349  63.308  1.00  0.00    -0.233 OA 
HETATM   17  C   UNL     1     -10.439  12.188  63.367  1.00  0.00    -0.412 C  
HETATM   18  C   UNL     1     -12.705  12.066  63.872  1.00  0.00    -0.354 C  
ENDBRANCH  13  14
ENDBRANCH  10  13
ENDBRANCH   8   9
BRANCH   8  19
HETATM   19  C   UNL     1     -12.254  12.709  69.779  1.00  0.00    -0.209 C  
BRANCH  19  20
HETATM   20  C   UNL     1     -12.386  13.755  70.853  1.00  0.00    -0.456 A  
HETATM   21  C   UNL     1     -13.455  14.594  72.862  1.00  0.00    -0.528 A  
HETATM   22  C   UNL     1     -11.940  16.009  71.622  1.00  0.00    -0.569 A  
HETATM   23  C   UNL     1     -11.725  14.980  70.707  1.00  0.00    -0.371 A  
HETATM   24  C   UNL     1     -13.248  13.566  71.942  1.00  0.00    -0.510 A  
HETATM   25  C   UNL     1     -12.807  15.817  72.697  1.00  0.00    -0.554 A  
ENDBRANCH  19  20
ENDBRANCH   8  19
ENDBRANCH   7   8
BRANCH   7  26
HETATM   26  O   UNL     1      -9.172  12.391  67.228  1.00  0.00    -0.176 OA 
HETATM   27  O   UNL     1      -6.769  14.620  67.313  1.00  0.00    -0.280 OA 
HETATM   28  O   UNL     1      -6.914  12.354  67.728  1.00  0.00    -0.093 OA 
HETATM   29  O   UNL     1      -8.307  14.090  68.751  1.00  0.00    -0.135 OA 
HETATM   30  P   UNL     1      -7.904  13.567  67.273  1.00  0.00     0.074 P  
ENDBRANCH   7  26
ENDBRANCH   6   7
ENDBRANCH   5   6
BRANCH   5  31
HETATM   31  S   UNL     1      -9.116   9.075  70.675  1.00  0.00    -0.254 S  
HETATM   32  O   UNL     1     -10.396   9.460  71.234  1.00  0.00    -0.317 OA 
HETATM   33  O   UNL     1      -7.919   9.336  71.449  1.00  0.00    -0.335 OA 
BRANCH  31  34
HETATM   34  C   UNL     1      -9.202   7.334  70.470  1.00  0.00    -0.158 A  
HETATM   35  N   UNL     1      -9.522   3.170  70.254  1.00  0.00    -0.167 NA 
HETATM   36  C   UNL     1      -8.046   6.574  70.300  1.00  0.00    -0.121 A  
HETATM   37  H1  UNL     1     -10.435   2.719  70.303  1.00  0.00     0.000 HD 
HETATM   38  H2  UNL     1      -8.935   2.784  70.995  1.00  0.00     0.000 HD 
HETATM   39  C   UNL     1     -10.430   6.712  70.707  1.00  0.00    -0.251 A  
HETATM   40  C   UNL     1     -10.532   5.332  70.621  1.00  0.00    -0.306 A  
HETATM   41  C   UNL     1      -8.159   5.184  70.225  1.00  0.00    -0.086 A  
HETATM   42  C   UNL     1      -9.414   4.564  70.292  1.00  0.00    -0.171 A  
ENDBRANCH  31  34
ENDBRANCH   5  31
ENDBRANCH   4   5
TORSDOF 12
ENDMDL
MODEL       52
REMARK 921   NORMALIZED FREE ENERGY PREDICTED BY IDOCK:   -6.23 KCAL/MOL
REMARK 922        TOTAL FREE ENERGY PREDICTED BY IDOCK:  -13.41 KCAL/MOL
REMARK 923 INTER-LIGAND FREE ENERGY PREDICTED BY IDOCK:  -10.70 KCAL/MOL
REMARK 924 INTRA-LIGAND FREE ENERGY PREDICTED BY IDOCK:   -2.71 KCAL/MOL
REMARK 927      BINDING AFFINITY PREDICTED BY RF-SCORE:    0.00 PKD
ROOT
HETATM    1  C   UNL     1     -10.445  13.740  64.617  1.00  0.00    -0.433 C  
HETATM    2  C   UNL     1     -11.208  12.458  64.906  1.00  0.00    -0.353 C  
HETATM    3  C   UNL     1     -11.902  11.856  63.682  1.00  0.00    -0.573 C  
HETATM    4  C   UNL     1     -10.663  11.348  65.812  1.00  0.00    -0.251 C  
ENDROOT
BRANCH   4   5
HETATM    5  N   UNL     1      -9.246  10.923  66.004  1.00  0.00    -0.181 N  
BRANCH   5   6
HETATM    6  C   UNL     1      -8.931  11.098  67.520  1.00  0.00    -0.139 C  
BRANCH   6   7
HETATM    7  C   UNL     1     -10.005  11.914  68.374  1.00  0.00    -0.203 C  
BRANCH   7   8
HETATM    8  C   UNL     1      -9.768  13.500  68.246  1.00  0.00    -0.224 C  
BRANCH   8   9
HETATM    9  N   UNL     1     -10.560  14.277  69.215  1.00  0.00    -0.390 N  
HETATM   10  C   UNL     1     -11.797  14.772  68.887  1.00  0.00    -0.296 C  
HETATM   11  H   UNL     1     -10.183  14.450  70.147  1.00  0.00     0.000 HD 
HETATM   12  O   UNL     1     -12.384  14.588  67.834  1.00  0.00    -0.188 OA 
BRANCH  10  13
HETATM   13  O   UNL     1     -12.294  15.492  69.929  1.00  0.00    -0.357 OA 
BRANCH  13  14
HETATM   14  C   UNL     1     -12.078  14.910  71.227  1.00  0.00    -0.330 C  
HETATM   15  C   UNL     1     -12.021  15.922  72.349  1.00  0.00    -0.620 C  
HETATM   16  O   UNL     1     -13.461  14.184  73.044  1.00  0.00    -0.661 OA 
HETATM   17  C   UNL     1     -12.512  15.134  73.540  1.00  0.00    -0.540 C  
HETATM   18  C   UNL     1     -13.276  14.055  71.627  1.00  0.00    -0.368 C  
ENDBRANCH  13  14
ENDBRANCH  10  13
ENDBRANCH   8   9
BRANCH   8  19
HETATM   19  C   UNL     1      -8.305  14.001  68.202  1.00  0.00    -0.164 C  
BRANCH  19  20
HETATM   20  C   UNL     1      -8.073  15.462  67.920  1.00  0.00    -0.148 A  
HETATM   21  C   UNL     1      -7.895  17.308  66.356  1.00  0.00    -0.345 A  
HETATM   22  C   UNL     1      -7.238  17.612  68.660  1.00  0.00    -0.255 A  
HETATM   23  C   UNL     1      -7.584  16.291  68.936  1.00  0.00    -0.212 A  
HETATM   24  C   UNL     1      -8.234  15.982  66.628  1.00  0.00    -0.324 A  
HETATM   25  C   UNL     1      -7.390  18.119  67.371  1.00  0.00    -0.219 A  
ENDBRANCH  19  20
ENDBRANCH   8  19
ENDBRANCH   7   8
BRANCH   7  26
HETATM   26  O   UNL     1     -10.163  11.382  69.741  1.00  0.00     0.240 OA 
HETATM   27  O   UNL     1     -13.090  10.153  70.563  1.00  0.00    -0.288 OA 
HETATM   28  O   UNL     1     -11.150   9.291  69.657  1.00  0.00    -0.212 OA 
HETATM   29  O   UNL     1     -12.405  11.209  68.793  1.00  0.00    -0.539 OA 
HETATM   30  P   UNL     1     -11.708  10.733  70.174  1.00  0.00    -0.382 P  
ENDBRANCH   7  26
ENDBRANCH   6   7
ENDBRANCH   5   6
BRANCH   5  31
HETATM   31  S   UNL     1      -8.500   9.505  65.410  1.00  0.00    -0.158 S  
HETATM   32  O   UNL     1      -7.062   9.635  65.529  1.00  0.00    -0.090 OA 
HETATM   33  O   UNL     1      -9.061   9.223  64.104  1.00  0.00    -0.166 OA 
BRANCH  31  34
HETATM   34  C   UNL     1      -8.931   8.148  66.436  1.00  0.00    -0.171 A  
HETATM   35  N   UNL     1     -10.152   5.094  69.019  1.00  0.00    -0.195 NA 
HETATM   36  C   UNL     1      -7.992   7.562  67.284  1.00  0.00    -0.118 A  
HETATM   37  H1  UNL     1     -11.118   4.768  69.013  1.00  0.00     0.000 HD 
HETATM   38  H2  UNL     1      -9.922   5.392  69.968  1.00  0.00     0.000 HD 
HETATM   39  C   UNL     1     -10.285   7.821  66.546  1.00  0.00    -0.195 A  
HETATM   40  C   UNL     1     -10.681   6.800  67.394  1.00  0.00    -0.405 A  
HETATM   41  C   UNL     1      -8.405   6.540  68.142  1.00  0.00    -0.116 A  
HETATM   42  C   UNL     1      -9.732   6.092  68.133  1.00  0.00    -0.127 A  
ENDBRANCH  31  34
ENDBRANCH   5  31
ENDBRANCH   4   5
TORSDOF 12
ENDMDL
MODEL       53
REMARK 921   NORMALIZED FREE ENERGY PREDICTED BY IDOCK:   -6.22 KCAL/MOL
REMARK 922        TOTAL FREE ENERGY PREDICTED BY IDOCK:  -13.38 KCAL/MOL
REMARK 923 INTER-LIGAND FREE ENERGY PREDICTED BY IDOCK:  -10.46 KCAL/MOL
REMARK 924 INTRA-LIGAND FREE ENERGY PREDICTED BY IDOCK:   -2.92 KCAL/MOL
REMARK 927      BINDING AFFINITY PREDICTED BY RF-SCORE:    0.00 PKD
ROOT
HETATM    1  C   UNL     1      -5.917  10.174  68.660  1.00  0.00    -0.041 C  
HETATM    2  C   UNL     1      -7.245  10.897  68.823  1.00  0.00    -0.091 C  
HETATM    3  C   UNL     1      -7.164  12.408  68.597  1.00  0.00    -0.104 C  
HETATM    4  C   UNL     1      -8.568  10.344  68.282  1.00  0.00    -0.128 C  
ENDROOT
BRANCH   4   5
HETATM    5  N   UNL     1      -8.798   9.536  67.049  1.00  0.00    -0.127 N  
BRANCH   5   6
HETATM    6  C   UNL     1     -10.195   8.865  67.213  1.00  0.00    -0.258 C  
BRANCH   6   7
HETATM    7  C   UNL     1     -10.228   7.489  68.022  1.00  0.00    -0.195 C  
BRANCH   7   8
HETATM    8  C   UNL     1     -10.871   7.689  69.482  1.00  0.00    -0.165 C  
BRANCH   8   9
HETATM    9  N   UNL     1     -11.635   8.943  69.605  1.00  0.00    -0.312 N  
HETATM   10  C   UNL     1     -11.593   9.692  70.753  1.00  0.00    -0.321 C  
HETATM   11  H   UNL     1     -12.206   9.260  68.821  1.00  0.00     0.000 HD 
HETATM   12  O   UNL     1     -10.909   9.456  71.735  1.00  0.00    -0.354 OA 
BRANCH  10  13
HETATM   13  O   UNL     1     -12.420  10.766  70.632  1.00  0.00    -0.317 OA 
BRANCH  13  14
HETATM   14  C   UNL     1     -11.779  11.980  70.202  1.00  0.00    -0.233 C  
HETATM   15  C   UNL     1     -11.967  12.283  68.733  1.00  0.00    -0.281 C  
HETATM   16  O   UNL     1     -12.430  14.269  69.923  1.00  0.00    -0.337 OA 
HETATM   17  C   UNL     1     -11.892  13.790  68.686  1.00  0.00    -0.374 C  
HETATM   18  C   UNL     1     -12.436  13.186  70.865  1.00  0.00    -0.323 C  
ENDBRANCH  13  14
ENDBRANCH  10  13
ENDBRANCH   8   9
BRANCH   8  19
HETATM   19  C   UNL     1     -11.660   6.502  70.084  1.00  0.00    -0.466 C  
BRANCH  19  20
HETATM   20  C   UNL     1     -10.999   5.701  71.174  1.00  0.00    -0.248 A  
HETATM   21  C   UNL     1      -9.430   3.992  71.882  1.00  0.00    -0.201 A  
HETATM   22  C   UNL     1     -10.999   4.920  73.467  1.00  0.00    -0.397 A  
HETATM   23  C   UNL     1     -11.512   5.753  72.475  1.00  0.00    -0.349 A  
HETATM   24  C   UNL     1      -9.949   4.819  70.885  1.00  0.00    -0.283 A  
HETATM   25  C   UNL     1      -9.961   4.038  73.170  1.00  0.00    -0.196 A  
ENDBRANCH  19  20
ENDBRANCH   8  19
ENDBRANCH   7   8
BRANCH   7  26
HETATM   26  O   UNL     1      -8.944   6.766  67.961  1.00  0.00    -0.120 OA 
HETATM   27  O   UNL     1      -8.874   3.928  66.322  1.00  0.00    -0.115 OA 
HETATM   28  O   UNL     1      -8.499   6.140  65.779  1.00  0.00    -0.137 OA 
HETATM   29  O   UNL     1     -10.509   5.251  66.862  1.00  0.00    -0.245 OA 
HETATM   30  P   UNL     1      -8.908   5.269  67.096  1.00  0.00    -0.108 P  
ENDBRANCH   7  26
ENDBRANCH   6   7
ENDBRANCH   5   6
BRANCH   5  31
HETATM   31  S   UNL     1      -8.569  10.028  65.428  1.00  0.00    -0.160 S  
HETATM   32  O   UNL     1      -8.877   8.922  64.545  1.00  0.00    -0.144 OA 
HETATM   33  O   UNL     1      -7.260  10.643  65.333  1.00  0.00    -0.110 OA 
BRANCH  31  34
HETATM   34  C   UNL     1      -9.733  11.280  65.032  1.00  0.00    -0.251 A  
HETATM   35  N   UNL     1     -12.379  14.284  63.820  1.00  0.00    -1.063 NA 
HETATM   36  C   UNL     1      -9.760  12.484  65.736  1.00  0.00    -0.196 A  
HETATM   37  H1  UNL     1     -13.010  14.129  63.035  1.00  0.00     0.000 HD 
HETATM   38  H2  UNL     1     -11.821  15.115  63.622  1.00  0.00     0.000 HD 
HETATM   39  C   UNL     1     -10.473  11.131  63.857  1.00  0.00    -0.445 A  
HETATM   40  C   UNL     1     -11.357  12.125  63.467  1.00  0.00    -0.535 A  
HETATM   41  C   UNL     1     -10.648  13.481  65.329  1.00  0.00    -0.335 A  
HETATM   42  C   UNL     1     -11.516  13.269  64.250  1.00  0.00    -0.396 A  
ENDBRANCH  31  34
ENDBRANCH   5  31
ENDBRANCH   4   5
TORSDOF 12
ENDMDL
MODEL       54
REMARK 921   NORMALIZED FREE ENERGY PREDICTED BY IDOCK:   -6.22 KCAL/MOL
REMARK 922        TOTAL FREE ENERGY PREDICTED BY IDOCK:  -13.38 KCAL/MOL
REMARK 923 INTER-LIGAND FREE ENERGY PREDICTED BY IDOCK:  -11.32 KCAL/MOL
REMARK 924 INTRA-LIGAND FREE ENERGY PREDICTED BY IDOCK:   -2.06 KCAL/MOL
REMARK 927      BINDING AFFINITY PREDICTED BY RF-SCORE:    0.00 PKD
ROOT
HETATM    1  C   UNL     1     -13.242   9.168  70.696  1.00  0.00     0.344 C  
HETATM    2  C   UNL     1     -13.067  10.678  70.674  1.00  0.00    -0.242 C  
HETATM    3  C   UNL     1     -12.916  11.308  72.060  1.00  0.00    -0.379 C  
HETATM    4  C   UNL     1     -12.177  11.400  69.657  1.00  0.00    -0.249 C  
ENDROOT
BRANCH   4   5
HETATM    5  N   UNL     1     -10.903  10.926  69.040  1.00  0.00    -0.214 N  
BRANCH   5   6
HETATM    6  C   UNL     1     -10.137  12.199  68.572  1.00  0.00    -0.187 C  
BRANCH   6   7
HETATM    7  C   UNL     1     -10.946  13.207  67.634  1.00  0.00    -0.262 C  
BRANCH   7   8
HETATM    8  C   UNL     1     -11.261  14.586  68.398  1.00  0.00    -0.271 C  
BRANCH   8   9
HETATM    9  N   UNL     1     -10.914  15.775  67.599  1.00  0.00    -0.314 N  
HETATM   10  C   UNL     1     -10.058  16.731  68.083  1.00  0.00    -0.282 C  
HETATM   11  H   UNL     1     -11.317  15.888  66.669  1.00  0.00     0.000 HD 
HETATM   12  O   UNL     1      -9.466  16.687  69.148  1.00  0.00    -0.252 OA 
BRANCH  10  13
HETATM   13  O   UNL     1      -9.944  17.744  67.181  1.00  0.00    -0.298 OA 
BRANCH  13  14
HETATM   14  C   UNL     1      -8.653  18.378  67.141  1.00  0.00    -0.262 C  
HETATM   15  C   UNL     1      -7.655  17.676  66.248  1.00  0.00    -0.334 C  
HETATM   16  O   UNL     1      -7.560  19.978  65.731  1.00  0.00    -0.331 OA 
HETATM   17  C   UNL     1      -6.751  18.800  65.802  1.00  0.00    -0.271 C  
HETATM   18  C   UNL     1      -8.760  19.750  66.485  1.00  0.00    -0.360 C  
ENDBRANCH  13  14
ENDBRANCH  10  13
ENDBRANCH   8   9
BRANCH   8  19
HETATM   19  C   UNL     1     -12.659  14.743  69.041  1.00  0.00     0.201 C  
BRANCH  19  20
HETATM   20  C   UNL     1     -12.724  15.025  70.518  1.00  0.00    -0.406 A  
HETATM   21  C   UNL     1     -11.623  15.352  72.655  1.00  0.00    -0.504 A  
HETATM   22  C   UNL     1     -14.024  15.111  72.561  1.00  0.00    -0.585 A  
HETATM   23  C   UNL     1     -13.959  14.985  71.174  1.00  0.00    -0.451 A  
HETATM   24  C   UNL     1     -11.555  15.217  71.268  1.00  0.00    -0.430 A  
HETATM   25  C   UNL     1     -12.857  15.291  73.300  1.00  0.00    -0.634 A  
ENDBRANCH  19  20
ENDBRANCH   8  19
ENDBRANCH   7   8
BRANCH   7  26
HETATM   26  O   UNL     1     -12.082  12.558  66.953  1.00  0.00    -0.537 OA 
HETATM   27  O   UNL     1     -12.420  13.075  63.733  1.00  0.00    -0.636 OA 
HETATM   28  O   UNL     1     -11.344  11.499  65.033  1.00  0.00    -0.215 OA 
HETATM   29  O   UNL     1     -11.071  13.928  65.206  1.00  0.00    -0.301 OA 
HETATM   30  P   UNL     1     -12.260  12.830  65.254  1.00  0.00    -0.426 P  
ENDBRANCH   7  26
ENDBRANCH   6   7
ENDBRANCH   5   6
BRANCH   5  31
HETATM   31  S   UNL     1      -9.807   9.780  69.676  1.00  0.00    -0.234 S  
HETATM   32  O   UNL     1     -10.103   9.562  71.076  1.00  0.00    -0.286 OA 
HETATM   33  O   UNL     1      -8.468  10.199  69.311  1.00  0.00    -0.139 OA 
BRANCH  31  34
HETATM   34  C   UNL     1     -10.069   8.230  68.896  1.00  0.00    -0.199 A  
HETATM   35  N   UNL     1     -10.409   4.473  67.090  1.00  0.00    -0.102 NA 
HETATM   36  C   UNL     1     -10.429   8.155  67.551  1.00  0.00    -0.326 A  
HETATM   37  H1  UNL     1     -10.252   3.624  67.633  1.00  0.00     0.000 HD 
HETATM   38  H2  UNL     1      -9.774   4.464  66.292  1.00  0.00     0.000 HD 
HETATM   39  C   UNL     1      -9.690   7.081  69.592  1.00  0.00    -0.157 A  
HETATM   40  C   UNL     1      -9.817   5.837  68.993  1.00  0.00    -0.204 A  
HETATM   41  C   UNL     1     -10.545   6.897  66.955  1.00  0.00    -0.372 A  
HETATM   42  C   UNL     1     -10.329   5.730  67.699  1.00  0.00    -0.217 A  
ENDBRANCH  31  34
ENDBRANCH   5  31
ENDBRANCH   4   5
TORSDOF 12
ENDMDL
MODEL       55
REMARK 921   NORMALIZED FREE ENERGY PREDICTED BY IDOCK:   -6.19 KCAL/MOL
REMARK 922        TOTAL FREE ENERGY PREDICTED BY IDOCK:  -13.33 KCAL/MOL
REMARK 923 INTER-LIGAND FREE ENERGY PREDICTED BY IDOCK:  -11.50 KCAL/MOL
REMARK 924 INTRA-LIGAND FREE ENERGY PREDICTED BY IDOCK:   -1.82 KCAL/MOL
REMARK 927      BINDING AFFINITY PREDICTED BY RF-SCORE:    0.00 PKD
ROOT
HETATM    1  C   UNL     1      -7.572   8.116  67.815  1.00  0.00    -0.098 C  
HETATM    2  C   UNL     1      -7.192   9.466  68.400  1.00  0.00    -0.076 C  
HETATM    3  C   UNL     1      -5.967  10.107  67.744  1.00  0.00    -0.049 C  
HETATM    4  C   UNL     1      -8.225  10.537  68.767  1.00  0.00    -0.134 C  
ENDROOT
BRANCH   4   5
HETATM    5  N   UNL     1      -9.525  10.838  68.098  1.00  0.00    -0.153 N  
BRANCH   5   6
HETATM    6  C   UNL     1      -9.182  11.307  66.653  1.00  0.00    -0.180 C  
BRANCH   6   7
HETATM    7  C   UNL     1      -9.877  12.659  66.164  1.00  0.00    -0.259 C  
BRANCH   7   8
HETATM    8  C   UNL     1      -9.321  13.927  66.982  1.00  0.00    -0.251 C  
BRANCH   8   9
HETATM    9  N   UNL     1      -9.919  15.200  66.539  1.00  0.00    -0.255 N  
HETATM   10  C   UNL     1      -9.134  16.267  66.183  1.00  0.00    -0.341 C  
HETATM   11  H   UNL     1     -10.934  15.288  66.496  1.00  0.00     0.000 HD 
HETATM   12  O   UNL     1      -7.915  16.273  66.134  1.00  0.00    -0.257 OA 
BRANCH  10  13
HETATM   13  O   UNL     1      -9.921  17.330  65.865  1.00  0.00    -0.490 OA 
BRANCH  13  14
HETATM   14  C   UNL     1      -9.496  18.588  66.422  1.00  0.00    -0.301 C  
HETATM   15  C   UNL     1     -10.343  19.764  65.991  1.00  0.00    -0.612 C  
HETATM   16  O   UNL     1     -10.076  19.912  68.333  1.00  0.00    -0.428 OA 
HETATM   17  C   UNL     1     -10.217  20.715  67.156  1.00  0.00    -0.057 C  
HETATM   18  C   UNL     1      -9.693  18.588  67.934  1.00  0.00    -0.314 C  
ENDBRANCH  13  14
ENDBRANCH  10  13
ENDBRANCH   8   9
BRANCH   8  19
HETATM   19  C   UNL     1      -9.309  13.832  68.526  1.00  0.00    -0.144 C  
BRANCH  19  20
HETATM   20  C   UNL     1     -10.501  14.370  69.271  1.00  0.00    -0.154 A  
HETATM   21  C   UNL     1     -11.524  16.063  70.676  1.00  0.00    -0.427 A  
HETATM   22  C   UNL     1     -12.685  13.989  70.246  1.00  0.00    -0.270 A  
HETATM   23  C   UNL     1     -11.627  13.559  69.448  1.00  0.00    -0.369 A  
HETATM   24  C   UNL     1     -10.460  15.630  69.884  1.00  0.00    -0.327 A  
HETATM   25  C   UNL     1     -12.633  15.238  70.862  1.00  0.00    -0.471 A  
ENDBRANCH  19  20
ENDBRANCH   8  19
ENDBRANCH   7   8
BRANCH   7  26
HETATM   26  O   UNL     1     -11.343  12.535  66.060  1.00  0.00    -0.309 OA 
HETATM   27  O   UNL     1     -12.759  13.558  63.285  1.00  0.00    -0.726 OA 
HETATM   28  O   UNL     1     -11.904  11.552  64.042  1.00  0.00    -0.265 OA 
HETATM   29  O   UNL     1     -10.715  13.694  64.006  1.00  0.00    -0.235 OA 
HETATM   30  P   UNL     1     -12.090  13.075  64.595  1.00  0.00    -0.449 P  
ENDBRANCH   7  26
ENDBRANCH   6   7
ENDBRANCH   5   6
BRANCH   5  31
HETATM   31  S   UNL     1     -10.931   9.868  68.083  1.00  0.00    -0.156 S  
HETATM   32  O   UNL     1     -10.783   8.828  67.086  1.00  0.00    -0.271 OA 
HETATM   33  O   UNL     1     -12.078  10.750  67.994  1.00  0.00    -0.474 OA 
BRANCH  31  34
HETATM   34  C   UNL     1     -11.074   9.027  69.617  1.00  0.00    -0.067 A  
HETATM   35  N   UNL     1     -11.246   7.237  73.392  1.00  0.00    -0.571 NA 
HETATM   36  C   UNL     1     -10.555   7.743  69.782  1.00  0.00    -0.241 A  
HETATM   37  H1  UNL     1     -11.681   7.725  74.175  1.00  0.00     0.000 HD 
HETATM   38  H2  UNL     1     -10.290   6.998  73.657  1.00  0.00     0.000 HD 
HETATM   39  C   UNL     1     -11.514   9.760  70.720  1.00  0.00    -0.417 A  
HETATM   40  C   UNL     1     -11.581   9.157  71.967  1.00  0.00    -0.371 A  
HETATM   41  C   UNL     1     -10.619   7.149  71.044  1.00  0.00    -0.239 A  
HETATM   42  C   UNL     1     -11.217   7.818  72.120  1.00  0.00    -0.297 A  
ENDBRANCH  31  34
ENDBRANCH   5  31
ENDBRANCH   4   5
TORSDOF 12
ENDMDL
MODEL       56
REMARK 921   NORMALIZED FREE ENERGY PREDICTED BY IDOCK:   -6.17 KCAL/MOL
REMARK 922        TOTAL FREE ENERGY PREDICTED BY IDOCK:  -13.30 KCAL/MOL
REMARK 923 INTER-LIGAND FREE ENERGY PREDICTED BY IDOCK:  -10.57 KCAL/MOL
REMARK 924 INTRA-LIGAND FREE ENERGY PREDICTED BY IDOCK:   -2.74 KCAL/MOL
REMARK 927      BINDING AFFINITY PREDICTED BY RF-SCORE:    0.00 PKD
ROOT
HETATM    1  C   UNL     1      -8.255   6.114  64.273  1.00  0.00    -0.044 C  
HETATM    2  C   UNL     1      -7.198   6.706  65.191  1.00  0.00    -0.074 C  
HETATM    3  C   UNL     1      -6.585   8.010  64.676  1.00  0.00    -0.056 C  
HETATM    4  C   UNL     1      -7.345   6.749  66.716  1.00  0.00    -0.081 C  
ENDROOT
BRANCH   4   5
HETATM    5  N   UNL     1      -8.591   6.915  67.521  1.00  0.00    -0.121 N  
BRANCH   5   6
HETATM    6  C   UNL     1      -9.103   8.361  67.253  1.00  0.00    -0.137 C  
BRANCH   6   7
HETATM    7  C   UNL     1      -9.069   9.365  68.494  1.00  0.00    -0.131 C  
BRANCH   7   8
HETATM    8  C   UNL     1     -10.102  10.580  68.288  1.00  0.00    -0.160 C  
BRANCH   8   9
HETATM    9  N   UNL     1     -10.564  11.160  69.562  1.00  0.00    -0.430 N  
HETATM   10  C   UNL     1     -11.901  11.266  69.850  1.00  0.00    -0.360 C  
HETATM   11  H   UNL     1      -9.878  11.488  70.241  1.00  0.00     0.000 HD 
HETATM   12  O   UNL     1     -12.817  10.862  69.153  1.00  0.00    -0.137 OA 
BRANCH  10  13
HETATM   13  O   UNL     1     -12.064  11.879  71.054  1.00  0.00    -0.259 OA 
BRANCH  13  14
HETATM   14  C   UNL     1     -13.020  12.954  71.063  1.00  0.00    -0.098 C  
HETATM   15  C   UNL     1     -13.487  13.345  72.447  1.00  0.00    -0.685 C  
HETATM   16  O   UNL     1     -12.934  15.337  71.305  1.00  0.00    -0.369 OA 
HETATM   17  C   UNL     1     -13.829  14.807  72.288  1.00  0.00    -0.485 C  
HETATM   18  C   UNL     1     -12.369  14.241  70.569  1.00  0.00    -0.360 C  
ENDBRANCH  13  14
ENDBRANCH  10  13
ENDBRANCH   8   9
BRANCH   8  19
HETATM   19  C   UNL     1      -9.706  11.692  67.288  1.00  0.00    -0.192 C  
BRANCH  19  20
HETATM   20  C   UNL     1     -10.454  11.762  65.984  1.00  0.00    -0.286 A  
HETATM   21  C   UNL     1     -10.538  11.457  63.579  1.00  0.00    -0.468 A  
HETATM   22  C   UNL     1     -12.331  12.612  64.710  1.00  0.00    -0.556 A  
HETATM   23  C   UNL     1     -11.687  12.422  65.931  1.00  0.00    -0.476 A  
HETATM   24  C   UNL     1      -9.886  11.273  64.799  1.00  0.00    -0.312 A  
HETATM   25  C   UNL     1     -11.756  12.133  63.535  1.00  0.00    -0.579 A  
ENDBRANCH  19  20
ENDBRANCH   8  19
ENDBRANCH   7   8
BRANCH   7  26
HETATM   26  O   UNL     1      -7.695   9.729  68.890  1.00  0.00    -0.078 OA 
HETATM   27  O   UNL     1      -6.898   9.430  72.056  1.00  0.00    -0.300 OA 
HETATM   28  O   UNL     1      -6.790   8.055  70.205  1.00  0.00    -0.037 OA 
HETATM   29  O   UNL     1      -8.790   9.219  71.011  1.00  0.00    -0.218 OA 
HETATM   30  P   UNL     1      -7.275   9.571  70.561  1.00  0.00    -0.094 P  
ENDBRANCH   7  26
ENDBRANCH   6   7
ENDBRANCH   5   6
BRANCH   5  31
HETATM   31  S   UNL     1      -9.910   5.834  67.624  1.00  0.00    -0.137 S  
HETATM   32  O   UNL     1      -9.467   4.503  67.264  1.00  0.00    -0.140 OA 
HETATM   33  O   UNL     1     -11.016   6.414  66.889  1.00  0.00    -0.370 OA 
BRANCH  31  34
HETATM   34  C   UNL     1     -10.435   5.716  69.294  1.00  0.00    -0.286 A  
HETATM   35  N   UNL     1     -11.594   5.714  73.313  1.00  0.00    -0.476 NA 
HETATM   36  C   UNL     1      -9.847   4.803  70.169  1.00  0.00    -0.308 A  
HETATM   37  H1  UNL     1     -12.313   6.358  73.643  1.00  0.00     0.000 HD 
HETATM   38  H2  UNL     1     -10.752   5.863  73.869  1.00  0.00     0.000 HD 
HETATM   39  C   UNL     1     -11.292   6.707  69.778  1.00  0.00    -0.412 A  
HETATM   40  C   UNL     1     -11.682   6.694  71.108  1.00  0.00    -0.399 A  
HETATM   41  C   UNL     1     -10.241   4.804  71.509  1.00  0.00    -0.246 A  
HETATM   42  C   UNL     1     -11.228   5.688  71.963  1.00  0.00    -0.207 A  
ENDBRANCH  31  34
ENDBRANCH   5  31
ENDBRANCH   4   5
TORSDOF 12
ENDMDL
MODEL       57
REMARK 921   NORMALIZED FREE ENERGY PREDICTED BY IDOCK:   -6.17 KCAL/MOL
REMARK 922        TOTAL FREE ENERGY PREDICTED BY IDOCK:  -13.30 KCAL/MOL
REMARK 923 INTER-LIGAND FREE ENERGY PREDICTED BY IDOCK:  -10.77 KCAL/MOL
REMARK 924 INTRA-LIGAND FREE ENERGY PREDICTED BY IDOCK:   -2.53 KCAL/MOL
REMARK 927      BINDING AFFINITY PREDICTED BY RF-SCORE:    0.00 PKD
ROOT
HETATM    1  C   UNL     1      -9.252   8.404  65.904  1.00  0.00    -0.217 C  
HETATM    2  C   UNL     1      -9.318   7.532  67.147  1.00  0.00    -0.174 C  
HETATM    3  C   UNL     1      -8.479   6.255  67.058  1.00  0.00    -0.108 C  
HETATM    4  C   UNL     1      -9.277   8.101  68.569  1.00  0.00    -0.136 C  
ENDROOT
BRANCH   4   5
HETATM    5  N   UNL     1      -8.542   9.302  69.065  1.00  0.00    -0.131 N  
BRANCH   5   6
HETATM    6  C   UNL     1      -9.072   9.584  70.502  1.00  0.00    -0.219 C  
BRANCH   6   7
HETATM    7  C   UNL     1     -10.645   9.417  70.722  1.00  0.00    -0.303 C  
BRANCH   7   8
HETATM    8  C   UNL     1     -11.436  10.754  70.304  1.00  0.00    -0.319 C  
BRANCH   8   9
HETATM    9  N   UNL     1     -11.881  10.740  68.899  1.00  0.00    -0.480 N  
HETATM   10  C   UNL     1     -11.212  11.449  67.935  1.00  0.00    -0.288 C  
HETATM   11  H   UNL     1     -12.702  10.193  68.640  1.00  0.00     0.000 HD 
HETATM   12  O   UNL     1     -10.189  12.092  68.101  1.00  0.00    -0.189 OA 
BRANCH  10  13
HETATM   13  O   UNL     1     -11.849  11.314  66.740  1.00  0.00    -0.368 OA 
BRANCH  13  14
HETATM   14  C   UNL     1     -11.337  12.143  65.682  1.00  0.00    -0.347 C  
HETATM   15  C   UNL     1     -10.498  11.395  64.670  1.00  0.00    -0.373 C  
HETATM   16  O   UNL     1     -12.026  12.732  63.464  1.00  0.00    -0.489 OA 
HETATM   17  C   UNL     1     -10.701  12.195  63.406  1.00  0.00    -0.409 C  
HETATM   18  C   UNL     1     -12.482  12.668  64.823  1.00  0.00    -0.484 C  
ENDBRANCH  13  14
ENDBRANCH  10  13
ENDBRANCH   8   9
BRANCH   8  19
HETATM   19  C   UNL     1     -12.572  11.232  71.238  1.00  0.00    -0.487 C  
BRANCH  19  20
HETATM   20  C   UNL     1     -12.827  12.713  71.332  1.00  0.00    -0.358 A  
HETATM   21  C   UNL     1     -12.324  14.988  70.656  1.00  0.00    -0.404 A  
HETATM   22  C   UNL     1     -13.780  14.584  72.540  1.00  0.00    -0.580 A  
HETATM   23  C   UNL     1     -13.640  13.209  72.357  1.00  0.00    -0.667 A  
HETATM   24  C   UNL     1     -12.175  13.612  70.476  1.00  0.00    -0.438 A  
HETATM   25  C   UNL     1     -13.120  15.472  71.693  1.00  0.00    -0.561 A  
ENDBRANCH  19  20
ENDBRANCH   8  19
ENDBRANCH   7   8
BRANCH   7  26
HETATM   26  O   UNL     1     -10.975   8.842  72.040  1.00  0.00    -0.352 OA 
HETATM   27  O   UNL     1     -12.306   5.846  72.100  1.00  0.00    -0.182 OA 
HETATM   28  O   UNL     1     -10.156   6.683  72.179  1.00  0.00    -0.179 OA 
HETATM   29  O   UNL     1     -11.827   7.188  70.461  1.00  0.00    -0.299 OA 
HETATM   30  P   UNL     1     -11.677   7.261  72.071  1.00  0.00    -0.296 P  
ENDBRANCH   7  26
ENDBRANCH   6   7
ENDBRANCH   5   6
BRANCH   5  31
HETATM   31  S   UNL     1      -6.860   9.592  68.992  1.00  0.00    -0.051 S  
HETATM   32  O   UNL     1      -6.317   8.957  67.809  1.00  0.00    -0.055 OA 
HETATM   33  O   UNL     1      -6.295   9.248  70.281  1.00  0.00    -0.042 OA 
BRANCH  31  34
HETATM   34  C   UNL     1      -6.576  11.310  68.771  1.00  0.00    -0.062 A  
HETATM   35  N   UNL     1      -6.100  15.453  68.457  1.00  0.00    -0.090 NA 
HETATM   36  C   UNL     1      -6.865  11.935  67.558  1.00  0.00    -0.124 A  
HETATM   37  H1  UNL     1      -5.756  15.995  69.250  1.00  0.00     0.000 HD 
HETATM   38  H2  UNL     1      -7.001  15.839  68.173  1.00  0.00     0.000 HD 
HETATM   39  C   UNL     1      -6.269  12.068  69.903  1.00  0.00    -0.130 A  
HETATM   40  C   UNL     1      -6.101  13.440  69.790  1.00  0.00    -0.128 A  
HETATM   41  C   UNL     1      -6.700  13.318  67.459  1.00  0.00    -0.156 A  
HETATM   42  C   UNL     1      -6.228  14.063  68.547  1.00  0.00    -0.093 A  
ENDBRANCH  31  34
ENDBRANCH   5  31
ENDBRANCH   4   5
TORSDOF 12
ENDMDL
MODEL       58
REMARK 921   NORMALIZED FREE ENERGY PREDICTED BY IDOCK:   -6.15 KCAL/MOL
REMARK 922        TOTAL FREE ENERGY PREDICTED BY IDOCK:  -13.28 KCAL/MOL
REMARK 923 INTER-LIGAND FREE ENERGY PREDICTED BY IDOCK:  -11.06 KCAL/MOL
REMARK 924 INTRA-LIGAND FREE ENERGY PREDICTED BY IDOCK:   -2.21 KCAL/MOL
REMARK 927      BINDING AFFINITY PREDICTED BY RF-SCORE:    0.00 PKD
ROOT
HETATM    1  C   UNL     1     -10.434   9.590  70.762  1.00  0.00    -0.384 C  
HETATM    2  C   UNL     1     -11.609  10.273  70.081  1.00  0.00    -0.376 C  
HETATM    3  C   UNL     1     -12.175  11.463  70.860  1.00  0.00    -0.447 C  
HETATM    4  C   UNL     1     -11.655  10.549  68.574  1.00  0.00    -0.148 C  
ENDROOT
BRANCH   4   5
HETATM    5  N   UNL     1     -10.524  10.878  67.658  1.00  0.00    -0.197 N  
BRANCH   5   6
HETATM    6  C   UNL     1      -9.605  11.873  68.429  1.00  0.00    -0.196 C  
BRANCH   6   7
HETATM    7  C   UNL     1      -9.920  13.425  68.232  1.00  0.00    -0.240 C  
BRANCH   7   8
HETATM    8  C   UNL     1     -11.422  13.651  67.702  1.00  0.00    -0.325 C  
BRANCH   8   9
HETATM    9  N   UNL     1     -12.295  14.280  68.709  1.00  0.00    -0.573 N  
HETATM   10  C   UNL     1     -12.141  15.598  69.059  1.00  0.00    -0.205 C  
HETATM   11  H   UNL     1     -13.027  13.726  69.154  1.00  0.00     0.000 HD 
HETATM   12  O   UNL     1     -11.348  16.381  68.563  1.00  0.00    -0.371 OA 
BRANCH  10  13
HETATM   13  O   UNL     1     -13.028  15.920  70.039  1.00  0.00    -0.158 OA 
BRANCH  13  14
HETATM   14  C   UNL     1     -12.954  15.098  71.218  1.00  0.00    -0.407 C  
HETATM   15  C   UNL     1     -11.718  15.339  72.055  1.00  0.00    -0.529 C  
HETATM   16  O   UNL     1     -13.568  15.328  73.523  1.00  0.00    -0.350 OA 
HETATM   17  C   UNL     1     -12.180  14.987  73.448  1.00  0.00    -0.408 C  
HETATM   18  C   UNL     1     -14.073  15.465  72.187  1.00  0.00    -0.553 C  
ENDBRANCH  13  14
ENDBRANCH  10  13
ENDBRANCH   8   9
BRANCH   8  19
HETATM   19  C   UNL     1     -11.599  14.325  66.321  1.00  0.00    -0.379 C  
BRANCH  19  20
HETATM   20  C   UNL     1     -11.547  13.446  65.100  1.00  0.00    -0.329 A  
HETATM   21  C   UNL     1     -12.609  11.888  63.575  1.00  0.00    -0.579 A  
HETATM   22  C   UNL     1     -10.228  12.271  63.442  1.00  0.00    -0.360 A  
HETATM   23  C   UNL     1     -10.315  13.185  64.490  1.00  0.00    -0.389 A  
HETATM   24  C   UNL     1     -12.697  12.796  64.630  1.00  0.00    -0.439 A  
HETATM   25  C   UNL     1     -11.374  11.620  62.987  1.00  0.00     0.035 A  
ENDBRANCH  19  20
ENDBRANCH   8  19
ENDBRANCH   7   8
BRANCH   7  26
HETATM   26  O   UNL     1      -8.852  14.132  67.500  1.00  0.00    -0.180 OA 
HETATM   27  O   UNL     1      -6.906  16.138  69.214  1.00  0.00    -0.183 OA 
HETATM   28  O   UNL     1      -6.846  13.905  68.630  1.00  0.00    -0.088 OA 
HETATM   29  O   UNL     1      -8.700  15.042  69.759  1.00  0.00    -0.085 OA 
HETATM   30  P   UNL     1      -7.825  15.190  68.404  1.00  0.00    -0.144 P  
ENDBRANCH   7  26
ENDBRANCH   6   7
ENDBRANCH   5   6
BRANCH   5  31
HETATM   31  S   UNL     1      -9.575   9.787  66.748  1.00  0.00    -0.188 S  
HETATM   32  O   UNL     1      -8.192  10.214  66.781  1.00  0.00    -0.121 OA 
HETATM   33  O   UNL     1     -10.213   9.615  65.458  1.00  0.00    -0.228 OA 
BRANCH  31  34
HETATM   34  C   UNL     1      -9.596   8.213  67.523  1.00  0.00    -0.157 A  
HETATM   35  N   UNL     1      -9.914   4.531  69.480  1.00  0.00    -0.206 NA 
HETATM   36  C   UNL     1      -8.656   7.880  68.497  1.00  0.00    -0.128 A  
HETATM   37  H1  UNL     1     -10.657   3.877  69.233  1.00  0.00     0.000 HD 
HETATM   38  H2  UNL     1      -9.981   4.725  70.480  1.00  0.00     0.000 HD 
HETATM   39  C   UNL     1     -10.708   7.396  67.304  1.00  0.00    -0.379 A  
HETATM   40  C   UNL     1     -10.801   6.171  67.946  1.00  0.00    -0.406 A  
HETATM   41  C   UNL     1      -8.765   6.647  69.144  1.00  0.00    -0.130 A  
HETATM   42  C   UNL     1      -9.785   5.748  68.804  1.00  0.00    -0.132 A  
ENDBRANCH  31  34
ENDBRANCH   5  31
ENDBRANCH   4   5
TORSDOF 12
ENDMDL
MODEL       59
REMARK 921   NORMALIZED FREE ENERGY PREDICTED BY IDOCK:   -6.14 KCAL/MOL
REMARK 922        TOTAL FREE ENERGY PREDICTED BY IDOCK:  -13.26 KCAL/MOL
REMARK 923 INTER-LIGAND FREE ENERGY PREDICTED BY IDOCK:  -10.85 KCAL/MOL
REMARK 924 INTRA-LIGAND FREE ENERGY PREDICTED BY IDOCK:   -2.41 KCAL/MOL
REMARK 927      BINDING AFFINITY PREDICTED BY RF-SCORE:    0.00 PKD
ROOT
HETATM    1  C   UNL     1     -11.977  10.225  70.088  1.00  0.00    -0.313 C  
HETATM    2  C   UNL     1     -10.788   9.582  70.783  1.00  0.00    -0.386 C  
HETATM    3  C   UNL     1     -11.075   8.189  71.348  1.00  0.00    -0.291 C  
HETATM    4  C   UNL     1      -9.360   9.651  70.229  1.00  0.00    -0.242 C  
ENDROOT
BRANCH   4   5
HETATM    5  N   UNL     1      -8.920   9.672  68.804  1.00  0.00    -0.131 N  
BRANCH   5   6
HETATM    6  C   UNL     1      -8.478  11.135  68.498  1.00  0.00    -0.156 C  
BRANCH   6   7
HETATM    7  C   UNL     1      -9.397  11.953  67.481  1.00  0.00    -0.177 C  
BRANCH   7   8
HETATM    8  C   UNL     1      -9.767  13.404  68.069  1.00  0.00    -0.222 C  
BRANCH   8   9
HETATM    9  N   UNL     1     -10.847  13.357  69.070  1.00  0.00    -0.380 N  
HETATM   10  C   UNL     1     -11.826  14.318  69.105  1.00  0.00    -0.330 C  
HETATM   11  H   UNL     1     -10.868  12.596  69.749  1.00  0.00     0.000 HD 
HETATM   12  O   UNL     1     -11.948  15.242  68.318  1.00  0.00    -0.297 OA 
BRANCH  10  13
HETATM   13  O   UNL     1     -12.668  14.078  70.146  1.00  0.00    -0.302 OA 
BRANCH  13  14
HETATM   14  C   UNL     1     -12.819  15.173  71.068  1.00  0.00    -0.412 C  
HETATM   15  C   UNL     1     -14.072  15.094  71.911  1.00  0.00    -0.649 C  
HETATM   16  O   UNL     1     -12.277  15.580  73.367  1.00  0.00    -0.430 OA 
HETATM   17  C   UNL     1     -13.676  15.818  73.175  1.00  0.00    -0.418 C  
HETATM   18  C   UNL     1     -11.720  15.128  72.124  1.00  0.00    -0.414 C  
ENDBRANCH  13  14
ENDBRANCH  10  13
ENDBRANCH   8   9
BRANCH   8  19
HETATM   19  C   UNL     1      -8.600  14.295  68.558  1.00  0.00    -0.175 C  
BRANCH  19  20
HETATM   20  C   UNL     1      -8.520  15.700  68.024  1.00  0.00    -0.146 A  
HETATM   21  C   UNL     1      -7.734  17.287  66.367  1.00  0.00    -0.347 A  
HETATM   22  C   UNL     1      -8.771  18.080  68.398  1.00  0.00    -0.301 A  
HETATM   23  C   UNL     1      -8.958  16.765  68.819  1.00  0.00    -0.254 A  
HETATM   24  C   UNL     1      -7.913  15.969  66.790  1.00  0.00    -0.302 A  
HETATM   25  C   UNL     1      -8.156  18.341  67.175  1.00  0.00    -0.232 A  
ENDBRANCH  19  20
ENDBRANCH   8  19
ENDBRANCH   7   8
BRANCH   7  26
HETATM   26  O   UNL     1     -10.519  11.149  66.960  1.00  0.00    -0.214 OA 
HETATM   27  O   UNL     1     -11.186  11.367  63.757  1.00  0.00    -0.399 OA 
HETATM   28  O   UNL     1      -9.851  10.009  65.062  1.00  0.00    -0.310 OA 
HETATM   29  O   UNL     1      -9.804  12.458  65.029  1.00  0.00    -0.219 OA 
HETATM   30  P   UNL     1     -10.870  11.264  65.270  1.00  0.00    -0.074 P  
ENDBRANCH   7  26
ENDBRANCH   6   7
ENDBRANCH   5   6
BRANCH   5  31
HETATM   31  S   UNL     1      -7.873   8.568  68.025  1.00  0.00    -0.104 S  
HETATM   32  O   UNL     1      -7.121   7.838  69.024  1.00  0.00    -0.070 OA 
HETATM   33  O   UNL     1      -7.143   9.293  67.005  1.00  0.00    -0.084 OA 
BRANCH  31  34
HETATM   34  C   UNL     1      -8.827   7.359  67.184  1.00  0.00    -0.125 A  
HETATM   35  N   UNL     1     -11.176   4.367  65.445  1.00  0.00    -0.886 NA 
HETATM   36  C   UNL     1      -8.224   6.429  66.339  1.00  0.00    -0.115 A  
HETATM   37  H1  UNL     1     -12.180   4.332  65.621  1.00  0.00     0.000 HD 
HETATM   38  H2  UNL     1     -10.773   3.471  65.719  1.00  0.00     0.000 HD 
HETATM   39  C   UNL     1     -10.165   7.211  67.558  1.00  0.00    -0.272 A  
HETATM   40  C   UNL     1     -10.941   6.225  66.969  1.00  0.00    -0.442 A  
HETATM   41  C   UNL     1      -9.014   5.435  65.758  1.00  0.00    -0.161 A  
HETATM   42  C   UNL     1     -10.393   5.386  65.998  1.00  0.00    -0.069 A  
ENDBRANCH  31  34
ENDBRANCH   5  31
ENDBRANCH   4   5
TORSDOF 12
ENDMDL
MODEL       60
REMARK 921   NORMALIZED FREE ENERGY PREDICTED BY IDOCK:   -6.12 KCAL/MOL
REMARK 922        TOTAL FREE ENERGY PREDICTED BY IDOCK:  -13.22 KCAL/MOL
REMARK 923 INTER-LIGAND FREE ENERGY PREDICTED BY IDOCK:  -11.30 KCAL/MOL
REMARK 924 INTRA-LIGAND FREE ENERGY PREDICTED BY IDOCK:   -1.92 KCAL/MOL
REMARK 927      BINDING AFFINITY PREDICTED BY RF-SCORE:    0.00 PKD
ROOT
HETATM    1  C   UNL     1     -13.180  14.153  72.216  1.00  0.00    -0.540 C  
HETATM    2  C   UNL     1     -12.716  15.502  71.693  1.00  0.00    -0.502 C  
HETATM    3  C   UNL     1     -12.029  16.376  72.745  1.00  0.00    -0.585 C  
HETATM    4  C   UNL     1     -12.045  15.681  70.327  1.00  0.00    -0.385 C  
ENDROOT
BRANCH   4   5
HETATM    5  N   UNL     1     -11.141  14.736  69.608  1.00  0.00    -0.268 N  
BRANCH   5   6
HETATM    6  C   UNL     1     -12.046  13.600  69.044  1.00  0.00    -0.309 C  
BRANCH   6   7
HETATM    7  C   UNL     1     -11.594  12.106  69.378  1.00  0.00    -0.317 C  
BRANCH   7   8
HETATM    8  C   UNL     1     -10.441  11.608  68.372  1.00  0.00    -0.213 C  
BRANCH   8   9
HETATM    9  N   UNL     1      -9.271  11.051  69.074  1.00  0.00    -0.345 N  
HETATM   10  C   UNL     1      -7.999  11.245  68.599  1.00  0.00    -0.145 C  
HETATM   11  H   UNL     1      -9.410  10.512  69.928  1.00  0.00     0.000 HD 
HETATM   12  O   UNL     1      -7.694  11.916  67.627  1.00  0.00    -0.123 OA 
BRANCH  10  13
HETATM   13  O   UNL     1      -7.108  10.591  69.392  1.00  0.00    -0.082 OA 
BRANCH  13  14
HETATM   14  C   UNL     1      -7.383   9.192  69.588  1.00  0.00    -0.065 C  
HETATM   15  C   UNL     1      -7.420   8.390  68.307  1.00  0.00    -0.096 C  
HETATM   16  O   UNL     1      -6.082   7.196  69.844  1.00  0.00    -0.026 OA 
HETATM   17  C   UNL     1      -6.997   7.013  68.758  1.00  0.00    -0.079 C  
HETATM   18  C   UNL     1      -6.238   8.531  70.347  1.00  0.00    -0.035 C  
ENDBRANCH  13  14
ENDBRANCH  10  13
ENDBRANCH   8   9
BRANCH   8  19
HETATM   19  C   UNL     1     -10.864  10.696  67.196  1.00  0.00    -0.328 C  
BRANCH  19  20
HETATM   20  C   UNL     1     -10.973  11.318  65.830  1.00  0.00    -0.221 A  
HETATM   21  C   UNL     1     -12.151  12.716  64.235  1.00  0.00    -0.502 A  
HETATM   22  C   UNL     1     -10.294  11.355  63.505  1.00  0.00    -0.476 A  
HETATM   23  C   UNL     1     -10.122  10.888  64.807  1.00  0.00    -0.383 A  
HETATM   24  C   UNL     1     -11.986  12.242  65.537  1.00  0.00    -0.387 A  
HETATM   25  C   UNL     1     -11.309  12.265  63.219  1.00  0.00    -0.414 A  
ENDBRANCH  19  20
ENDBRANCH   8  19
ENDBRANCH   7   8
BRANCH   7  26
HETATM   26  O   UNL     1     -12.740  11.196  69.565  1.00  0.00    -0.208 OA 
HETATM   27  O   UNL     1     -12.478   8.878  71.869  1.00  0.00    -0.328 OA 
HETATM   28  O   UNL     1     -13.262  11.048  71.814  1.00  0.00    -0.446 OA 
HETATM   29  O   UNL     1     -11.046  10.306  71.079  1.00  0.00    -0.276 OA 
HETATM   30  P   UNL     1     -12.602   9.973  70.781  1.00  0.00    -0.208 P  
ENDBRANCH   7  26
ENDBRANCH   6   7
ENDBRANCH   5   6
BRANCH   5  31
HETATM   31  S   UNL     1      -9.917  15.127  68.481  1.00  0.00    -0.229 S  
HETATM   32  O   UNL     1     -10.247  14.544  67.197  1.00  0.00    -0.256 OA 
HETATM   33  O   UNL     1      -8.640  14.796  69.081  1.00  0.00    -0.160 OA 
BRANCH  31  34
HETATM   34  C   UNL     1      -9.904  16.862  68.216  1.00  0.00    -0.266 A  
HETATM   35  N   UNL     1      -9.805  20.941  67.301  1.00  0.00    -0.545 NA 
HETATM   36  C   UNL     1      -8.982  17.680  68.868  1.00  0.00    -0.132 A  
HETATM   37  H1  UNL     1     -10.461  21.335  66.626  1.00  0.00     0.000 HD 
HETATM   38  H2  UNL     1      -8.858  21.157  66.988  1.00  0.00     0.000 HD 
HETATM   39  C   UNL     1     -10.684  17.365  67.173  1.00  0.00    -0.188 A  
HETATM   40  C   UNL     1     -10.656  18.721  66.883  1.00  0.00    -0.472 A  
HETATM   41  C   UNL     1      -8.957  19.042  68.561  1.00  0.00    -0.394 A  
HETATM   42  C   UNL     1      -9.858  19.584  67.634  1.00  0.00    -0.364 A  
ENDBRANCH  31  34
ENDBRANCH   5  31
ENDBRANCH   4   5
TORSDOF 12
ENDMDL
MODEL       61
REMARK 921   NORMALIZED FREE ENERGY PREDICTED BY IDOCK:   -6.10 KCAL/MOL
REMARK 922        TOTAL FREE ENERGY PREDICTED BY IDOCK:  -13.18 KCAL/MOL
REMARK 923 INTER-LIGAND FREE ENERGY PREDICTED BY IDOCK:  -11.44 KCAL/MOL
REMARK 924 INTRA-LIGAND FREE ENERGY PREDICTED BY IDOCK:   -1.74 KCAL/MOL
REMARK 927      BINDING AFFINITY PREDICTED BY RF-SCORE:    0.00 PKD
ROOT
HETATM    1  C   UNL     1      -8.303   7.923  65.502  1.00  0.00    -0.152 C  
HETATM    2  C   UNL     1      -7.498   8.073  66.782  1.00  0.00    -0.090 C  
HETATM    3  C   UNL     1      -6.827   9.439  66.941  1.00  0.00    -0.080 C  
HETATM    4  C   UNL     1      -7.985   7.555  68.140  1.00  0.00    -0.123 C  
ENDROOT
BRANCH   4   5
HETATM    5  N   UNL     1      -9.384   7.479  68.654  1.00  0.00    -0.143 N  
BRANCH   5   6
HETATM    6  C   UNL     1      -9.901   8.946  68.752  1.00  0.00    -0.173 C  
BRANCH   6   7
HETATM    7  C   UNL     1     -10.665   9.338  70.098  1.00  0.00    -0.235 C  
BRANCH   7   8
HETATM    8  C   UNL     1     -11.466  10.722  69.931  1.00  0.00    -0.321 C  
BRANCH   8   9
HETATM    9  N   UNL     1     -12.061  10.880  68.591  1.00  0.00    -0.422 N  
HETATM   10  C   UNL     1     -11.494  11.708  67.656  1.00  0.00    -0.303 C  
HETATM   11  H   UNL     1     -12.908  10.364  68.356  1.00  0.00     0.000 HD 
HETATM   12  O   UNL     1     -10.455  12.332  67.790  1.00  0.00    -0.203 OA 
BRANCH  10  13
HETATM   13  O   UNL     1     -12.258  11.719  66.530  1.00  0.00    -0.348 OA 
BRANCH  13  14
HETATM   14  C   UNL     1     -11.794  12.600  65.491  1.00  0.00    -0.431 C  
HETATM   15  C   UNL     1     -12.089  12.106  64.093  1.00  0.00    -0.501 C  
HETATM   16  O   UNL     1     -12.738  14.375  64.186  1.00  0.00    -0.676 OA 
HETATM   17  C   UNL     1     -12.205  13.385  63.300  1.00  0.00    -0.243 C  
HETATM   18  C   UNL     1     -12.564  13.916  65.535  1.00  0.00    -0.526 C  
ENDBRANCH  13  14
ENDBRANCH  10  13
ENDBRANCH   8   9
BRANCH   8  19
HETATM   19  C   UNL     1     -12.484  11.095  71.034  1.00  0.00    -0.506 C  
BRANCH  19  20
HETATM   20  C   UNL     1     -12.753  12.557  71.274  1.00  0.00    -0.350 A  
HETATM   21  C   UNL     1     -14.087  14.323  72.267  1.00  0.00    -0.621 A  
HETATM   22  C   UNL     1     -12.384  14.867  70.643  1.00  0.00    -0.406 A  
HETATM   23  C   UNL     1     -12.056  13.517  70.531  1.00  0.00    -0.409 A  
HETATM   24  C   UNL     1     -13.766  12.970  72.150  1.00  0.00    -0.547 A  
HETATM   25  C   UNL     1     -13.400  15.269  71.508  1.00  0.00    -0.559 A  
ENDBRANCH  19  20
ENDBRANCH   8  19
ENDBRANCH   7   8
BRANCH   7  26
HETATM   26  O   UNL     1      -9.806   9.215  71.292  1.00  0.00    -0.283 OA 
HETATM   27  O   UNL     1     -10.774   7.155  73.653  1.00  0.00    -0.375 OA 
HETATM   28  O   UNL     1      -9.447   6.980  71.772  1.00  0.00    -0.153 OA 
HETATM   29  O   UNL     1     -11.744   7.832  71.831  1.00  0.00    -0.270 OA 
HETATM   30  P   UNL     1     -10.317   8.128  72.537  1.00  0.00    -0.309 P  
ENDBRANCH   7  26
ENDBRANCH   6   7
ENDBRANCH   5   6
BRANCH   5  31
HETATM   31  S   UNL     1     -10.635   6.451  68.107  1.00  0.00    -0.285 S  
HETATM   32  O   UNL     1     -11.440   7.156  67.131  1.00  0.00     0.016 OA 
HETATM   33  O   UNL     1     -11.294   5.896  69.272  1.00  0.00    -0.325 OA 
BRANCH  31  34
HETATM   34  C   UNL     1      -9.935   5.094  67.242  1.00  0.00    -0.186 A  
HETATM   35  N   UNL     1      -8.007   2.004  65.187  1.00  0.00    -0.077 NA 
HETATM   36  C   UNL     1     -10.370   4.757  65.961  1.00  0.00    -0.328 A  
HETATM   37  H1  UNL     1      -7.243   1.490  65.626  1.00  0.00     0.000 HD 
HETATM   38  H2  UNL     1      -7.665   2.394  64.308  1.00  0.00     0.000 HD 
HETATM   39  C   UNL     1      -8.785   4.508  67.775  1.00  0.00    -0.112 A  
HETATM   40  C   UNL     1      -8.157   3.476  67.095  1.00  0.00    -0.087 A  
HETATM   41  C   UNL     1      -9.725   3.722  65.281  1.00  0.00    -0.167 A  
HETATM   42  C   UNL     1      -8.676   3.015  65.884  1.00  0.00    -0.131 A  
ENDBRANCH  31  34
ENDBRANCH   5  31
ENDBRANCH   4   5
TORSDOF 12
ENDMDL
MODEL       62
REMARK 921   NORMALIZED FREE ENERGY PREDICTED BY IDOCK:   -6.09 KCAL/MOL
REMARK 922        TOTAL FREE ENERGY PREDICTED BY IDOCK:  -13.17 KCAL/MOL
REMARK 923 INTER-LIGAND FREE ENERGY PREDICTED BY IDOCK:  -10.12 KCAL/MOL
REMARK 924 INTRA-LIGAND FREE ENERGY PREDICTED BY IDOCK:   -3.04 KCAL/MOL
REMARK 927      BINDING AFFINITY PREDICTED BY RF-SCORE:    0.00 PKD
ROOT
HETATM    1  C   UNL     1     -12.210   9.795  71.806  1.00  0.00    -0.449 C  
HETATM    2  C   UNL     1     -12.964  10.900  71.085  1.00  0.00    -0.449 C  
HETATM    3  C   UNL     1     -13.268  12.119  71.959  1.00  0.00    -0.496 C  
HETATM    4  C   UNL     1     -12.637  11.337  69.653  1.00  0.00     0.022 C  
ENDROOT
BRANCH   4   5
HETATM    5  N   UNL     1     -11.308  11.366  68.974  1.00  0.00    -0.252 N  
BRANCH   5   6
HETATM    6  C   UNL     1     -11.365  10.299  67.841  1.00  0.00    -0.105 C  
BRANCH   6   7
HETATM    7  C   UNL     1     -10.236   9.171  67.874  1.00  0.00    -0.216 C  
BRANCH   7   8
HETATM    8  C   UNL     1     -10.052   8.575  69.357  1.00  0.00    -0.205 C  
BRANCH   8   9
HETATM    9  N   UNL     1      -9.935   7.106  69.372  1.00  0.00    -0.162 N  
HETATM   10  C   UNL     1     -10.961   6.315  69.822  1.00  0.00    -0.378 C  
HETATM   11  H   UNL     1      -9.074   6.669  69.041  1.00  0.00     0.000 HD 
HETATM   12  O   UNL     1     -12.057   6.707  70.187  1.00  0.00    -0.323 OA 
BRANCH  10  13
HETATM   13  O   UNL     1     -10.586   5.008  69.783  1.00  0.00    -0.222 OA 
BRANCH  13  14
HETATM   14  C   UNL     1      -9.457   4.676  70.612  1.00  0.00    -0.172 C  
HETATM   15  C   UNL     1      -9.777   4.625  72.089  1.00  0.00    -0.219 C  
HETATM   16  O   UNL     1      -8.549   2.676  71.569  1.00  0.00    -0.062 OA 
HETATM   17  C   UNL     1      -8.778   3.625  72.617  1.00  0.00    -0.093 C  
HETATM   18  C   UNL     1      -9.001   3.248  70.333  1.00  0.00    -0.101 C  
ENDBRANCH  13  14
ENDBRANCH  10  13
ENDBRANCH   8   9
BRANCH   8  19
HETATM   19  C   UNL     1      -8.976   9.223  70.259  1.00  0.00    -0.261 C  
BRANCH  19  20
HETATM   20  C   UNL     1      -8.493   8.438  71.449  1.00  0.00    -0.195 A  
HETATM   21  C   UNL     1      -8.749   7.730  73.755  1.00  0.00    -0.318 A  
HETATM   22  C   UNL     1      -6.697   7.261  72.570  1.00  0.00    -0.059 A  
HETATM   23  C   UNL     1      -7.212   7.877  71.431  1.00  0.00    -0.065 A  
HETATM   24  C   UNL     1      -9.263   8.354  72.618  1.00  0.00    -0.325 A  
HETATM   25  C   UNL     1      -7.463   7.191  73.732  1.00  0.00    -0.112 A  
ENDBRANCH  19  20
ENDBRANCH   8  19
ENDBRANCH   7   8
BRANCH   7  26
HETATM   26  O   UNL     1      -9.004   9.582  67.174  1.00  0.00    -0.133 OA 
HETATM   27  O   UNL     1      -7.901   7.640  64.774  1.00  0.00    -0.115 OA 
HETATM   28  O   UNL     1      -9.324   9.454  64.886  1.00  0.00    -0.242 OA 
HETATM   29  O   UNL     1      -9.513   7.400  66.208  1.00  0.00    -0.161 OA 
HETATM   30  P   UNL     1      -8.423   8.557  65.907  1.00  0.00    -0.170 P  
ENDBRANCH   7  26
ENDBRANCH   6   7
ENDBRANCH   5   6
BRANCH   5  31
HETATM   31  S   UNL     1     -10.447  12.742  68.442  1.00  0.00    -0.239 S  
HETATM   32  O   UNL     1      -9.041  12.412  68.328  1.00  0.00    -0.195 OA 
HETATM   33  O   UNL     1     -10.826  13.857  69.287  1.00  0.00    -0.221 OA 
BRANCH  31  34
HETATM   34  C   UNL     1     -10.962  13.157  66.816  1.00  0.00    -0.279 A  
HETATM   35  N   UNL     1     -12.421  13.962  62.980  1.00  0.00    -1.009 NA 
HETATM   36  C   UNL     1     -10.169  12.849  65.711  1.00  0.00    -0.298 A  
HETATM   37  H1  UNL     1     -13.334  14.398  62.856  1.00  0.00     0.000 HD 
HETATM   38  H2  UNL     1     -12.415  13.082  62.465  1.00  0.00     0.000 HD 
HETATM   39  C   UNL     1     -12.277  13.595  66.644  1.00  0.00    -0.437 A  
HETATM   40  C   UNL     1     -12.750  13.872  65.370  1.00  0.00    -0.525 A  
HETATM   41  C   UNL     1     -10.660  13.124  64.433  1.00  0.00    -0.441 A  
HETATM   42  C   UNL     1     -11.915  13.723  64.262  1.00  0.00    -0.443 A  
ENDBRANCH  31  34
ENDBRANCH   5  31
ENDBRANCH   4   5
TORSDOF 12
ENDMDL
MODEL       63
REMARK 921   NORMALIZED FREE ENERGY PREDICTED BY IDOCK:   -6.07 KCAL/MOL
REMARK 922        TOTAL FREE ENERGY PREDICTED BY IDOCK:  -13.13 KCAL/MOL
REMARK 923 INTER-LIGAND FREE ENERGY PREDICTED BY IDOCK:  -10.70 KCAL/MOL
REMARK 924 INTRA-LIGAND FREE ENERGY PREDICTED BY IDOCK:   -2.43 KCAL/MOL
REMARK 927      BINDING AFFINITY PREDICTED BY RF-SCORE:    0.00 PKD
ROOT
HETATM    1  C   UNL     1      -8.740   7.991  65.385  1.00  0.00    -0.101 C  
HETATM    2  C   UNL     1      -8.400   9.368  64.838  1.00  0.00    -0.155 C  
HETATM    3  C   UNL     1      -9.356   9.859  63.748  1.00  0.00    -0.250 C  
HETATM    4  C   UNL     1      -7.959  10.534  65.729  1.00  0.00    -0.158 C  
ENDROOT
BRANCH   4   5
HETATM    5  N   UNL     1      -8.385  10.846  67.125  1.00  0.00    -0.123 N  
BRANCH   5   6
HETATM    6  C   UNL     1      -9.934  11.003  67.091  1.00  0.00    -0.187 C  
BRANCH   6   7
HETATM    7  C   UNL     1     -10.493  12.499  67.096  1.00  0.00    -0.224 C  
BRANCH   7   8
HETATM    8  C   UNL     1     -10.226  13.215  68.511  1.00  0.00    -0.215 C  
BRANCH   8   9
HETATM    9  N   UNL     1      -8.885  13.818  68.603  1.00  0.00    -0.341 N  
HETATM   10  C   UNL     1      -8.617  15.042  68.044  1.00  0.00    -0.158 C  
HETATM   11  H   UNL     1      -8.142  13.317  69.090  1.00  0.00     0.000 HD 
HETATM   12  O   UNL     1      -9.425  15.766  67.488  1.00  0.00    -0.216 OA 
BRANCH  10  13
HETATM   13  O   UNL     1      -7.303  15.349  68.220  1.00  0.00    -0.107 OA 
BRANCH  13  14
HETATM   14  C   UNL     1      -7.051  16.675  68.720  1.00  0.00    -0.194 C  
HETATM   15  C   UNL     1      -6.074  16.718  69.873  1.00  0.00    -0.194 C  
HETATM   16  O   UNL     1      -5.416  18.383  68.334  1.00  0.00    -0.169 OA 
HETATM   17  C   UNL     1      -5.446  18.083  69.733  1.00  0.00    -0.218 C  
HETATM   18  C   UNL     1      -6.336  17.510  67.664  1.00  0.00    -0.150 C  
ENDBRANCH  13  14
ENDBRANCH  10  13
ENDBRANCH   8   9
BRANCH   8  19
HETATM   19  C   UNL     1     -11.307  14.192  69.032  1.00  0.00    -0.310 C  
BRANCH  19  20
HETATM   20  C   UNL     1     -12.052  13.810  70.283  1.00  0.00    -0.425 A  
HETATM   21  C   UNL     1     -12.972  12.119  71.759  1.00  0.00    -0.437 A  
HETATM   22  C   UNL     1     -13.529  14.445  72.095  1.00  0.00    -0.507 A  
HETATM   23  C   UNL     1     -12.726  14.797  71.012  1.00  0.00    -0.411 A  
HETATM   24  C   UNL     1     -12.175  12.468  70.668  1.00  0.00    -0.365 A  
HETATM   25  C   UNL     1     -13.655  13.108  72.466  1.00  0.00    -0.595 A  
ENDBRANCH  19  20
ENDBRANCH   8  19
ENDBRANCH   7   8
BRANCH   7  26
HETATM   26  O   UNL     1     -11.864  12.592  66.560  1.00  0.00    -0.396 OA 
HETATM   27  O   UNL     1     -12.298  14.286  63.786  1.00  0.00    -0.735 OA 
HETATM   28  O   UNL     1     -11.860  12.080  64.304  1.00  0.00    -0.366 OA 
HETATM   29  O   UNL     1     -10.563  14.015  65.063  1.00  0.00    -0.360 OA 
HETATM   30  P   UNL     1     -12.093  13.486  65.096  1.00  0.00    -0.463 P  
ENDBRANCH   7  26
ENDBRANCH   6   7
ENDBRANCH   5   6
BRANCH   5  31
HETATM   31  S   UNL     1      -7.907  10.046  68.557  1.00  0.00    -0.096 S  
HETATM   32  O   UNL     1      -7.522  11.029  69.548  1.00  0.00    -0.114 OA 
HETATM   33  O   UNL     1      -6.949   9.021  68.194  1.00  0.00    -0.074 OA 
BRANCH  31  34
HETATM   34  C   UNL     1      -9.289   9.209  69.243  1.00  0.00    -0.157 A  
HETATM   35  N   UNL     1     -12.429   7.195  71.132  1.00  0.00    -0.436 NA 
HETATM   36  C   UNL     1      -9.707   7.979  68.736  1.00  0.00    -0.157 A  
HETATM   37  H1  UNL     1     -12.896   7.608  71.939  1.00  0.00     0.000 HD 
HETATM   38  H2  UNL     1     -12.078   6.276  71.403  1.00  0.00     0.000 HD 
HETATM   39  C   UNL     1      -9.811   9.694  70.443  1.00  0.00    -0.315 A  
HETATM   40  C   UNL     1     -10.861   9.029  71.058  1.00  0.00    -0.345 A  
HETATM   41  C   UNL     1     -10.759   7.313  69.369  1.00  0.00    -0.236 A  
HETATM   42  C   UNL     1     -11.401   7.881  70.477  1.00  0.00    -0.234 A  
ENDBRANCH  31  34
ENDBRANCH   5  31
ENDBRANCH   4   5
TORSDOF 12
ENDMDL
MODEL       64
REMARK 921   NORMALIZED FREE ENERGY PREDICTED BY IDOCK:   -6.06 KCAL/MOL
REMARK 922        TOTAL FREE ENERGY PREDICTED BY IDOCK:  -13.12 KCAL/MOL
REMARK 923 INTER-LIGAND FREE ENERGY PREDICTED BY IDOCK:  -11.89 KCAL/MOL
REMARK 924 INTRA-LIGAND FREE ENERGY PREDICTED BY IDOCK:   -1.23 KCAL/MOL
REMARK 927      BINDING AFFINITY PREDICTED BY RF-SCORE:    0.00 PKD
ROOT
HETATM    1  C   UNL     1      -9.135   8.631  67.795  1.00  0.00    -0.143 C  
HETATM    2  C   UNL     1      -9.199   9.815  66.845  1.00  0.00    -0.174 C  
HETATM    3  C   UNL     1     -10.159   9.619  65.669  1.00  0.00    -0.231 C  
HETATM    4  C   UNL     1      -9.231  11.270  67.325  1.00  0.00    -0.166 C  
ENDROOT
BRANCH   4   5
HETATM    5  N   UNL     1      -9.857  11.824  68.561  1.00  0.00    -0.204 N  
BRANCH   5   6
HETATM    6  C   UNL     1      -9.630  13.365  68.521  1.00  0.00    -0.141 C  
BRANCH   6   7
HETATM    7  C   UNL     1     -10.000  14.098  67.152  1.00  0.00    -0.255 C  
BRANCH   7   8
HETATM    8  C   UNL     1      -9.177  15.470  66.986  1.00  0.00    -0.225 C  
BRANCH   8   9
HETATM    9  N   UNL     1     -10.045  16.662  66.995  1.00  0.00    -0.274 N  
HETATM   10  C   UNL     1     -10.415  17.262  68.172  1.00  0.00    -0.382 C  
HETATM   11  H   UNL     1     -10.376  17.047  66.111  1.00  0.00     0.000 HD 
HETATM   12  O   UNL     1     -10.042  16.938  69.287  1.00  0.00    -0.272 OA 
BRANCH  10  13
HETATM   13  O   UNL     1     -11.253  18.302  67.914  1.00  0.00    -0.043 OA 
BRANCH  13  14
HETATM   14  C   UNL     1     -10.600  19.545  67.601  1.00  0.00    -0.440 C  
HETATM   15  C   UNL     1      -9.167  19.620  68.078  1.00  0.00    -0.409 C  
HETATM   16  O   UNL     1      -9.199  20.362  65.837  1.00  0.00    -0.150 OA 
HETATM   17  C   UNL     1      -8.529  20.561  67.086  1.00  0.00    -0.275 C  
HETATM   18  C   UNL     1     -10.443  19.693  66.092  1.00  0.00    -0.524 C  
ENDBRANCH  13  14
ENDBRANCH  10  13
ENDBRANCH   8   9
BRANCH   8  19
HETATM   19  C   UNL     1      -7.945  15.679  67.897  1.00  0.00    -0.151 C  
BRANCH  19  20
HETATM   20  C   UNL     1      -6.952  16.739  67.502  1.00  0.00    -0.167 A  
HETATM   21  C   UNL     1      -5.322  18.432  68.100  1.00  0.00    -0.170 A  
HETATM   22  C   UNL     1      -6.091  18.253  65.818  1.00  0.00    -0.268 A  
HETATM   23  C   UNL     1      -6.909  17.182  66.175  1.00  0.00    -0.158 A  
HETATM   24  C   UNL     1      -6.146  17.366  68.462  1.00  0.00    -0.167 A  
HETATM   25  C   UNL     1      -5.301  18.879  66.779  1.00  0.00    -0.153 A  
ENDBRANCH  19  20
ENDBRANCH   8  19
ENDBRANCH   7   8
BRANCH   7  26
HETATM   26  O   UNL     1     -11.456  14.173  66.925  1.00  0.00    -0.325 OA 
HETATM   27  O   UNL     1     -12.510  14.195  63.821  1.00  0.00    -0.791 OA 
HETATM   28  O   UNL     1     -12.094  12.559  65.395  1.00  0.00    -0.433 OA 
HETATM   29  O   UNL     1     -10.516  14.291  64.676  1.00  0.00    -0.425 OA 
HETATM   30  P   UNL     1     -12.012  14.184  65.287  1.00  0.00    -0.414 P  
ENDBRANCH   7  26
ENDBRANCH   6   7
ENDBRANCH   5   6
BRANCH   5  31
HETATM   31  S   UNL     1     -11.410  11.475  69.182  1.00  0.00    -0.314 S  
HETATM   32  O   UNL     1     -12.243  10.953  68.120  1.00  0.00    -0.503 OA 
HETATM   33  O   UNL     1     -11.869  12.642  69.909  1.00  0.00    -0.318 OA 
BRANCH  31  34
HETATM   34  C   UNL     1     -11.286  10.178  70.359  1.00  0.00    -0.326 A  
HETATM   35  N   UNL     1     -11.112   7.273  73.362  1.00  0.00    -0.581 NA 
HETATM   36  C   UNL     1     -10.046   9.665  70.733  1.00  0.00    -0.293 A  
HETATM   37  H1  UNL     1     -11.968   6.930  73.799  1.00  0.00     0.000 HD 
HETATM   38  H2  UNL     1     -10.502   7.634  74.096  1.00  0.00     0.000 HD 
HETATM   39  C   UNL     1     -12.438   9.835  71.070  1.00  0.00    -0.414 A  
HETATM   40  C   UNL     1     -12.376   8.863  72.056  1.00  0.00    -0.460 A  
HETATM   41  C   UNL     1      -9.994   8.692  71.734  1.00  0.00    -0.371 A  
HETATM   42  C   UNL     1     -11.169   8.220  72.334  1.00  0.00    -0.381 A  
ENDBRANCH  31  34
ENDBRANCH   5  31
ENDBRANCH   4   5
TORSDOF 12
ENDMDL
MODEL       65
REMARK 921   NORMALIZED FREE ENERGY PREDICTED BY IDOCK:   -6.06 KCAL/MOL
REMARK 922        TOTAL FREE ENERGY PREDICTED BY IDOCK:  -13.12 KCAL/MOL
REMARK 923 INTER-LIGAND FREE ENERGY PREDICTED BY IDOCK:  -11.32 KCAL/MOL
REMARK 924 INTRA-LIGAND FREE ENERGY PREDICTED BY IDOCK:   -1.80 KCAL/MOL
REMARK 927      BINDING AFFINITY PREDICTED BY RF-SCORE:    0.00 PKD
ROOT
HETATM    1  C   UNL     1      -6.289  14.445  67.613  1.00  0.00    -0.126 C  
HETATM    2  C   UNL     1      -7.264  14.060  68.713  1.00  0.00    -0.113 C  
HETATM    3  C   UNL     1      -6.899  14.616  70.091  1.00  0.00    -0.051 C  
HETATM    4  C   UNL     1      -8.784  14.062  68.520  1.00  0.00    -0.156 C  
ENDROOT
BRANCH   4   5
HETATM    5  N   UNL     1      -9.608  14.972  67.672  1.00  0.00    -0.202 N  
BRANCH   5   6
HETATM    6  C   UNL     1      -9.492  14.444  66.211  1.00  0.00    -0.271 C  
BRANCH   6   7
HETATM    7  C   UNL     1     -10.440  13.218  65.825  1.00  0.00    -0.284 C  
BRANCH   7   8
HETATM    8  C   UNL     1     -10.103  11.920  66.713  1.00  0.00    -0.202 C  
BRANCH   8   9
HETATM    9  N   UNL     1     -11.158  11.609  67.695  1.00  0.00    -0.237 N  
HETATM   10  C   UNL     1     -10.872  10.935  68.855  1.00  0.00    -0.219 C  
HETATM   11  H   UNL     1     -12.117  11.900  67.508  1.00  0.00     0.000 HD 
HETATM   12  O   UNL     1      -9.764  10.585  69.223  1.00  0.00    -0.214 OA 
BRANCH  10  13
HETATM   13  O   UNL     1     -12.017  10.728  69.560  1.00  0.00    -0.300 OA 
BRANCH  13  14
HETATM   14  C   UNL     1     -11.848  10.010  70.795  1.00  0.00    -0.346 C  
HETATM   15  C   UNL     1     -12.980  10.208  71.778  1.00  0.00    -0.567 C  
HETATM   16  O   UNL     1     -12.545   7.890  71.667  1.00  0.00    -0.305 OA 
HETATM   17  C   UNL     1     -12.974   8.919  72.564  1.00  0.00    -0.351 C  
HETATM   18  C   UNL     1     -11.903   8.507  70.542  1.00  0.00    -0.014 C  
ENDBRANCH  13  14
ENDBRANCH  10  13
ENDBRANCH   8   9
BRANCH   8  19
HETATM   19  C   UNL     1      -9.651  10.643  65.967  1.00  0.00    -0.244 C  
BRANCH  19  20
HETATM   20  C   UNL     1      -8.200  10.253  66.062  1.00  0.00    -0.141 A  
HETATM   21  C   UNL     1      -5.910  10.771  66.671  1.00  0.00    -0.084 A  
HETATM   22  C   UNL     1      -6.393   8.793  65.373  1.00  0.00    -0.062 A  
HETATM   23  C   UNL     1      -7.752   9.099  65.409  1.00  0.00    -0.098 A  
HETATM   24  C   UNL     1      -7.270  11.084  66.700  1.00  0.00    -0.143 A  
HETATM   25  C   UNL     1      -5.473   9.630  66.001  1.00  0.00    -0.043 A  
ENDBRANCH  19  20
ENDBRANCH   8  19
ENDBRANCH   7   8
BRANCH   7  26
HETATM   26  O   UNL     1     -10.534  13.012  64.368  1.00  0.00    -0.378 OA 
HETATM   27  O   UNL     1     -13.399  11.970  63.161  1.00  0.00    -0.427 OA 
HETATM   28  O   UNL     1     -12.442  14.034  63.552  1.00  0.00    -0.826 OA 
HETATM   29  O   UNL     1     -12.693  12.236  65.198  1.00  0.00    -0.571 OA 
HETATM   30  P   UNL     1     -12.046  12.463  63.731  1.00  0.00    -0.576 P  
ENDBRANCH   7  26
ENDBRANCH   6   7
ENDBRANCH   5   6
BRANCH   5  31
HETATM   31  S   UNL     1     -11.200  15.514  67.976  1.00  0.00    -0.320 S  
HETATM   32  O   UNL     1     -12.136  14.671  67.261  1.00  0.00    -0.358 OA 
HETATM   33  O   UNL     1     -11.236  16.942  67.737  1.00  0.00    -0.201 OA 
BRANCH  31  34
HETATM   34  C   UNL     1     -11.575  15.289  69.676  1.00  0.00    -0.321 A  
HETATM   35  N   UNL     1     -12.753  14.721  73.648  1.00  0.00    -0.482 NA 
HETATM   36  C   UNL     1     -11.351  16.307  70.601  1.00  0.00    -0.321 A  
HETATM   37  H1  UNL     1     -13.179  13.842  73.940  1.00  0.00     0.000 HD 
HETATM   38  H2  UNL     1     -13.395  15.480  73.884  1.00  0.00     0.000 HD 
HETATM   39  C   UNL     1     -12.308  14.156  70.035  1.00  0.00    -0.403 A  
HETATM   40  C   UNL     1     -12.685  13.967  71.356  1.00  0.00    -0.442 A  
HETATM   41  C   UNL     1     -11.743  16.110  71.927  1.00  0.00    -0.575 A  
HETATM   42  C   UNL     1     -12.327  14.902  72.328  1.00  0.00    -0.344 A  
ENDBRANCH  31  34
ENDBRANCH   5  31
ENDBRANCH   4   5
TORSDOF 12
ENDMDL
MODEL       66
REMARK 921   NORMALIZED FREE ENERGY PREDICTED BY IDOCK:   -6.06 KCAL/MOL
REMARK 922        TOTAL FREE ENERGY PREDICTED BY IDOCK:  -13.11 KCAL/MOL
REMARK 923 INTER-LIGAND FREE ENERGY PREDICTED BY IDOCK:  -10.78 KCAL/MOL
REMARK 924 INTRA-LIGAND FREE ENERGY PREDICTED BY IDOCK:   -2.34 KCAL/MOL
REMARK 927      BINDING AFFINITY PREDICTED BY RF-SCORE:    0.00 PKD
ROOT
HETATM    1  C   UNL     1      -6.295   4.129  68.398  1.00  0.00    -0.036 C  
HETATM    2  C   UNL     1      -7.330   4.689  67.437  1.00  0.00    -0.074 C  
HETATM    3  C   UNL     1      -8.193   3.622  66.759  1.00  0.00    -0.096 C  
HETATM    4  C   UNL     1      -8.165   5.937  67.744  1.00  0.00    -0.105 C  
ENDROOT
BRANCH   4   5
HETATM    5  N   UNL     1      -8.673   6.409  69.066  1.00  0.00    -0.123 N  
BRANCH   5   6
HETATM    6  C   UNL     1      -9.617   7.613  68.773  1.00  0.00    -0.153 C  
BRANCH   6   7
HETATM    7  C   UNL     1      -9.099   9.049  69.242  1.00  0.00    -0.145 C  
BRANCH   7   8
HETATM    8  C   UNL     1     -10.149  10.203  68.852  1.00  0.00    -0.200 C  
BRANCH   8   9
HETATM    9  N   UNL     1     -10.328  10.344  67.396  1.00  0.00    -0.214 N  
HETATM   10  C   UNL     1      -9.674  11.324  66.692  1.00  0.00    -0.196 C  
HETATM   11  H   UNL     1     -10.948   9.702  66.903  1.00  0.00     0.000 HD 
HETATM   12  O   UNL     1      -8.865  12.114  67.149  1.00  0.00    -0.177 OA 
BRANCH  10  13
HETATM   13  O   UNL     1     -10.047  11.276  65.384  1.00  0.00    -0.238 OA 
BRANCH  13  14
HETATM   14  C   UNL     1     -10.728  12.448  64.904  1.00  0.00    -0.294 C  
HETATM   15  C   UNL     1     -11.199  12.339  63.471  1.00  0.00    -0.535 C  
HETATM   16  O   UNL     1     -13.006  13.175  64.741  1.00  0.00    -0.725 OA 
HETATM   17  C   UNL     1     -12.408  13.243  63.442  1.00  0.00    -0.324 C  
HETATM   18  C   UNL     1     -12.040  12.642  65.658  1.00  0.00    -0.443 C  
ENDBRANCH  13  14
ENDBRANCH  10  13
ENDBRANCH   8   9
BRANCH   8  19
HETATM   19  C   UNL     1     -11.515  10.200  69.577  1.00  0.00    -0.227 C  
BRANCH  19  20
HETATM   20  C   UNL     1     -12.033  11.513  70.100  1.00  0.00    -0.452 A  
HETATM   21  C   UNL     1     -12.063  13.938  70.058  1.00  0.00    -0.411 A  
HETATM   22  C   UNL     1     -13.166  12.751  71.848  1.00  0.00    -0.511 A  
HETATM   23  C   UNL     1     -12.790  11.536  71.277  1.00  0.00    -0.463 A  
HETATM   24  C   UNL     1     -11.678  12.724  69.489  1.00  0.00    -0.383 A  
HETATM   25  C   UNL     1     -12.800  13.950  71.241  1.00  0.00    -0.435 A  
ENDBRANCH  19  20
ENDBRANCH   8  19
ENDBRANCH   7   8
BRANCH   7  26
HETATM   26  O   UNL     1      -7.691   9.289  68.875  1.00  0.00    -0.077 OA 
HETATM   27  O   UNL     1      -5.551   9.791  71.308  1.00  0.00    -0.068 OA 
HETATM   28  O   UNL     1      -6.307   7.943  70.150  1.00  0.00    -0.033 OA 
HETATM   29  O   UNL     1      -7.713   9.590  71.296  1.00  0.00    -0.322 OA 
HETATM   30  P   UNL     1      -6.562   9.554  70.159  1.00  0.00    -0.099 P  
ENDBRANCH   7  26
ENDBRANCH   6   7
ENDBRANCH   5   6
BRANCH   5  31
HETATM   31  S   UNL     1      -9.312   5.455  70.332  1.00  0.00    -0.165 S  
HETATM   32  O   UNL     1      -8.269   5.184  71.299  1.00  0.00    -0.112 OA 
HETATM   33  O   UNL     1     -10.006   4.333  69.734  1.00  0.00    -0.222 OA 
BRANCH  31  34
HETATM   34  C   UNL     1     -10.525   6.380  71.200  1.00  0.00    -0.221 A  
HETATM   35  N   UNL     1     -13.480   8.719  73.013  1.00  0.00    -0.938 NA 
HETATM   36  C   UNL     1     -10.163   7.255  72.224  1.00  0.00    -0.225 A  
HETATM   37  H1  UNL     1     -14.454   8.634  72.725  1.00  0.00     0.000 HD 
HETATM   38  H2  UNL     1     -13.199   9.695  72.907  1.00  0.00     0.000 HD 
HETATM   39  C   UNL     1     -11.825   6.386  70.690  1.00  0.00    -0.318 A  
HETATM   40  C   UNL     1     -12.803   7.154  71.303  1.00  0.00    -0.399 A  
HETATM   41  C   UNL     1     -11.155   8.031  72.828  1.00  0.00    -0.448 A  
HETATM   42  C   UNL     1     -12.494   7.914  72.433  1.00  0.00    -0.167 A  
ENDBRANCH  31  34
ENDBRANCH   5  31
ENDBRANCH   4   5
TORSDOF 12
ENDMDL
MODEL       67
REMARK 921   NORMALIZED FREE ENERGY PREDICTED BY IDOCK:   -6.05 KCAL/MOL
REMARK 922        TOTAL FREE ENERGY PREDICTED BY IDOCK:  -13.10 KCAL/MOL
REMARK 923 INTER-LIGAND FREE ENERGY PREDICTED BY IDOCK:  -10.37 KCAL/MOL
REMARK 924 INTRA-LIGAND FREE ENERGY PREDICTED BY IDOCK:   -2.74 KCAL/MOL
REMARK 927      BINDING AFFINITY PREDICTED BY RF-SCORE:    0.00 PKD
ROOT
HETATM    1  C   UNL     1     -12.667   6.903  70.984  1.00  0.00    -0.269 C  
HETATM    2  C   UNL     1     -12.428   8.384  71.234  1.00  0.00    -0.264 C  
HETATM    3  C   UNL     1     -12.794   8.844  72.647  1.00  0.00    -0.316 C  
HETATM    4  C   UNL     1     -11.181   9.123  70.736  1.00  0.00    -0.277 C  
ENDROOT
BRANCH   4   5
HETATM    5  N   UNL     1      -9.792   8.600  70.586  1.00  0.00    -0.175 N  
BRANCH   5   6
HETATM    6  C   UNL     1      -8.978   9.708  69.853  1.00  0.00    -0.221 C  
BRANCH   6   7
HETATM    7  C   UNL     1      -9.134   9.766  68.265  1.00  0.00    -0.122 C  
BRANCH   7   8
HETATM    8  C   UNL     1      -9.911  11.097  67.805  1.00  0.00    -0.171 C  
BRANCH   8   9
HETATM    9  N   UNL     1     -10.222  11.995  68.931  1.00  0.00    -0.407 N  
HETATM   10  C   UNL     1     -11.519  12.290  69.267  1.00  0.00    -0.292 C  
HETATM   11  H   UNL     1      -9.460  12.405  69.470  1.00  0.00     0.000 HD 
HETATM   12  O   UNL     1     -12.517  11.823  68.743  1.00  0.00    -0.209 OA 
BRANCH  10  13
HETATM   13  O   UNL     1     -11.536  13.176  70.299  1.00  0.00    -0.170 OA 
BRANCH  13  14
HETATM   14  C   UNL     1     -12.823  13.755  70.581  1.00  0.00    -0.192 C  
HETATM   15  C   UNL     1     -13.401  13.342  71.915  1.00  0.00    -0.540 C  
HETATM   16  O   UNL     1     -13.628  15.686  71.749  1.00  0.00    -0.481 OA 
HETATM   17  C   UNL     1     -14.262  14.523  72.292  1.00  0.00    -0.473 C  
HETATM   18  C   UNL     1     -12.697  15.266  70.741  1.00  0.00    -0.433 C  
ENDBRANCH  13  14
ENDBRANCH  10  13
ENDBRANCH   8   9
BRANCH   8  19
HETATM   19  C   UNL     1      -9.325  11.889  66.613  1.00  0.00    -0.210 C  
BRANCH  19  20
HETATM   20  C   UNL     1     -10.275  12.708  65.781  1.00  0.00    -0.288 A  
HETATM   21  C   UNL     1     -10.994  14.846  64.886  1.00  0.00    -0.422 A  
HETATM   22  C   UNL     1     -12.416  12.907  64.664  1.00  0.00    -0.499 A  
HETATM   23  C   UNL     1     -11.464  12.130  65.321  1.00  0.00    -0.388 A  
HETATM   24  C   UNL     1     -10.043  14.072  65.552  1.00  0.00    -0.343 A  
HETATM   25  C   UNL     1     -12.183  14.264  64.450  1.00  0.00    -0.471 A  
ENDBRANCH  19  20
ENDBRANCH   8  19
ENDBRANCH   7   8
BRANCH   7  26
HETATM   26  O   UNL     1      -9.617   8.493  67.697  1.00  0.00    -0.146 OA 
HETATM   27  O   UNL     1      -7.605   6.871  65.679  1.00  0.00    -0.081 OA 
HETATM   28  O   UNL     1      -8.000   6.858  67.953  1.00  0.00    -0.111 OA 
HETATM   29  O   UNL     1      -7.461   8.830  66.603  1.00  0.00    -0.084 OA 
HETATM   30  P   UNL     1      -8.555   7.637  66.632  1.00  0.00    -0.146 P  
ENDBRANCH   7  26
ENDBRANCH   6   7
ENDBRANCH   5   6
BRANCH   5  31
HETATM   31  S   UNL     1      -8.828   7.861  71.787  1.00  0.00    -0.136 S  
HETATM   32  O   UNL     1      -8.816   8.694  72.971  1.00  0.00    -0.355 OA 
HETATM   33  O   UNL     1      -7.560   7.506  71.181  1.00  0.00    -0.079 OA 
BRANCH  31  34
HETATM   34  C   UNL     1      -9.575   6.353  72.285  1.00  0.00    -0.150 A  
HETATM   35  N   UNL     1     -11.177   2.761  73.708  1.00  0.00    -0.212 NA 
HETATM   36  C   UNL     1      -9.473   5.206  71.498  1.00  0.00    -0.197 A  
HETATM   37  H1  UNL     1     -11.655   2.730  74.609  1.00  0.00     0.000 HD 
HETATM   38  H2  UNL     1     -10.418   2.079  73.726  1.00  0.00     0.000 HD 
HETATM   39  C   UNL     1     -10.076   6.275  73.586  1.00  0.00    -0.241 A  
HETATM   40  C   UNL     1     -10.617   5.085  74.048  1.00  0.00    -0.348 A  
HETATM   41  C   UNL     1     -10.013   4.011  71.977  1.00  0.00    -0.246 A  
HETATM   42  C   UNL     1     -10.670   3.968  73.214  1.00  0.00    -0.201 A  
ENDBRANCH  31  34
ENDBRANCH   5  31
ENDBRANCH   4   5
TORSDOF 12
ENDMDL
MODEL       68
REMARK 921   NORMALIZED FREE ENERGY PREDICTED BY IDOCK:   -6.05 KCAL/MOL
REMARK 922        TOTAL FREE ENERGY PREDICTED BY IDOCK:  -13.10 KCAL/MOL
REMARK 923 INTER-LIGAND FREE ENERGY PREDICTED BY IDOCK:  -11.53 KCAL/MOL
REMARK 924 INTRA-LIGAND FREE ENERGY PREDICTED BY IDOCK:   -1.57 KCAL/MOL
REMARK 927      BINDING AFFINITY PREDICTED BY RF-SCORE:    0.00 PKD
ROOT
HETATM    1  C   UNL     1     -10.263  13.863  64.792  1.00  0.00    -0.353 C  
HETATM    2  C   UNL     1     -11.652  14.124  65.350  1.00  0.00    -0.334 C  
HETATM    3  C   UNL     1     -12.626  12.957  65.170  1.00  0.00    -0.536 C  
HETATM    4  C   UNL     1     -11.894  14.821  66.693  1.00  0.00    -0.242 C  
ENDROOT
BRANCH   4   5
HETATM    5  N   UNL     1     -11.063  14.760  67.931  1.00  0.00    -0.282 N  
BRANCH   5   6
HETATM    6  C   UNL     1     -11.097  13.280  68.416  1.00  0.00    -0.270 C  
BRANCH   6   7
HETATM    7  C   UNL     1     -11.792  13.015  69.829  1.00  0.00    -0.311 C  
BRANCH   7   8
HETATM    8  C   UNL     1     -11.886  11.441  70.145  1.00  0.00    -0.355 C  
BRANCH   8   9
HETATM    9  N   UNL     1     -10.597  10.746  69.978  1.00  0.00    -0.459 N  
HETATM   10  C   UNL     1     -10.380   9.897  68.922  1.00  0.00    -0.205 C  
HETATM   11  H   UNL     1      -9.854  10.899  70.659  1.00  0.00     0.000 HD 
HETATM   12  O   UNL     1     -11.160   9.674  68.012  1.00  0.00    -0.188 OA 
BRANCH  10  13
HETATM   13  O   UNL     1      -9.140   9.346  69.024  1.00  0.00    -0.136 OA 
BRANCH  13  14
HETATM   14  C   UNL     1      -9.123   7.917  69.192  1.00  0.00    -0.145 C  
HETATM   15  C   UNL     1      -8.714   7.160  67.948  1.00  0.00    -0.126 C  
HETATM   16  O   UNL     1      -7.480   6.265  69.751  1.00  0.00    -0.077 OA 
HETATM   17  C   UNL     1      -8.088   5.905  68.507  1.00  0.00    -0.106 C  
HETATM   18  C   UNL     1      -8.036   7.516  70.183  1.00  0.00    -0.111 C  
ENDBRANCH  13  14
ENDBRANCH  10  13
ENDBRANCH   8   9
BRANCH   8  19
HETATM   19  C   UNL     1     -12.574  11.017  71.464  1.00  0.00    -0.461 C  
BRANCH  19  20
HETATM   20  C   UNL     1     -12.733   9.544  71.730  1.00  0.00    -0.492 A  
HETATM   21  C   UNL     1     -11.773   7.374  72.234  1.00  0.00    -0.326 A  
HETATM   22  C   UNL     1     -14.097   7.546  71.599  1.00  0.00    -0.562 A  
HETATM   23  C   UNL     1     -13.966   8.929  71.486  1.00  0.00    -0.365 A  
HETATM   24  C   UNL     1     -11.638   8.758  72.113  1.00  0.00    -0.434 A  
HETATM   25  C   UNL     1     -13.001   6.769  71.969  1.00  0.00    -0.156 A  
ENDBRANCH  19  20
ENDBRANCH   8  19
ENDBRANCH   7   8
BRANCH   7  26
HETATM   26  O   UNL     1     -13.031  13.797  70.006  1.00  0.00    -0.017 OA 
HETATM   27  O   UNL     1     -13.059  16.088  72.351  1.00  0.00    -0.448 OA 
HETATM   28  O   UNL     1     -12.526  16.052  70.105  1.00  0.00    -0.243 OA 
HETATM   29  O   UNL     1     -11.597  14.572  71.822  1.00  0.00    -0.181 OA 
HETATM   30  P   UNL     1     -13.045  15.006  71.243  1.00  0.00    -0.471 P  
ENDBRANCH   7  26
ENDBRANCH   6   7
ENDBRANCH   5   6
BRANCH   5  31
HETATM   31  S   UNL     1      -9.504  15.419  68.166  1.00  0.00    -0.204 S  
HETATM   32  O   UNL     1      -8.591  14.844  67.200  1.00  0.00    -0.197 OA 
HETATM   33  O   UNL     1      -9.181  15.302  69.574  1.00  0.00    -0.243 OA 
BRANCH  31  34
HETATM   34  C   UNL     1      -9.539  17.137  67.809  1.00  0.00    -0.256 A  
HETATM   35  N   UNL     1      -9.332  21.215  66.906  1.00  0.00    -0.445 NA 
HETATM   36  C   UNL     1      -9.886  18.067  68.789  1.00  0.00    -0.360 A  
HETATM   37  H1  UNL     1      -9.053  21.524  65.975  1.00  0.00     0.000 HD 
HETATM   38  H2  UNL     1      -8.703  21.643  67.586  1.00  0.00     0.000 HD 
HETATM   39  C   UNL     1      -8.996  17.559  66.594  1.00  0.00    -0.283 A  
HETATM   40  C   UNL     1      -8.942  18.912  66.295  1.00  0.00    -0.267 A  
HETATM   41  C   UNL     1      -9.819  19.427  68.480  1.00  0.00    -0.509 A  
HETATM   42  C   UNL     1      -9.435  19.852  67.201  1.00  0.00    -0.373 A  
ENDBRANCH  31  34
ENDBRANCH   5  31
ENDBRANCH   4   5
TORSDOF 12
ENDMDL
MODEL       69
REMARK 921   NORMALIZED FREE ENERGY PREDICTED BY IDOCK:   -6.04 KCAL/MOL
REMARK 922        TOTAL FREE ENERGY PREDICTED BY IDOCK:  -13.08 KCAL/MOL
REMARK 923 INTER-LIGAND FREE ENERGY PREDICTED BY IDOCK:  -10.61 KCAL/MOL
REMARK 924 INTRA-LIGAND FREE ENERGY PREDICTED BY IDOCK:   -2.47 KCAL/MOL
REMARK 927      BINDING AFFINITY PREDICTED BY RF-SCORE:    0.00 PKD
ROOT
HETATM    1  C   UNL     1     -11.618  14.143  64.721  1.00  0.00    -0.400 C  
HETATM    2  C   UNL     1     -12.069  12.754  65.142  1.00  0.00    -0.498 C  
HETATM    3  C   UNL     1     -12.782  11.969  64.038  1.00  0.00    -0.415 C  
HETATM    4  C   UNL     1     -11.204  11.817  65.991  1.00  0.00    -0.296 C  
ENDROOT
BRANCH   4   5
HETATM    5  N   UNL     1      -9.717  11.681  65.999  1.00  0.00    -0.226 N  
BRANCH   5   6
HETATM    6  C   UNL     1      -9.245  12.061  67.434  1.00  0.00    -0.180 C  
BRANCH   6   7
HETATM    7  C   UNL     1     -10.390  12.449  68.476  1.00  0.00    -0.221 C  
BRANCH   7   8
HETATM    8  C   UNL     1     -10.474  14.042  68.682  1.00  0.00    -0.247 C  
BRANCH   8   9
HETATM    9  N   UNL     1      -9.745  14.792  67.644  1.00  0.00    -0.212 N  
HETATM   10  C   UNL     1      -8.889  15.812  67.974  1.00  0.00    -0.176 C  
HETATM   11  H   UNL     1      -9.879  14.549  66.663  1.00  0.00     0.000 HD 
HETATM   12  O   UNL     1      -8.597  16.163  69.105  1.00  0.00    -0.244 OA 
BRANCH  10  13
HETATM   13  O   UNL     1      -8.386  16.374  66.842  1.00  0.00    -0.187 OA 
BRANCH  13  14
HETATM   14  C   UNL     1      -8.086  17.778  66.943  1.00  0.00    -0.228 C  
HETATM   15  C   UNL     1      -7.003  18.241  65.994  1.00  0.00    -0.315 C  
HETATM   16  O   UNL     1      -8.789  19.778  65.825  1.00  0.00    -0.375 OA 
HETATM   17  C   UNL     1      -7.362  19.688  65.752  1.00  0.00    -0.304 C  
HETATM   18  C   UNL     1      -9.283  18.607  66.492  1.00  0.00    -0.320 C  
ENDBRANCH  13  14
ENDBRANCH  10  13
ENDBRANCH   8   9
BRANCH   8  19
HETATM   19  C   UNL     1     -11.872  14.658  68.928  1.00  0.00    -0.344 C  
BRANCH  19  20
HETATM   20  C   UNL     1     -12.269  14.951  70.350  1.00  0.00    -0.393 A  
HETATM   21  C   UNL     1     -11.928  16.147  72.433  1.00  0.00    -0.649 A  
HETATM   22  C   UNL     1     -13.481  14.300  72.344  1.00  0.00    -0.586 A  
HETATM   23  C   UNL     1     -13.200  14.126  70.990  1.00  0.00    -0.337 A  
HETATM   24  C   UNL     1     -11.639  15.969  71.080  1.00  0.00    -0.472 A  
HETATM   25  C   UNL     1     -12.843  15.307  73.066  1.00  0.00    -0.577 A  
ENDBRANCH  19  20
ENDBRANCH   8  19
ENDBRANCH   7   8
BRANCH   7  26
HETATM   26  O   UNL     1     -10.342  11.629  69.701  1.00  0.00     0.174 OA 
HETATM   27  O   UNL     1     -13.039   9.950  70.512  1.00  0.00    -0.167 OA 
HETATM   28  O   UNL     1     -11.153   9.508  69.256  1.00  0.00    -0.190 OA 
HETATM   29  O   UNL     1     -12.658  11.419  68.959  1.00  0.00    -0.271 OA 
HETATM   30  P   UNL     1     -11.765  10.743  70.128  1.00  0.00    -0.382 P  
ENDBRANCH   7  26
ENDBRANCH   6   7
ENDBRANCH   5   6
BRANCH   5  31
HETATM   31  S   UNL     1      -8.793  10.374  65.403  1.00  0.00    -0.188 S  
HETATM   32  O   UNL     1      -7.397  10.756  65.360  1.00  0.00    -0.068 OA 
HETATM   33  O   UNL     1      -9.418   9.910  64.180  1.00  0.00    -0.280 OA 
BRANCH  31  34
HETATM   34  C   UNL     1      -8.877   9.038  66.538  1.00  0.00    -0.135 A  
HETATM   35  N   UNL     1      -8.810   5.769  69.144  1.00  0.00    -0.112 NA 
HETATM   36  C   UNL     1      -9.865   8.061  66.425  1.00  0.00    -0.237 A  
HETATM   37  H1  UNL     1      -8.093   5.699  69.867  1.00  0.00     0.000 HD 
HETATM   38  H2  UNL     1      -8.767   4.926  68.570  1.00  0.00     0.000 HD 
HETATM   39  C   UNL     1      -7.801   8.859  67.410  1.00  0.00    -0.097 A  
HETATM   40  C   UNL     1      -7.791   7.780  68.280  1.00  0.00    -0.121 A  
HETATM   41  C   UNL     1      -9.840   6.974  67.301  1.00  0.00    -0.214 A  
HETATM   42  C   UNL     1      -8.855   6.877  68.293  1.00  0.00    -0.122 A  
ENDBRANCH  31  34
ENDBRANCH   5  31
ENDBRANCH   4   5
TORSDOF 12
ENDMDL
MODEL       70
REMARK 921   NORMALIZED FREE ENERGY PREDICTED BY IDOCK:   -6.04 KCAL/MOL
REMARK 922        TOTAL FREE ENERGY PREDICTED BY IDOCK:  -13.08 KCAL/MOL
REMARK 923 INTER-LIGAND FREE ENERGY PREDICTED BY IDOCK:  -10.95 KCAL/MOL
REMARK 924 INTRA-LIGAND FREE ENERGY PREDICTED BY IDOCK:   -2.13 KCAL/MOL
REMARK 927      BINDING AFFINITY PREDICTED BY RF-SCORE:    0.00 PKD
ROOT
HETATM    1  C   UNL     1      -5.457  13.794  67.919  1.00  0.00    -0.097 C  
HETATM    2  C   UNL     1      -6.513  14.274  68.901  1.00  0.00    -0.092 C  
HETATM    3  C   UNL     1      -6.080  15.477  69.742  1.00  0.00    -0.153 C  
HETATM    4  C   UNL     1      -7.999  14.377  68.544  1.00  0.00    -0.144 C  
ENDROOT
BRANCH   4   5
HETATM    5  N   UNL     1      -8.614  14.719  67.227  1.00  0.00    -0.199 N  
BRANCH   5   6
HETATM    6  C   UNL     1     -10.094  14.236  67.291  1.00  0.00    -0.252 C  
BRANCH   6   7
HETATM    7  C   UNL     1     -10.440  12.908  66.474  1.00  0.00    -0.265 C  
BRANCH   7   8
HETATM    8  C   UNL     1      -9.680  11.632  67.090  1.00  0.00    -0.181 C  
BRANCH   8   9
HETATM    9  N   UNL     1     -10.011  11.399  68.508  1.00  0.00    -0.196 N  
HETATM   10  C   UNL     1     -11.309  11.217  68.914  1.00  0.00    -0.278 C  
HETATM   11  H   UNL     1      -9.261  11.372  69.199  1.00  0.00     0.000 HD 
HETATM   12  O   UNL     1     -12.285  11.168  68.185  1.00  0.00    -0.612 OA 
BRANCH  10  13
HETATM   13  O   UNL     1     -11.351  11.075  70.266  1.00  0.00    -0.284 OA 
BRANCH  13  14
HETATM   14  C   UNL     1     -11.913   9.833  70.728  1.00  0.00    -0.299 C  
HETATM   15  C   UNL     1     -10.975   9.021  71.591  1.00  0.00    -0.435 C  
HETATM   16  O   UNL     1     -13.062   9.085  72.694  1.00  0.00    -0.426 OA 
HETATM   17  C   UNL     1     -11.917   8.252  72.485  1.00  0.00    -0.356 C  
HETATM   18  C   UNL     1     -13.072  10.103  71.682  1.00  0.00    -0.447 C  
ENDBRANCH  13  14
ENDBRANCH  10  13
ENDBRANCH   8   9
BRANCH   8  19
HETATM   19  C   UNL     1      -9.736  10.311  66.287  1.00  0.00    -0.263 C  
BRANCH  19  20
HETATM   20  C   UNL     1      -8.473   9.847  65.613  1.00  0.00    -0.152 A  
HETATM   21  C   UNL     1      -7.222   8.150  64.413  1.00  0.00    -0.084 A  
HETATM   22  C   UNL     1      -6.089  10.105  65.265  1.00  0.00    -0.117 A  
HETATM   23  C   UNL     1      -7.296  10.587  65.769  1.00  0.00    -0.137 A  
HETATM   24  C   UNL     1      -8.429   8.626  64.924  1.00  0.00    -0.180 A  
HETATM   25  C   UNL     1      -6.052   8.886  64.591  1.00  0.00    -0.066 A  
ENDBRANCH  19  20
ENDBRANCH   8  19
ENDBRANCH   7   8
BRANCH   7  26
HETATM   26  O   UNL     1     -10.332  13.097  65.015  1.00  0.00    -0.317 OA 
HETATM   27  O   UNL     1     -13.034  12.628  63.219  1.00  0.00    -0.595 OA 
HETATM   28  O   UNL     1     -12.062  14.439  64.268  1.00  0.00    -0.470 OA 
HETATM   29  O   UNL     1     -12.617  12.299  65.324  1.00  0.00    -0.583 OA 
HETATM   30  P   UNL     1     -11.758  12.850  64.068  1.00  0.00    -0.505 P  
ENDBRANCH   7  26
ENDBRANCH   6   7
ENDBRANCH   5   6
BRANCH   5  31
HETATM   31  S   UNL     1      -8.516  16.207  66.393  1.00  0.00    -0.325 S  
HETATM   32  O   UNL     1      -9.412  16.176  65.256  1.00  0.00    -0.320 OA 
HETATM   33  O   UNL     1      -7.115  16.493  66.159  1.00  0.00    -0.047 OA 
BRANCH  31  34
HETATM   34  C   UNL     1      -9.117  17.492  67.426  1.00  0.00    -0.237 A  
HETATM   35  N   UNL     1     -10.603  20.712  69.642  1.00  0.00    -0.219 NA 
HETATM   36  C   UNL     1      -8.275  18.139  68.330  1.00  0.00    -0.314 A  
HETATM   37  H1  UNL     1     -11.575  21.006  69.537  1.00  0.00     0.000 HD 
HETATM   38  H2  UNL     1     -10.004  21.515  69.446  1.00  0.00     0.000 HD 
HETATM   39  C   UNL     1     -10.390  17.999  67.159  1.00  0.00    -0.382 A  
HETATM   40  C   UNL     1     -10.882  19.058  67.905  1.00  0.00    -0.287 A  
HETATM   41  C   UNL     1      -8.778  19.211  69.070  1.00  0.00    -0.238 A  
HETATM   42  C   UNL     1     -10.112  19.615  68.928  1.00  0.00    -0.401 A  
ENDBRANCH  31  34
ENDBRANCH   5  31
ENDBRANCH   4   5
TORSDOF 12
ENDMDL
MODEL       71
REMARK 921   NORMALIZED FREE ENERGY PREDICTED BY IDOCK:   -6.03 KCAL/MOL
REMARK 922        TOTAL FREE ENERGY PREDICTED BY IDOCK:  -13.07 KCAL/MOL
REMARK 923 INTER-LIGAND FREE ENERGY PREDICTED BY IDOCK:  -11.04 KCAL/MOL
REMARK 924 INTRA-LIGAND FREE ENERGY PREDICTED BY IDOCK:   -2.03 KCAL/MOL
REMARK 927      BINDING AFFINITY PREDICTED BY RF-SCORE:    0.00 PKD
ROOT
HETATM    1  C   UNL     1     -12.740   8.598  72.029  1.00  0.00    -0.427 C  
HETATM    2  C   UNL     1     -11.231   8.769  71.960  1.00  0.00    -0.443 C  
HETATM    3  C   UNL     1     -10.457   7.847  72.904  1.00  0.00    -0.422 C  
HETATM    4  C   UNL     1     -10.471   8.948  70.642  1.00  0.00    -0.221 C  
ENDROOT
BRANCH   4   5
HETATM    5  N   UNL     1     -10.783   8.361  69.306  1.00  0.00    -0.176 N  
BRANCH   5   6
HETATM    6  C   UNL     1     -10.666   9.522  68.274  1.00  0.00    -0.194 C  
BRANCH   6   7
HETATM    7  C   UNL     1      -9.652  10.699  68.645  1.00  0.00    -0.179 C  
BRANCH   7   8
HETATM    8  C   UNL     1     -10.421  12.103  68.800  1.00  0.00    -0.176 C  
BRANCH   8   9
HETATM    9  N   UNL     1     -10.208  13.001  67.651  1.00  0.00    -0.214 N  
HETATM   10  C   UNL     1     -11.004  12.928  66.536  1.00  0.00    -0.275 C  
HETATM   11  H   UNL     1      -9.457  13.689  67.686  1.00  0.00     0.000 HD 
HETATM   12  O   UNL     1     -11.968  12.194  66.392  1.00  0.00    -0.611 OA 
BRANCH  10  13
HETATM   13  O   UNL     1     -10.573  13.821  65.604  1.00  0.00    -0.283 OA 
BRANCH  13  14
HETATM   14  C   UNL     1     -11.102  15.151  65.748  1.00  0.00    -0.330 C  
HETATM   15  C   UNL     1     -10.056  16.196  66.064  1.00  0.00    -0.372 C  
HETATM   16  O   UNL     1     -11.399  17.053  64.321  1.00  0.00    -1.191 OA 
HETATM   17  C   UNL     1     -10.642  17.453  65.469  1.00  0.00    -0.108 C  
HETATM   18  C   UNL     1     -11.655  15.644  64.415  1.00  0.00    -0.249 C  
ENDBRANCH  13  14
ENDBRANCH  10  13
ENDBRANCH   8   9
BRANCH   8  19
HETATM   19  C   UNL     1     -11.915  12.058  69.197  1.00  0.00    -0.326 C  
BRANCH  19  20
HETATM   20  C   UNL     1     -12.394  13.036  70.236  1.00  0.00    -0.311 A  
HETATM   21  C   UNL     1     -13.545  13.509  72.318  1.00  0.00    -0.690 A  
HETATM   22  C   UNL     1     -12.900  15.322  70.859  1.00  0.00    -0.511 A  
HETATM   23  C   UNL     1     -12.341  14.409  69.967  1.00  0.00    -0.391 A  
HETATM   24  C   UNL     1     -12.993  12.592  71.422  1.00  0.00    -0.353 A  
HETATM   25  C   UNL     1     -13.504  14.873  72.031  1.00  0.00    -0.487 A  
ENDBRANCH  19  20
ENDBRANCH   8  19
ENDBRANCH   7   8
BRANCH   7  26
HETATM   26  O   UNL     1      -8.449  10.699  67.791  1.00  0.00    -0.115 OA 
HETATM   27  O   UNL     1      -5.539  10.374  69.266  1.00  0.00    -0.038 OA 
HETATM   28  O   UNL     1      -7.084   8.919  68.360  1.00  0.00    -0.074 OA 
HETATM   29  O   UNL     1      -7.546  10.625  70.057  1.00  0.00    -0.073 OA 
HETATM   30  P   UNL     1      -6.914  10.527  68.570  1.00  0.00    -0.072 P  
ENDBRANCH   7  26
ENDBRANCH   6   7
ENDBRANCH   5   6
BRANCH   5  31
HETATM   31  S   UNL     1     -10.162   6.917  68.637  1.00  0.00    -0.182 S  
HETATM   32  O   UNL     1      -9.086   7.237  67.722  1.00  0.00    -0.126 OA 
HETATM   33  O   UNL     1     -11.281   6.141  68.141  1.00  0.00    -0.314 OA 
BRANCH  31  34
HETATM   34  C   UNL     1      -9.423   5.959  69.909  1.00  0.00    -0.150 A  
HETATM   35  N   UNL     1      -7.876   3.774  73.122  1.00  0.00    -0.077 NA 
HETATM   36  C   UNL     1      -8.130   6.232  70.355  1.00  0.00    -0.116 A  
HETATM   37  H1  UNL     1      -8.429   3.036  73.558  1.00  0.00     0.000 HD 
HETATM   38  H2  UNL     1      -7.612   4.445  73.844  1.00  0.00     0.000 HD 
HETATM   39  C   UNL     1     -10.241   5.071  70.612  1.00  0.00    -0.306 A  
HETATM   40  C   UNL     1      -9.718   4.340  71.668  1.00  0.00    -0.243 A  
HETATM   41  C   UNL     1      -7.618   5.497  71.425  1.00  0.00    -0.103 A  
HETATM   42  C   UNL     1      -8.377   4.483  72.025  1.00  0.00    -0.112 A  
ENDBRANCH  31  34
ENDBRANCH   5  31
ENDBRANCH   4   5
TORSDOF 12
ENDMDL
MODEL       72
REMARK 921   NORMALIZED FREE ENERGY PREDICTED BY IDOCK:   -6.03 KCAL/MOL
REMARK 922        TOTAL FREE ENERGY PREDICTED BY IDOCK:  -13.07 KCAL/MOL
REMARK 923 INTER-LIGAND FREE ENERGY PREDICTED BY IDOCK:   -9.65 KCAL/MOL
REMARK 924 INTRA-LIGAND FREE ENERGY PREDICTED BY IDOCK:   -3.41 KCAL/MOL
REMARK 927      BINDING AFFINITY PREDICTED BY RF-SCORE:    0.00 PKD
ROOT
HETATM    1  C   UNL     1      -8.185   5.153  66.951  1.00  0.00    -0.108 C  
HETATM    2  C   UNL     1      -9.607   5.532  67.333  1.00  0.00    -0.128 C  
HETATM    3  C   UNL     1     -10.004   5.114  68.750  1.00  0.00    -0.237 C  
HETATM    4  C   UNL     1     -10.234   6.885  66.978  1.00  0.00    -0.248 C  
ENDROOT
BRANCH   4   5
HETATM    5  N   UNL     1      -9.568   8.217  66.880  1.00  0.00    -0.190 N  
BRANCH   5   6
HETATM    6  C   UNL     1      -8.827   8.443  68.231  1.00  0.00    -0.139 C  
BRANCH   6   7
HETATM    7  C   UNL     1      -9.568   9.373  69.297  1.00  0.00    -0.171 C  
BRANCH   7   8
HETATM    8  C   UNL     1      -9.678  10.888  68.771  1.00  0.00    -0.189 C  
BRANCH   8   9
HETATM    9  N   UNL     1     -10.590  11.712  69.584  1.00  0.00    -0.419 N  
HETATM   10  C   UNL     1     -11.898  11.898  69.216  1.00  0.00    -0.318 C  
HETATM   11  H   UNL     1     -10.242  12.151  70.437  1.00  0.00     0.000 HD 
HETATM   12  O   UNL     1     -12.451  11.384  68.258  1.00  0.00    -0.314 OA 
BRANCH  10  13
HETATM   13  O   UNL     1     -12.509  12.734  70.099  1.00  0.00    -0.185 OA 
BRANCH  13  14
HETATM   14  C   UNL     1     -11.703  13.838  70.546  1.00  0.00    -0.130 C  
HETATM   15  C   UNL     1     -11.504  14.913  69.501  1.00  0.00    -0.325 C  
HETATM   16  O   UNL     1     -12.112  15.993  71.511  1.00  0.00    -0.432 OA 
HETATM   17  C   UNL     1     -11.320  16.161  70.330  1.00  0.00    -0.363 C  
HETATM   18  C   UNL     1     -12.421  14.599  71.655  1.00  0.00    -0.345 C  
ENDBRANCH  13  14
ENDBRANCH  10  13
ENDBRANCH   8   9
BRANCH   8  19
HETATM   19  C   UNL     1      -8.357  11.644  68.488  1.00  0.00    -0.140 C  
BRANCH  19  20
HETATM   20  C   UNL     1      -8.453  13.057  67.979  1.00  0.00    -0.181 A  
HETATM   21  C   UNL     1      -8.047  15.432  68.256  1.00  0.00    -0.136 A  
HETATM   22  C   UNL     1      -9.459  14.652  66.458  1.00  0.00    -0.319 A  
HETATM   23  C   UNL     1      -9.251  13.335  66.864  1.00  0.00    -0.242 A  
HETATM   24  C   UNL     1      -7.845  14.115  68.669  1.00  0.00    -0.137 A  
HETATM   25  C   UNL     1      -8.860  15.700  67.155  1.00  0.00    -0.228 A  
ENDBRANCH  19  20
ENDBRANCH   8  19
ENDBRANCH   7   8
BRANCH   7  26
HETATM   26  O   UNL     1      -9.050   9.188  70.666  1.00  0.00    -0.216 OA 
HETATM   27  O   UNL     1     -11.169   8.220  72.973  1.00  0.00    -0.264 OA 
HETATM   28  O   UNL     1      -9.753   7.147  71.500  1.00  0.00    -0.165 OA 
HETATM   29  O   UNL     1     -11.450   8.810  70.902  1.00  0.00    -0.275 OA 
HETATM   30  P   UNL     1     -10.169   8.677  71.883  1.00  0.00    -0.333 P  
ENDBRANCH   7  26
ENDBRANCH   6   7
ENDBRANCH   5   6
BRANCH   5  31
HETATM   31  S   UNL     1      -8.623   8.810  65.585  1.00  0.00    -0.182 S  
HETATM   32  O   UNL     1      -8.483   7.775  64.582  1.00  0.00    -0.071 OA 
HETATM   33  O   UNL     1      -7.422   9.395  66.146  1.00  0.00    -0.094 OA 
BRANCH  31  34
HETATM   34  C   UNL     1      -9.484  10.117  64.790  1.00  0.00    -0.295 A  
HETATM   35  N   UNL     1     -11.781  13.067  62.916  1.00  0.00    -0.683 NA 
HETATM   36  C   UNL     1      -9.167  10.496  63.486  1.00  0.00    -0.300 A  
HETATM   37  H1  UNL     1     -12.548  13.518  63.415  1.00  0.00     0.000 HD 
HETATM   38  H2  UNL     1     -12.154  12.659  62.058  1.00  0.00     0.000 HD 
HETATM   39  C   UNL     1     -10.634  10.609  65.410  1.00  0.00    -0.185 A  
HETATM   40  C   UNL     1     -11.384  11.596  64.790  1.00  0.00    -0.270 A  
HETATM   41  C   UNL     1      -9.935  11.484  62.867  1.00  0.00    -0.246 A  
HETATM   42  C   UNL     1     -10.989  12.104  63.551  1.00  0.00    -0.453 A  
ENDBRANCH  31  34
ENDBRANCH   5  31
ENDBRANCH   4   5
TORSDOF 12
ENDMDL
MODEL       73
REMARK 921   NORMALIZED FREE ENERGY PREDICTED BY IDOCK:   -6.02 KCAL/MOL
REMARK 922        TOTAL FREE ENERGY PREDICTED BY IDOCK:  -13.05 KCAL/MOL
REMARK 923 INTER-LIGAND FREE ENERGY PREDICTED BY IDOCK:  -10.79 KCAL/MOL
REMARK 924 INTRA-LIGAND FREE ENERGY PREDICTED BY IDOCK:   -2.26 KCAL/MOL
REMARK 927      BINDING AFFINITY PREDICTED BY RF-SCORE:    0.00 PKD
ROOT
HETATM    1  C   UNL     1     -10.818   8.230  67.587  1.00  0.00    -0.083 C  
HETATM    2  C   UNL     1     -10.891   9.020  68.883  1.00  0.00    -0.075 C  
HETATM    3  C   UNL     1     -10.097   8.401  70.036  1.00  0.00    -0.192 C  
HETATM    4  C   UNL     1     -10.804  10.549  68.934  1.00  0.00    -0.235 C  
ENDROOT
BRANCH   4   5
HETATM    5  N   UNL     1     -10.021  11.462  68.051  1.00  0.00    -0.177 N  
BRANCH   5   6
HETATM    6  C   UNL     1     -10.144  12.888  68.667  1.00  0.00    -0.128 C  
BRANCH   6   7
HETATM    7  C   UNL     1     -10.846  13.994  67.754  1.00  0.00    -0.247 C  
BRANCH   7   8
HETATM    8  C   UNL     1     -10.747  15.452  68.427  1.00  0.00    -0.256 C  
BRANCH   8   9
HETATM    9  N   UNL     1     -10.178  16.464  67.519  1.00  0.00    -0.267 N  
HETATM   10  C   UNL     1      -8.852  16.438  67.168  1.00  0.00    -0.195 C  
HETATM   11  H   UNL     1     -10.782  17.196  67.144  1.00  0.00     0.000 HD 
HETATM   12  O   UNL     1      -8.042  15.588  67.498  1.00  0.00    -0.143 OA 
BRANCH  10  13
HETATM   13  O   UNL     1      -8.568  17.502  66.369  1.00  0.00    -0.264 OA 
BRANCH  13  14
HETATM   14  C   UNL     1      -8.434  18.759  67.056  1.00  0.00    -0.281 C  
HETATM   15  C   UNL     1      -7.497  18.711  68.241  1.00  0.00    -0.302 C  
HETATM   16  O   UNL     1      -6.925  20.618  66.973  1.00  0.00    -0.267 OA 
HETATM   17  C   UNL     1      -6.971  20.124  68.315  1.00  0.00    -0.286 C  
HETATM   18  C   UNL     1      -7.756  19.783  66.153  1.00  0.00    -0.332 C  
ENDBRANCH  13  14
ENDBRANCH  10  13
ENDBRANCH   8   9
BRANCH   8  19
HETATM   19  C   UNL     1     -12.008  15.997  69.139  1.00  0.00    -0.187 C  
BRANCH  19  20
HETATM   20  C   UNL     1     -12.262  15.551  70.554  1.00  0.00    -0.444 A  
HETATM   21  C   UNL     1     -13.794  14.911  72.323  1.00  0.00    -0.588 A  
HETATM   22  C   UNL     1     -11.466  15.311  72.830  1.00  0.00    -0.325 A  
HETATM   23  C   UNL     1     -11.220  15.592  71.487  1.00  0.00    -0.399 A  
HETATM   24  C   UNL     1     -13.551  15.201  70.980  1.00  0.00    -0.473 A  
HETATM   25  C   UNL     1     -12.752  14.974  73.248  1.00  0.00    -0.635 A  
ENDBRANCH  19  20
ENDBRANCH   8  19
ENDBRANCH   7   8
BRANCH   7  26
HETATM   26  O   UNL     1     -12.180  13.576  67.284  1.00  0.00    -0.351 OA 
HETATM   27  O   UNL     1     -12.785  13.772  64.067  1.00  0.00    -0.669 OA 
HETATM   28  O   UNL     1     -11.961  12.144  65.480  1.00  0.00    -0.461 OA 
HETATM   29  O   UNL     1     -11.099  14.427  65.268  1.00  0.00    -0.311 OA 
HETATM   30  P   UNL     1     -12.499  13.679  65.586  1.00  0.00    -0.446 P  
ENDBRANCH   7  26
ENDBRANCH   6   7
ENDBRANCH   5   6
BRANCH   5  31
HETATM   31  S   UNL     1      -8.441  11.218  67.448  1.00  0.00    -0.141 S  
HETATM   32  O   UNL     1      -7.696  10.397  68.379  1.00  0.00    -0.093 OA 
HETATM   33  O   UNL     1      -7.900  12.513  67.085  1.00  0.00    -0.169 OA 
BRANCH  31  34
HETATM   34  C   UNL     1      -8.524  10.284  65.965  1.00  0.00    -0.140 A  
HETATM   35  N   UNL     1      -8.425   8.077  62.413  1.00  0.00    -0.378 NA 
HETATM   36  C   UNL     1      -9.187  10.777  64.842  1.00  0.00    -0.243 A  
HETATM   37  H1  UNL     1      -7.941   7.181  62.376  1.00  0.00     0.000 HD 
HETATM   38  H2  UNL     1      -8.031   8.683  61.693  1.00  0.00     0.000 HD 
HETATM   39  C   UNL     1      -7.721   9.145  65.869  1.00  0.00    -0.095 A  
HETATM   40  C   UNL     1      -7.702   8.411  64.693  1.00  0.00    -0.112 A  
HETATM   41  C   UNL     1      -9.154  10.034  63.660  1.00  0.00    -0.301 A  
HETATM   42  C   UNL     1      -8.489   8.802  63.608  1.00  0.00    -0.102 A  
ENDBRANCH  31  34
ENDBRANCH   5  31
ENDBRANCH   4   5
TORSDOF 12
ENDMDL
MODEL       74
REMARK 921   NORMALIZED FREE ENERGY PREDICTED BY IDOCK:   -5.94 KCAL/MOL
REMARK 922        TOTAL FREE ENERGY PREDICTED BY IDOCK:  -12.92 KCAL/MOL
REMARK 923 INTER-LIGAND FREE ENERGY PREDICTED BY IDOCK:  -10.87 KCAL/MOL
REMARK 924 INTRA-LIGAND FREE ENERGY PREDICTED BY IDOCK:   -2.04 KCAL/MOL
REMARK 927      BINDING AFFINITY PREDICTED BY RF-SCORE:    0.00 PKD
ROOT
HETATM    1  C   UNL     1      -8.178   8.853  71.562  1.00  0.00    -0.143 C  
HETATM    2  C   UNL     1      -7.310   9.716  70.661  1.00  0.00    -0.112 C  
HETATM    3  C   UNL     1      -6.005   9.045  70.225  1.00  0.00    -0.034 C  
HETATM    4  C   UNL     1      -7.878  10.572  69.524  1.00  0.00    -0.127 C  
ENDROOT
BRANCH   4   5
HETATM    5  N   UNL     1      -9.054  10.288  68.651  1.00  0.00    -0.144 N  
BRANCH   5   6
HETATM    6  C   UNL     1      -8.903  11.197  67.394  1.00  0.00    -0.139 C  
BRANCH   6   7
HETATM    7  C   UNL     1     -10.038  12.298  67.176  1.00  0.00    -0.208 C  
BRANCH   7   8
HETATM    8  C   UNL     1     -10.398  13.044  68.555  1.00  0.00    -0.239 C  
BRANCH   8   9
HETATM    9  N   UNL     1      -9.422  14.090  68.911  1.00  0.00    -0.397 N  
HETATM   10  C   UNL     1      -9.357  15.268  68.211  1.00  0.00    -0.194 C  
HETATM   11  H   UNL     1      -8.783  13.934  69.691  1.00  0.00     0.000 HD 
HETATM   12  O   UNL     1     -10.097  15.600  67.301  1.00  0.00    -0.248 OA 
BRANCH  10  13
HETATM   13  O   UNL     1      -8.346  16.036  68.700  1.00  0.00    -0.179 OA 
BRANCH  13  14
HETATM   14  C   UNL     1      -8.049  17.212  67.925  1.00  0.00    -0.201 C  
HETATM   15  C   UNL     1      -8.708  18.470  68.444  1.00  0.00    -0.351 C  
HETATM   16  O   UNL     1      -6.442  18.987  68.029  1.00  0.00    -0.219 OA 
HETATM   17  C   UNL     1      -7.755  19.556  68.009  1.00  0.00    -0.299 C  
HETATM   18  C   UNL     1      -6.568  17.557  68.038  1.00  0.00    -0.172 C  
ENDBRANCH  13  14
ENDBRANCH  10  13
ENDBRANCH   8   9
BRANCH   8  19
HETATM   19  C   UNL     1     -11.846  13.558  68.732  1.00  0.00    -0.390 C  
BRANCH  19  20
HETATM   20  C   UNL     1     -12.391  13.650  70.132  1.00  0.00    -0.372 A  
HETATM   21  C   UNL     1     -13.376  12.603  72.087  1.00  0.00    -0.570 A  
HETATM   22  C   UNL     1     -13.266  15.011  71.935  1.00  0.00    -0.455 A  
HETATM   23  C   UNL     1     -12.639  14.907  70.695  1.00  0.00    -0.420 A  
HETATM   24  C   UNL     1     -12.757  12.497  70.841  1.00  0.00    -0.270 A  
HETATM   25  C   UNL     1     -13.637  13.861  72.629  1.00  0.00    -0.626 A  
ENDBRANCH  19  20
ENDBRANCH   8  19
ENDBRANCH   7   8
BRANCH   7  26
HETATM   26  O   UNL     1     -11.177  11.788  66.389  1.00  0.00    -0.316 OA 
HETATM   27  O   UNL     1     -11.565  12.956  63.350  1.00  0.00    -0.498 OA 
HETATM   28  O   UNL     1     -10.454  11.161  64.283  1.00  0.00    -0.322 OA 
HETATM   29  O   UNL     1     -10.206  13.505  64.952  1.00  0.00    -0.360 OA 
HETATM   30  P   UNL     1     -11.381  12.404  64.785  1.00  0.00    -0.342 P  
ENDBRANCH   7  26
ENDBRANCH   6   7
ENDBRANCH   5   6
BRANCH   5  31
HETATM   31  S   UNL     1      -9.664   8.757  68.198  1.00  0.00    -0.163 S  
HETATM   32  O   UNL     1      -8.568   7.817  68.099  1.00  0.00    -0.123 OA 
HETATM   33  O   UNL     1     -10.519   8.945  67.043  1.00  0.00    -0.274 OA 
BRANCH  31  34
HETATM   34  C   UNL     1     -10.693   8.141  69.479  1.00  0.00    -0.175 A  
HETATM   35  N   UNL     1     -13.307   6.535  72.322  1.00  0.00    -0.462 NA 
HETATM   36  C   UNL     1     -11.428   9.006  70.288  1.00  0.00    -0.147 A  
HETATM   37  H1  UNL     1     -13.388   5.525  72.436  1.00  0.00     0.000 HD 
HETATM   38  H2  UNL     1     -14.235   6.910  72.124  1.00  0.00     0.000 HD 
HETATM   39  C   UNL     1     -10.929   6.765  69.517  1.00  0.00    -0.325 A  
HETATM   40  C   UNL     1     -11.787   6.237  70.469  1.00  0.00    -0.191 A  
HETATM   41  C   UNL     1     -12.296   8.464  71.239  1.00  0.00    -0.289 A  
HETATM   42  C   UNL     1     -12.409   7.076  71.396  1.00  0.00    -0.377 A  
ENDBRANCH  31  34
ENDBRANCH   5  31
ENDBRANCH   4   5
TORSDOF 12
ENDMDL
MODEL       75
REMARK 921   NORMALIZED FREE ENERGY PREDICTED BY IDOCK:   -5.93 KCAL/MOL
REMARK 922        TOTAL FREE ENERGY PREDICTED BY IDOCK:  -12.90 KCAL/MOL
REMARK 923 INTER-LIGAND FREE ENERGY PREDICTED BY IDOCK:  -11.58 KCAL/MOL
REMARK 924 INTRA-LIGAND FREE ENERGY PREDICTED BY IDOCK:   -1.32 KCAL/MOL
REMARK 927      BINDING AFFINITY PREDICTED BY RF-SCORE:    0.00 PKD
ROOT
HETATM    1  C   UNL     1     -10.153  20.058  68.205  1.00  0.00    -0.531 C  
HETATM    2  C   UNL     1     -10.810  18.969  67.372  1.00  0.00    -0.496 C  
HETATM    3  C   UNL     1     -10.744  19.214  65.863  1.00  0.00    -0.435 C  
HETATM    4  C   UNL     1     -10.657  17.476  67.680  1.00  0.00    -0.355 C  
ENDROOT
BRANCH   4   5
HETATM    5  N   UNL     1      -9.476  16.765  68.254  1.00  0.00    -0.233 N  
BRANCH   5   6
HETATM    6  C   UNL     1      -9.989  15.377  68.742  1.00  0.00    -0.208 C  
BRANCH   6   7
HETATM    7  C   UNL     1     -11.038  14.637  67.792  1.00  0.00    -0.298 C  
BRANCH   7   8
HETATM    8  C   UNL     1     -11.862  13.515  68.599  1.00  0.00    -0.369 C  
BRANCH   8   9
HETATM    9  N   UNL     1     -11.831  12.198  67.938  1.00  0.00    -0.323 N  
HETATM   10  C   UNL     1     -10.792  11.326  68.142  1.00  0.00    -0.217 C  
HETATM   11  H   UNL     1     -12.596  11.930  67.319  1.00  0.00     0.000 HD 
HETATM   12  O   UNL     1      -9.852  11.499  68.899  1.00  0.00    -0.173 OA 
BRANCH  10  13
HETATM   13  O   UNL     1     -10.973  10.211  67.384  1.00  0.00    -0.292 OA 
BRANCH  13  14
HETATM   14  C   UNL     1     -10.172   9.079  67.768  1.00  0.00    -0.230 C  
HETATM   15  C   UNL     1     -10.775   8.253  68.882  1.00  0.00    -0.089 C  
HETATM   16  O   UNL     1     -10.083   6.754  67.194  1.00  0.00    -0.156 OA 
HETATM   17  C   UNL     1     -10.229   6.872  68.613  1.00  0.00    -0.173 C  
HETATM   18  C   UNL     1     -10.102   8.071  66.625  1.00  0.00    -0.259 C  
ENDBRANCH  13  14
ENDBRANCH  10  13
ENDBRANCH   8   9
BRANCH   8  19
HETATM   19  C   UNL     1     -11.586  13.379  70.115  1.00  0.00    -0.171 C  
BRANCH  19  20
HETATM   20  C   UNL     1     -12.278  14.341  71.042  1.00  0.00    -0.428 A  
HETATM   21  C   UNL     1     -12.206  15.916  72.886  1.00  0.00    -0.605 A  
HETATM   22  C   UNL     1     -14.334  15.165  72.024  1.00  0.00    -0.682 A  
HETATM   23  C   UNL     1     -13.676  14.378  71.081  1.00  0.00    -0.297 A  
HETATM   24  C   UNL     1     -11.546  15.122  71.948  1.00  0.00    -0.490 A  
HETATM   25  C   UNL     1     -13.600  15.930  72.928  1.00  0.00    -0.620 A  
ENDBRANCH  19  20
ENDBRANCH   8  19
ENDBRANCH   7   8
BRANCH   7  26
HETATM   26  O   UNL     1     -10.444  14.221  66.508  1.00  0.00    -0.280 OA 
HETATM   27  O   UNL     1     -12.316  14.440  63.826  1.00  0.00    -0.736 OA 
HETATM   28  O   UNL     1     -10.832  15.841  64.903  1.00  0.00    -0.436 OA 
HETATM   29  O   UNL     1     -12.759  14.732  65.932  1.00  0.00    -0.029 OA 
HETATM   30  P   UNL     1     -11.432  14.337  65.093  1.00  0.00    -0.390 P  
ENDBRANCH   7  26
ENDBRANCH   6   7
ENDBRANCH   5   6
BRANCH   5  31
HETATM   31  S   UNL     1      -7.923  16.607  67.559  1.00  0.00    -0.173 S  
HETATM   32  O   UNL     1      -7.152  17.801  67.836  1.00  0.00    -0.196 OA 
HETATM   33  O   UNL     1      -8.095  16.201  66.178  1.00  0.00    -0.262 OA 
BRANCH  31  34
HETATM   34  C   UNL     1      -7.062  15.300  68.354  1.00  0.00    -0.111 A  
HETATM   35  N   UNL     1      -5.252  12.019  70.209  1.00  0.00    -0.093 NA 
HETATM   36  C   UNL     1      -6.659  15.411  69.684  1.00  0.00    -0.178 A  
HETATM   37  H1  UNL     1      -5.088  11.157  69.689  1.00  0.00     0.000 HD 
HETATM   38  H2  UNL     1      -5.809  11.793  71.033  1.00  0.00     0.000 HD 
HETATM   39  C   UNL     1      -6.994  14.072  67.694  1.00  0.00    -0.198 A  
HETATM   40  C   UNL     1      -6.381  12.991  68.310  1.00  0.00    -0.089 A  
HETATM   41  C   UNL     1      -6.051  14.313  70.297  1.00  0.00    -0.168 A  
HETATM   42  C   UNL     1      -5.826  13.129  69.583  1.00  0.00    -0.109 A  
ENDBRANCH  31  34
ENDBRANCH   5  31
ENDBRANCH   4   5
TORSDOF 12
ENDMDL
MODEL       76
REMARK 921   NORMALIZED FREE ENERGY PREDICTED BY IDOCK:   -5.93 KCAL/MOL
REMARK 922        TOTAL FREE ENERGY PREDICTED BY IDOCK:  -12.89 KCAL/MOL
REMARK 923 INTER-LIGAND FREE ENERGY PREDICTED BY IDOCK:   -9.59 KCAL/MOL
REMARK 924 INTRA-LIGAND FREE ENERGY PREDICTED BY IDOCK:   -3.30 KCAL/MOL
REMARK 927      BINDING AFFINITY PREDICTED BY RF-SCORE:    0.00 PKD
ROOT
HETATM    1  C   UNL     1      -6.910   8.676  63.764  1.00  0.00    -0.087 C  
HETATM    2  C   UNL     1      -7.560   9.988  64.175  1.00  0.00    -0.140 C  
HETATM    3  C   UNL     1      -8.493  10.580  63.116  1.00  0.00    -0.167 C  
HETATM    4  C   UNL     1      -8.117  10.238  65.580  1.00  0.00    -0.155 C  
ENDROOT
BRANCH   4   5
HETATM    5  N   UNL     1      -8.760   9.263  66.509  1.00  0.00    -0.129 N  
BRANCH   5   6
HETATM    6  C   UNL     1     -10.281   9.600  66.522  1.00  0.00    -0.224 C  
BRANCH   6   7
HETATM    7  C   UNL     1     -10.663  11.138  66.712  1.00  0.00    -0.276 C  
BRANCH   7   8
HETATM    8  C   UNL     1     -10.436  11.611  68.232  1.00  0.00    -0.204 C  
BRANCH   8   9
HETATM    9  N   UNL     1     -10.187  13.059  68.350  1.00  0.00    -0.247 N  
HETATM   10  C   UNL     1      -8.923  13.575  68.215  1.00  0.00    -0.180 C  
HETATM   11  H   UNL     1     -10.968  13.688  68.534  1.00  0.00     0.000 HD 
HETATM   12  O   UNL     1      -7.918  12.942  67.938  1.00  0.00    -0.129 OA 
BRANCH  10  13
HETATM   13  O   UNL     1      -8.952  14.920  68.418  1.00  0.00    -0.170 OA 
BRANCH  13  14
HETATM   14  C   UNL     1      -9.754  15.658  67.478  1.00  0.00    -0.222 C  
HETATM   15  C   UNL     1     -10.234  16.993  68.000  1.00  0.00    -0.319 C  
HETATM   16  O   UNL     1      -9.361  17.358  65.836  1.00  0.00    -0.508 OA 
HETATM   17  C   UNL     1     -10.368  17.819  66.743  1.00  0.00    -0.343 C  
HETATM   18  C   UNL     1      -8.912  16.068  66.275  1.00  0.00    -0.345 C  
ENDBRANCH  13  14
ENDBRANCH  10  13
ENDBRANCH   8   9
BRANCH   8  19
HETATM   19  C   UNL     1     -11.466  11.142  69.287  1.00  0.00    -0.363 C  
BRANCH  19  20
HETATM   20  C   UNL     1     -11.015  10.130  70.306  1.00  0.00    -0.380 A  
HETATM   21  C   UNL     1     -11.473   8.716  72.223  1.00  0.00    -0.423 A  
HETATM   22  C   UNL     1      -9.202   9.007  71.455  1.00  0.00    -0.293 A  
HETATM   23  C   UNL     1      -9.652   9.839  70.432  1.00  0.00    -0.223 A  
HETATM   24  C   UNL     1     -11.925   9.556  71.205  1.00  0.00    -0.429 A  
HETATM   25  C   UNL     1     -10.111   8.449  72.352  1.00  0.00    -0.386 A  
ENDBRANCH  19  20
ENDBRANCH   8  19
ENDBRANCH   7   8
BRANCH   7  26
HETATM   26  O   UNL     1     -11.964  11.477  66.105  1.00  0.00    -0.257 OA 
HETATM   27  O   UNL     1     -12.019  13.878  63.872  1.00  0.00    -0.421 OA 
HETATM   28  O   UNL     1     -11.750  11.587  63.804  1.00  0.00    -0.357 OA 
HETATM   29  O   UNL     1     -10.443  13.142  65.173  1.00  0.00    -0.302 OA 
HETATM   30  P   UNL     1     -11.992  12.744  64.926  1.00  0.00    -0.452 P  
ENDBRANCH   7  26
ENDBRANCH   6   7
ENDBRANCH   5   6
BRANCH   5  31
HETATM   31  S   UNL     1      -8.533   7.570  66.554  1.00  0.00    -0.137 S  
HETATM   32  O   UNL     1      -7.120   7.281  66.679  1.00  0.00    -0.074 OA 
HETATM   33  O   UNL     1      -9.258   6.996  65.439  1.00  0.00     0.201 OA 
BRANCH  31  34
HETATM   34  C   UNL     1      -9.272   6.924  68.009  1.00  0.00    -0.121 A  
HETATM   35  N   UNL     1     -10.907   5.122  71.411  1.00  0.00    -0.086 NA 
HETATM   36  C   UNL     1     -10.658   6.866  68.145  1.00  0.00    -0.262 A  
HETATM   37  H1  UNL     1     -10.299   4.750  72.141  1.00  0.00     0.000 HD 
HETATM   38  H2  UNL     1     -11.517   4.370  71.090  1.00  0.00     0.000 HD 
HETATM   39  C   UNL     1      -8.444   6.267  68.921  1.00  0.00    -0.120 A  
HETATM   40  C   UNL     1      -8.990   5.682  70.053  1.00  0.00    -0.150 A  
HETATM   41  C   UNL     1     -11.198   6.266  69.285  1.00  0.00    -0.458 A  
HETATM   42  C   UNL     1     -10.364   5.756  70.288  1.00  0.00    -0.252 A  
ENDBRANCH  31  34
ENDBRANCH   5  31
ENDBRANCH   4   5
TORSDOF 12
ENDMDL
MODEL       77
REMARK 921   NORMALIZED FREE ENERGY PREDICTED BY IDOCK:   -5.91 KCAL/MOL
REMARK 922        TOTAL FREE ENERGY PREDICTED BY IDOCK:  -12.86 KCAL/MOL
REMARK 923 INTER-LIGAND FREE ENERGY PREDICTED BY IDOCK:  -10.24 KCAL/MOL
REMARK 924 INTRA-LIGAND FREE ENERGY PREDICTED BY IDOCK:   -2.62 KCAL/MOL
REMARK 927      BINDING AFFINITY PREDICTED BY RF-SCORE:    0.00 PKD
ROOT
HETATM    1  C   UNL     1     -11.770  15.239  72.456  1.00  0.00    -0.535 C  
HETATM    2  C   UNL     1     -12.804  14.216  72.016  1.00  0.00    -0.423 C  
HETATM    3  C   UNL     1     -14.230  14.766  71.933  1.00  0.00    -0.632 C  
HETATM    4  C   UNL     1     -12.553  13.208  70.889  1.00  0.00    -0.295 C  
ENDROOT
BRANCH   4   5
HETATM    5  N   UNL     1     -11.738  13.386  69.652  1.00  0.00    -0.309 N  
BRANCH   5   6
HETATM    6  C   UNL     1     -11.924  12.089  68.808  1.00  0.00    -0.244 C  
BRANCH   6   7
HETATM    7  C   UNL     1     -11.058  10.825  69.255  1.00  0.00    -0.256 C  
BRANCH   7   8
HETATM    8  C   UNL     1      -9.843  10.561  68.234  1.00  0.00    -0.149 C  
BRANCH   8   9
HETATM    9  N   UNL     1     -10.062  11.179  66.914  1.00  0.00    -0.208 N  
HETATM   10  C   UNL     1     -10.116  10.418  65.774  1.00  0.00    -0.262 C  
HETATM   11  H   UNL     1     -10.175  12.190  66.846  1.00  0.00     0.000 HD 
HETATM   12  O   UNL     1     -10.054   9.201  65.723  1.00  0.00    -0.229 OA 
BRANCH  10  13
HETATM   13  O   UNL     1     -10.273  11.225  64.690  1.00  0.00    -0.259 OA 
BRANCH  13  14
HETATM   14  C   UNL     1     -11.235  12.282  64.854  1.00  0.00    -0.319 C  
HETATM   15  C   UNL     1     -10.666  13.666  64.641  1.00  0.00    -0.433 C  
HETATM   16  O   UNL     1     -12.680  13.539  63.414  1.00  0.00    -0.706 OA 
HETATM   17  C   UNL     1     -11.859  14.451  64.152  1.00  0.00    -0.291 C  
HETATM   18  C   UNL     1     -12.298  12.201  63.764  1.00  0.00    -0.532 C  
ENDBRANCH  13  14
ENDBRANCH  10  13
ENDBRANCH   8   9
BRANCH   8  19
HETATM   19  C   UNL     1      -8.409  10.841  68.743  1.00  0.00    -0.147 C  
BRANCH  19  20
HETATM   20  C   UNL     1      -7.261  10.438  67.857  1.00  0.00    -0.085 A  
HETATM   21  C   UNL     1      -5.636  10.968  66.135  1.00  0.00    -0.147 A  
HETATM   22  C   UNL     1      -5.932   8.680  66.850  1.00  0.00    -0.057 A  
HETATM   23  C   UNL     1      -6.903   9.089  67.763  1.00  0.00    -0.070 A  
HETATM   24  C   UNL     1      -6.615  11.378  67.042  1.00  0.00    -0.125 A  
HETATM   25  C   UNL     1      -5.302   9.618  66.035  1.00  0.00    -0.036 A  
ENDBRANCH  19  20
ENDBRANCH   8  19
ENDBRANCH   7   8
BRANCH   7  26
HETATM   26  O   UNL     1     -11.894   9.659  69.597  1.00  0.00     0.060 OA 
HETATM   27  O   UNL     1     -11.215   8.068  72.383  1.00  0.00    -0.312 OA 
HETATM   28  O   UNL     1     -12.599   9.819  71.795  1.00  0.00    -0.373 OA 
HETATM   29  O   UNL     1     -10.194   9.682  71.348  1.00  0.00    -0.205 OA 
HETATM   30  P   UNL     1     -11.535   8.820  71.067  1.00  0.00    -0.295 P  
ENDBRANCH   7  26
ENDBRANCH   6   7
ENDBRANCH   5   6
BRANCH   5  31
HETATM   31  S   UNL     1     -11.695  14.753  68.627  1.00  0.00    -0.313 S  
HETATM   32  O   UNL     1     -12.217  15.901  69.339  1.00  0.00    -0.284 OA 
HETATM   33  O   UNL     1     -12.312  14.382  67.369  1.00  0.00    -0.300 OA 
BRANCH  31  34
HETATM   34  C   UNL     1     -10.025  15.150  68.260  1.00  0.00    -0.223 A  
HETATM   35  N   UNL     1      -6.100  16.013  67.105  1.00  0.00    -0.327 NA 
HETATM   36  C   UNL     1      -8.974  14.468  68.871  1.00  0.00    -0.109 A  
HETATM   37  H1  UNL     1      -5.914  16.728  66.402  1.00  0.00     0.000 HD 
HETATM   38  H2  UNL     1      -5.679  15.139  66.790  1.00  0.00     0.000 HD 
HETATM   39  C   UNL     1      -9.783  16.004  67.181  1.00  0.00    -0.231 A  
HETATM   40  C   UNL     1      -8.479  16.295  66.811  1.00  0.00    -0.283 A  
HETATM   41  C   UNL     1      -7.665  14.764  68.484  1.00  0.00    -0.120 A  
HETATM   42  C   UNL     1      -7.409  15.746  67.518  1.00  0.00    -0.178 A  
ENDBRANCH  31  34
ENDBRANCH   5  31
ENDBRANCH   4   5
TORSDOF 12
ENDMDL
MODEL       78
REMARK 921   NORMALIZED FREE ENERGY PREDICTED BY IDOCK:   -5.90 KCAL/MOL
REMARK 922        TOTAL FREE ENERGY PREDICTED BY IDOCK:  -12.84 KCAL/MOL
REMARK 923 INTER-LIGAND FREE ENERGY PREDICTED BY IDOCK:  -10.94 KCAL/MOL
REMARK 924 INTRA-LIGAND FREE ENERGY PREDICTED BY IDOCK:   -1.90 KCAL/MOL
REMARK 927      BINDING AFFINITY PREDICTED BY RF-SCORE:    0.00 PKD
ROOT
HETATM    1  C   UNL     1      -6.930   8.986  66.418  1.00  0.00    -0.080 C  
HETATM    2  C   UNL     1      -7.017   9.696  67.760  1.00  0.00    -0.079 C  
HETATM    3  C   UNL     1      -7.031  11.223  67.657  1.00  0.00    -0.085 C  
HETATM    4  C   UNL     1      -7.934   9.227  68.894  1.00  0.00    -0.098 C  
ENDROOT
BRANCH   4   5
HETATM    5  N   UNL     1      -9.274   8.577  68.793  1.00  0.00    -0.143 N  
BRANCH   5   6
HETATM    6  C   UNL     1     -10.204   9.591  68.063  1.00  0.00    -0.201 C  
BRANCH   6   7
HETATM    7  C   UNL     1     -11.138  10.491  68.994  1.00  0.00    -0.249 C  
BRANCH   7   8
HETATM    8  C   UNL     1     -11.176  12.015  68.481  1.00  0.00    -0.256 C  
BRANCH   8   9
HETATM    9  N   UNL     1     -11.058  12.991  69.579  1.00  0.00    -0.456 N  
HETATM   10  C   UNL     1     -11.499  14.282  69.433  1.00  0.00    -0.292 C  
HETATM   11  H   UNL     1     -10.642  12.701  70.464  1.00  0.00     0.000 HD 
HETATM   12  O   UNL     1     -12.065  14.737  68.454  1.00  0.00    -0.272 OA 
BRANCH  10  13
HETATM   13  O   UNL     1     -11.230  14.990  70.563  1.00  0.00    -0.267 OA 
BRANCH  13  14
HETATM   14  C   UNL     1     -12.355  15.690  71.123  1.00  0.00    -0.427 C  
HETATM   15  C   UNL     1     -13.562  14.813  71.366  1.00  0.00    -0.493 C  
HETATM   16  O   UNL     1     -13.219  16.088  73.323  1.00  0.00    -0.544 OA 
HETATM   17  C   UNL     1     -14.248  15.493  72.525  1.00  0.00    -0.415 C  
HETATM   18  C   UNL     1     -12.026  16.177  72.530  1.00  0.00    -0.561 C  
ENDBRANCH  13  14
ENDBRANCH  10  13
ENDBRANCH   8   9
BRANCH   8  19
HETATM   19  C   UNL     1     -10.248  12.396  67.304  1.00  0.00    -0.224 C  
BRANCH  19  20
HETATM   20  C   UNL     1     -10.821  12.340  65.913  1.00  0.00    -0.306 A  
HETATM   21  C   UNL     1     -12.672  12.661  64.378  1.00  0.00    -0.417 A  
HETATM   22  C   UNL     1     -10.680  11.512  63.641  1.00  0.00    -0.491 A  
HETATM   23  C   UNL     1     -10.109  11.689  64.899  1.00  0.00    -0.303 A  
HETATM   24  C   UNL     1     -12.105  12.832  65.642  1.00  0.00    -0.514 A  
HETATM   25  C   UNL     1     -11.962  11.994  63.382  1.00  0.00    -0.571 A  
ENDBRANCH  19  20
ENDBRANCH   8  19
ENDBRANCH   7   8
BRANCH   7  26
HETATM   26  O   UNL     1     -10.871  10.287  70.430  1.00  0.00    -0.294 OA 
HETATM   27  O   UNL     1     -13.423   9.588  72.366  1.00  0.00    -0.453 OA 
HETATM   28  O   UNL     1     -11.903   8.346  71.151  1.00  0.00    -0.285 OA 
HETATM   29  O   UNL     1     -13.303  10.156  70.273  1.00  0.00    -0.065 OA 
HETATM   30  P   UNL     1     -12.218   9.918  71.451  1.00  0.00    -0.424 P  
ENDBRANCH   7  26
ENDBRANCH   6   7
ENDBRANCH   5   6
BRANCH   5  31
HETATM   31  S   UNL     1      -9.618   6.986  68.275  1.00  0.00    -0.134 S  
HETATM   32  O   UNL     1      -8.572   6.538  67.379  1.00  0.00    -0.118 OA 
HETATM   33  O   UNL     1     -10.988   6.960  67.803  1.00  0.00    -0.241 OA 
BRANCH  31  34
HETATM   34  C   UNL     1      -9.550   5.899  69.652  1.00  0.00    -0.148 A  
HETATM   35  N   UNL     1      -9.118   3.420  72.991  1.00  0.00    -0.094 NA 
HETATM   36  C   UNL     1      -9.579   4.516  69.477  1.00  0.00    -0.266 A  
HETATM   37  H1  UNL     1      -9.016   3.821  73.923  1.00  0.00     0.000 HD 
HETATM   38  H2  UNL     1      -8.316   2.813  72.815  1.00  0.00     0.000 HD 
HETATM   39  C   UNL     1      -9.241   6.449  70.898  1.00  0.00    -0.161 A  
HETATM   40  C   UNL     1      -9.111   5.623  72.004  1.00  0.00    -0.145 A  
HETATM   41  C   UNL     1      -9.438   3.694  70.596  1.00  0.00    -0.242 A  
HETATM   42  C   UNL     1      -9.297   4.245  71.877  1.00  0.00    -0.131 A  
ENDBRANCH  31  34
ENDBRANCH   5  31
ENDBRANCH   4   5
TORSDOF 12
ENDMDL
MODEL       79
REMARK 921   NORMALIZED FREE ENERGY PREDICTED BY IDOCK:   -5.89 KCAL/MOL
REMARK 922        TOTAL FREE ENERGY PREDICTED BY IDOCK:  -12.83 KCAL/MOL
REMARK 923 INTER-LIGAND FREE ENERGY PREDICTED BY IDOCK:  -10.92 KCAL/MOL
REMARK 924 INTRA-LIGAND FREE ENERGY PREDICTED BY IDOCK:   -1.91 KCAL/MOL
REMARK 927      BINDING AFFINITY PREDICTED BY RF-SCORE:    0.00 PKD
ROOT
HETATM    1  C   UNL     1     -10.560   8.264  67.681  1.00  0.00    -0.264 C  
HETATM    2  C   UNL     1     -10.577   9.216  68.866  1.00  0.00    -0.214 C  
HETATM    3  C   UNL     1      -9.865   8.678  70.108  1.00  0.00    -0.191 C  
HETATM    4  C   UNL     1     -10.346  10.725  68.727  1.00  0.00    -0.192 C  
ENDROOT
BRANCH   4   5
HETATM    5  N   UNL     1      -9.465  11.442  67.759  1.00  0.00    -0.162 N  
BRANCH   5   6
HETATM    6  C   UNL     1      -9.517  12.950  68.145  1.00  0.00    -0.218 C  
BRANCH   6   7
HETATM    7  C   UNL     1     -10.369  13.898  67.183  1.00  0.00    -0.265 C  
BRANCH   7   8
HETATM    8  C   UNL     1     -10.245  15.439  67.625  1.00  0.00    -0.246 C  
BRANCH   8   9
HETATM    9  N   UNL     1     -10.279  15.619  69.088  1.00  0.00    -0.218 N  
HETATM   10  C   UNL     1     -11.430  15.999  69.730  1.00  0.00    -0.318 C  
HETATM   11  H   UNL     1      -9.432  15.456  69.632  1.00  0.00     0.000 HD 
HETATM   12  O   UNL     1     -12.518  16.167  69.207  1.00  0.00     0.016 OA 
BRANCH  10  13
HETATM   13  O   UNL     1     -11.186  16.145  71.061  1.00  0.00    -0.352 OA 
BRANCH  13  14
HETATM   14  C   UNL     1     -11.880  15.215  71.911  1.00  0.00    -0.404 C  
HETATM   15  C   UNL     1     -13.255  15.680  72.332  1.00  0.00    -0.559 C  
HETATM   16  O   UNL     1     -13.465  13.445  71.599  1.00  0.00    -0.360 OA 
HETATM   17  C   UNL     1     -14.003  14.384  72.535  1.00  0.00    -0.408 C  
HETATM   18  C   UNL     1     -12.195  13.935  71.144  1.00  0.00    -0.308 C  
ENDBRANCH  13  14
ENDBRANCH  10  13
ENDBRANCH   8   9
BRANCH   8  19
HETATM   19  C   UNL     1      -9.107  16.274  66.993  1.00  0.00    -0.226 C  
BRANCH  19  20
HETATM   20  C   UNL     1      -9.176  17.771  67.131  1.00  0.00    -0.253 A  
HETATM   21  C   UNL     1      -8.440  19.831  68.181  1.00  0.00    -0.327 A  
HETATM   22  C   UNL     1     -10.371  19.840  66.730  1.00  0.00    -0.604 A  
HETATM   23  C   UNL     1     -10.213  18.474  66.507  1.00  0.00    -0.440 A  
HETATM   24  C   UNL     1      -8.285  18.461  67.965  1.00  0.00    -0.286 A  
HETATM   25  C   UNL     1      -9.488  20.517  67.569  1.00  0.00    -0.520 A  
ENDBRANCH  19  20
ENDBRANCH   8  19
ENDBRANCH   7   8
BRANCH   7  26
HETATM   26  O   UNL     1     -11.733  13.388  66.949  1.00  0.00    -0.347 OA 
HETATM   27  O   UNL     1     -12.809  13.288  63.854  1.00  0.00    -0.633 OA 
HETATM   28  O   UNL     1     -11.703  11.819  65.249  1.00  0.00    -0.226 OA 
HETATM   29  O   UNL     1     -11.002  14.110  64.736  1.00  0.00    -0.371 OA 
HETATM   30  P   UNL     1     -12.300  13.335  65.316  1.00  0.00    -0.478 P  
ENDBRANCH   7  26
ENDBRANCH   6   7
ENDBRANCH   5   6
BRANCH   5  31
HETATM   31  S   UNL     1      -7.881  11.012  67.284  1.00  0.00    -0.128 S  
HETATM   32  O   UNL     1      -7.278  10.195  68.316  1.00  0.00    -0.078 OA 
HETATM   33  O   UNL     1      -7.198  12.222  66.874  1.00  0.00    -0.082 OA 
BRANCH  31  34
HETATM   34  C   UNL     1      -7.960   9.984  65.863  1.00  0.00    -0.124 A  
HETATM   35  N   UNL     1      -8.439   7.594  62.465  1.00  0.00    -0.386 NA 
HETATM   36  C   UNL     1      -7.662   8.624  65.944  1.00  0.00    -0.101 A  
HETATM   37  H1  UNL     1      -8.749   8.005  61.584  1.00  0.00     0.000 HD 
HETATM   38  H2  UNL     1      -9.086   6.845  62.712  1.00  0.00     0.000 HD 
HETATM   39  C   UNL     1      -8.544  10.513  64.711  1.00  0.00    -0.173 A  
HETATM   40  C   UNL     1      -8.689   9.720  63.583  1.00  0.00    -0.235 A  
HETATM   41  C   UNL     1      -7.820   7.832  64.804  1.00  0.00    -0.129 A  
HETATM   42  C   UNL     1      -8.245   8.396  63.594  1.00  0.00    -0.104 A  
ENDBRANCH  31  34
ENDBRANCH   5  31
ENDBRANCH   4   5
TORSDOF 12
ENDMDL
MODEL       80
REMARK 921   NORMALIZED FREE ENERGY PREDICTED BY IDOCK:   -5.89 KCAL/MOL
REMARK 922        TOTAL FREE ENERGY PREDICTED BY IDOCK:  -12.82 KCAL/MOL
REMARK 923 INTER-LIGAND FREE ENERGY PREDICTED BY IDOCK:  -10.06 KCAL/MOL
REMARK 924 INTRA-LIGAND FREE ENERGY PREDICTED BY IDOCK:   -2.77 KCAL/MOL
REMARK 927      BINDING AFFINITY PREDICTED BY RF-SCORE:    0.00 PKD
ROOT
HETATM    1  C   UNL     1      -8.267   7.642  65.637  1.00  0.00    -0.136 C  
HETATM    2  C   UNL     1      -7.086   7.981  66.532  1.00  0.00    -0.075 C  
HETATM    3  C   UNL     1      -5.835   8.426  65.770  1.00  0.00    -0.044 C  
HETATM    4  C   UNL     1      -7.227   8.771  67.837  1.00  0.00    -0.084 C  
ENDROOT
BRANCH   4   5
HETATM    5  N   UNL     1      -8.190   9.865  68.158  1.00  0.00    -0.108 N  
BRANCH   5   6
HETATM    6  C   UNL     1      -8.242   9.969  69.712  1.00  0.00    -0.178 C  
BRANCH   6   7
HETATM    7  C   UNL     1      -9.317   9.046  70.447  1.00  0.00    -0.208 C  
BRANCH   7   8
HETATM    8  C   UNL     1     -10.747   9.122  69.714  1.00  0.00    -0.228 C  
BRANCH   8   9
HETATM    9  N   UNL     1     -11.011   7.956  68.852  1.00  0.00    -0.424 N  
HETATM   10  C   UNL     1     -11.213   6.709  69.385  1.00  0.00    -0.299 C  
HETATM   11  H   UNL     1     -11.043   8.079  67.840  1.00  0.00     0.000 HD 
HETATM   12  O   UNL     1     -11.258   6.439  70.574  1.00  0.00    -0.300 OA 
BRANCH  10  13
HETATM   13  O   UNL     1     -11.382   5.803  68.384  1.00  0.00     0.051 OA 
BRANCH  13  14
HETATM   14  C   UNL     1     -10.166   5.366  67.750  1.00  0.00    -0.178 C  
HETATM   15  C   UNL     1      -9.517   4.179  68.424  1.00  0.00    -0.212 C  
HETATM   16  O   UNL     1      -9.570   3.727  66.107  1.00  0.00    -0.185 OA 
HETATM   17  C   UNL     1      -8.793   3.499  67.287  1.00  0.00    -0.131 C  
HETATM   18  C   UNL     1     -10.466   4.820  66.358  1.00  0.00    -0.239 C  
ENDBRANCH  13  14
ENDBRANCH  10  13
ENDBRANCH   8   9
BRANCH   8  19
HETATM   19  C   UNL     1     -11.980   9.451  70.588  1.00  0.00    -0.232 C  
BRANCH  19  20
HETATM   20  C   UNL     1     -12.387  10.895  70.712  1.00  0.00    -0.487 A  
HETATM   21  C   UNL     1     -12.193  13.210  70.012  1.00  0.00    -0.323 A  
HETATM   22  C   UNL     1     -13.437  12.653  72.006  1.00  0.00    -0.516 A  
HETATM   23  C   UNL     1     -13.162  11.302  71.803  1.00  0.00    -0.480 A  
HETATM   24  C   UNL     1     -11.910  11.858  69.812  1.00  0.00    -0.411 A  
HETATM   25  C   UNL     1     -12.950  13.606  71.113  1.00  0.00    -0.353 A  
ENDBRANCH  19  20
ENDBRANCH   8  19
ENDBRANCH   7   8
BRANCH   7  26
HETATM   26  O   UNL     1      -9.317   9.232  71.910  1.00  0.00    -0.299 OA 
HETATM   27  O   UNL     1      -8.018   6.845  73.745  1.00  0.00    -0.106 OA 
HETATM   28  O   UNL     1      -7.215   8.771  72.758  1.00  0.00    -0.329 OA 
HETATM   29  O   UNL     1      -8.432   6.977  71.617  1.00  0.00    -0.115 OA 
HETATM   30  P   UNL     1      -8.631   7.973  72.878  1.00  0.00    -0.225 P  
ENDBRANCH   7  26
ENDBRANCH   6   7
ENDBRANCH   5   6
BRANCH   5  31
HETATM   31  S   UNL     1      -8.257  11.424  67.462  1.00  0.00    -0.136 S  
HETATM   32  O   UNL     1      -7.018  11.687  66.760  1.00  0.00    -0.134 OA 
HETATM   33  O   UNL     1      -8.675  12.352  68.494  1.00  0.00    -0.152 OA 
BRANCH  31  34
HETATM   34  C   UNL     1      -9.508  11.458  66.232  1.00  0.00    -0.209 A  
HETATM   35  N   UNL     1     -12.296  11.681  63.123  1.00  0.00    -0.966 NA 
HETATM   36  C   UNL     1     -10.700  12.149  66.440  1.00  0.00    -0.292 A  
HETATM   37  H1  UNL     1     -12.114  11.218  62.232  1.00  0.00     0.000 HD 
HETATM   38  H2  UNL     1     -12.464  12.671  62.939  1.00  0.00     0.000 HD 
HETATM   39  C   UNL     1      -9.185  10.970  64.964  1.00  0.00    -0.219 A  
HETATM   40  C   UNL     1     -10.118  11.035  63.941  1.00  0.00    -0.414 A  
HETATM   41  C   UNL     1     -11.629  12.217  65.399  1.00  0.00    -0.412 A  
HETATM   42  C   UNL     1     -11.381  11.580  64.176  1.00  0.00    -0.267 A  
ENDBRANCH  31  34
ENDBRANCH   5  31
ENDBRANCH   4   5
TORSDOF 12
ENDMDL
MODEL       81
REMARK 921   NORMALIZED FREE ENERGY PREDICTED BY IDOCK:   -5.87 KCAL/MOL
REMARK 922        TOTAL FREE ENERGY PREDICTED BY IDOCK:  -12.79 KCAL/MOL
REMARK 923 INTER-LIGAND FREE ENERGY PREDICTED BY IDOCK:  -10.25 KCAL/MOL
REMARK 924 INTRA-LIGAND FREE ENERGY PREDICTED BY IDOCK:   -2.53 KCAL/MOL
REMARK 927      BINDING AFFINITY PREDICTED BY RF-SCORE:    0.00 PKD
ROOT
HETATM    1  C   UNL     1     -13.531  15.183  71.333  1.00  0.00    -0.561 C  
HETATM    2  C   UNL     1     -12.564  14.011  71.372  1.00  0.00    -0.451 C  
HETATM    3  C   UNL     1     -13.244  12.644  71.471  1.00  0.00    -0.313 C  
HETATM    4  C   UNL     1     -11.319  13.926  70.483  1.00  0.00     0.203 C  
ENDROOT
BRANCH   4   5
HETATM    5  N   UNL     1     -11.137  14.439  69.093  1.00  0.00    -0.256 N  
BRANCH   5   6
HETATM    6  C   UNL     1     -12.280  13.815  68.238  1.00  0.00    -0.142 C  
BRANCH   6   7
HETATM    7  C   UNL     1     -11.827  12.940  66.981  1.00  0.00    -0.374 C  
BRANCH   7   8
HETATM    8  C   UNL     1     -10.998  11.642  67.445  1.00  0.00    -0.261 C  
BRANCH   8   9
HETATM    9  N   UNL     1     -11.642  10.919  68.557  1.00  0.00    -0.349 N  
HETATM   10  C   UNL     1     -10.909  10.447  69.616  1.00  0.00    -0.277 C  
HETATM   11  H   UNL     1     -12.650  10.768  68.538  1.00  0.00     0.000 HD 
HETATM   12  O   UNL     1      -9.712  10.611  69.787  1.00  0.00    -0.074 OA 
BRANCH  10  13
HETATM   13  O   UNL     1     -11.723   9.776  70.475  1.00  0.00    -0.266 OA 
BRANCH  13  14
HETATM   14  C   UNL     1     -11.096   8.690  71.182  1.00  0.00    -0.266 C  
HETATM   15  C   UNL     1     -11.922   8.149  72.326  1.00  0.00    -0.434 C  
HETATM   16  O   UNL     1     -11.160   6.297  71.074  1.00  0.00    -0.270 OA 
HETATM   17  C   UNL     1     -11.483   6.707  72.407  1.00  0.00    -0.262 C  
HETATM   18  C   UNL     1     -10.971   7.473  70.272  1.00  0.00    -0.250 C  
ENDBRANCH  13  14
ENDBRANCH  10  13
ENDBRANCH   8   9
BRANCH   8  19
HETATM   19  C   UNL     1     -10.535  10.660  66.343  1.00  0.00    -0.276 C  
BRANCH  19  20
HETATM   20  C   UNL     1      -9.169  10.044  66.483  1.00  0.00    -0.182 A  
HETATM   21  C   UNL     1      -6.755  10.196  66.289  1.00  0.00    -0.102 A  
HETATM   22  C   UNL     1      -7.799   8.058  66.708  1.00  0.00    -0.103 A  
HETATM   23  C   UNL     1      -9.052   8.668  66.708  1.00  0.00    -0.183 A  
HETATM   24  C   UNL     1      -8.010  10.807  66.280  1.00  0.00    -0.160 A  
HETATM   25  C   UNL     1      -6.652   8.821  66.495  1.00  0.00    -0.063 A  
ENDBRANCH  19  20
ENDBRANCH   8  19
ENDBRANCH   7   8
BRANCH   7  26
HETATM   26  O   UNL     1     -11.225  13.757  65.911  1.00  0.00    -0.299 OA 
HETATM   27  O   UNL     1     -12.584  13.595  62.931  1.00  0.00    -0.621 OA 
HETATM   28  O   UNL     1     -12.880  14.926  64.793  1.00  0.00    -0.356 OA 
HETATM   29  O   UNL     1     -12.953  12.477  64.756  1.00  0.00    -0.827 OA 
HETATM   30  P   UNL     1     -11.943  13.671  64.339  1.00  0.00    -0.429 P  
ENDBRANCH   7  26
ENDBRANCH   6   7
ENDBRANCH   5   6
BRANCH   5  31
HETATM   31  S   UNL     1     -10.858  16.054  68.612  1.00  0.00    -0.321 S  
HETATM   32  O   UNL     1     -10.863  16.909  69.781  1.00  0.00    -0.281 OA 
HETATM   33  O   UNL     1     -11.775  16.359  67.531  1.00  0.00     0.231 OA 
BRANCH  31  34
HETATM   34  C   UNL     1      -9.242  16.190  67.941  1.00  0.00    -0.200 A  
HETATM   35  N   UNL     1      -5.313  16.662  66.588  1.00  0.00    -0.353 NA 
HETATM   36  C   UNL     1      -9.013  16.888  66.756  1.00  0.00    -0.264 A  
HETATM   37  H1  UNL     1      -4.536  16.253  67.107  1.00  0.00     0.000 HD 
HETATM   38  H2  UNL     1      -5.144  17.664  66.497  1.00  0.00     0.000 HD 
HETATM   39  C   UNL     1      -8.172  15.778  68.738  1.00  0.00    -0.192 A  
HETATM   40  C   UNL     1      -6.872  15.926  68.278  1.00  0.00    -0.121 A  
HETATM   41  C   UNL     1      -7.699  17.039  66.307  1.00  0.00    -0.346 A  
HETATM   42  C   UNL     1      -6.631  16.477  67.019  1.00  0.00    -0.199 A  
ENDBRANCH  31  34
ENDBRANCH   5  31
ENDBRANCH   4   5
TORSDOF 12
ENDMDL
MODEL       82
REMARK 921   NORMALIZED FREE ENERGY PREDICTED BY IDOCK:   -5.86 KCAL/MOL
REMARK 922        TOTAL FREE ENERGY PREDICTED BY IDOCK:  -12.78 KCAL/MOL
REMARK 923 INTER-LIGAND FREE ENERGY PREDICTED BY IDOCK:  -10.69 KCAL/MOL
REMARK 924 INTRA-LIGAND FREE ENERGY PREDICTED BY IDOCK:   -2.08 KCAL/MOL
REMARK 927      BINDING AFFINITY PREDICTED BY RF-SCORE:    0.00 PKD
ROOT
HETATM    1  C   UNL     1     -12.313  12.018  63.656  1.00  0.00    -0.648 C  
HETATM    2  C   UNL     1     -11.027  11.384  64.160  1.00  0.00    -0.411 C  
HETATM    3  C   UNL     1      -9.799  11.701  63.304  1.00  0.00    -0.428 C  
HETATM    4  C   UNL     1     -10.647  11.335  65.644  1.00  0.00    -0.244 C  
ENDROOT
BRANCH   4   5
HETATM    5  N   UNL     1     -10.946  12.336  66.710  1.00  0.00    -0.263 N  
BRANCH   5   6
HETATM    6  C   UNL     1      -9.872  12.133  67.821  1.00  0.00    -0.199 C  
BRANCH   6   7
HETATM    7  C   UNL     1      -9.052  10.764  67.771  1.00  0.00    -0.151 C  
BRANCH   7   8
HETATM    8  C   UNL     1      -9.750   9.634  68.678  1.00  0.00    -0.155 C  
BRANCH   8   9
HETATM    9  N   UNL     1      -9.130   8.307  68.516  1.00  0.00    -0.137 N  
HETATM   10  C   UNL     1      -9.718   7.338  67.744  1.00  0.00    -0.140 C  
HETATM   11  H   UNL     1      -8.247   8.106  68.986  1.00  0.00     0.000 HD 
HETATM   12  O   UNL     1     -10.737   7.468  67.086  1.00  0.00    -0.326 OA 
BRANCH  10  13
HETATM   13  O   UNL     1      -8.980   6.196  67.799  1.00  0.00    -0.117 OA 
BRANCH  13  14
HETATM   14  C   UNL     1      -9.672   5.051  68.329  1.00  0.00    -0.146 C  
HETATM   15  C   UNL     1      -8.814   3.811  68.432  1.00  0.00    -0.150 C  
HETATM   16  O   UNL     1      -9.950   4.050  70.489  1.00  0.00    -0.187 OA 
HETATM   17  C   UNL     1      -9.436   3.064  69.587  1.00  0.00    -0.107 C  
HETATM   18  C   UNL     1     -10.057   5.296  69.784  1.00  0.00    -0.264 C  
ENDBRANCH  13  14
ENDBRANCH  10  13
ENDBRANCH   8   9
BRANCH   8  19
HETATM   19  C   UNL     1      -9.976   9.958  70.174  1.00  0.00    -0.291 C  
BRANCH  19  20
HETATM   20  C   UNL     1     -11.348   9.718  70.744  1.00  0.00    -0.416 A  
HETATM   21  C   UNL     1     -13.369  10.544  71.800  1.00  0.00    -0.446 A  
HETATM   22  C   UNL     1     -12.993   8.166  71.612  1.00  0.00    -0.352 A  
HETATM   23  C   UNL     1     -11.783   8.406  70.964  1.00  0.00    -0.296 A  
HETATM   24  C   UNL     1     -12.153  10.787  71.160  1.00  0.00    -0.415 A  
HETATM   25  C   UNL     1     -13.783   9.234  72.033  1.00  0.00    -0.493 A  
ENDBRANCH  19  20
ENDBRANCH   8  19
ENDBRANCH   7   8
BRANCH   7  26
HETATM   26  O   UNL     1      -7.604  10.964  67.968  1.00  0.00    -0.088 OA 
HETATM   27  O   UNL     1      -5.574   9.657  65.750  1.00  0.00    -0.046 OA 
HETATM   28  O   UNL     1      -6.638  11.691  65.996  1.00  0.00     0.201 OA 
HETATM   29  O   UNL     1      -7.722   9.494  66.024  1.00  0.00    -0.099 OA 
HETATM   30  P   UNL     1      -6.533  10.275  66.797  1.00  0.00    -0.083 P  
ENDBRANCH   7  26
ENDBRANCH   6   7
ENDBRANCH   5   6
BRANCH   5  31
HETATM   31  S   UNL     1     -11.274  14.000  66.507  1.00  0.00    -0.331 S  
HETATM   32  O   UNL     1     -12.539  14.157  65.820  1.00  0.00    -0.488 OA 
HETATM   33  O   UNL     1     -10.095  14.617  65.932  1.00  0.00    -0.287 OA 
BRANCH  31  34
HETATM   34  C   UNL     1     -11.502  14.743  68.080  1.00  0.00    -0.323 A  
HETATM   35  N   UNL     1     -11.749  16.526  71.855  1.00  0.00    -0.615 NA 
HETATM   36  C   UNL     1     -12.132  14.054  69.115  1.00  0.00    -0.375 A  
HETATM   37  H1  UNL     1     -11.372  17.461  72.010  1.00  0.00     0.000 HD 
HETATM   38  H2  UNL     1     -11.306  15.890  72.519  1.00  0.00     0.000 HD 
HETATM   39  C   UNL     1     -10.838  15.946  68.333  1.00  0.00    -0.316 A  
HETATM   40  C   UNL     1     -10.935  16.538  69.582  1.00  0.00    -0.287 A  
HETATM   41  C   UNL     1     -12.215  14.656  70.373  1.00  0.00    -0.391 A  
HETATM   42  C   UNL     1     -11.699  15.941  70.586  1.00  0.00    -0.384 A  
ENDBRANCH  31  34
ENDBRANCH   5  31
ENDBRANCH   4   5
TORSDOF 12
ENDMDL
MODEL       83
REMARK 921   NORMALIZED FREE ENERGY PREDICTED BY IDOCK:   -5.85 KCAL/MOL
REMARK 922        TOTAL FREE ENERGY PREDICTED BY IDOCK:  -12.77 KCAL/MOL
REMARK 923 INTER-LIGAND FREE ENERGY PREDICTED BY IDOCK:  -10.48 KCAL/MOL
REMARK 924 INTRA-LIGAND FREE ENERGY PREDICTED BY IDOCK:   -2.28 KCAL/MOL
REMARK 927      BINDING AFFINITY PREDICTED BY RF-SCORE:    0.00 PKD
ROOT
HETATM    1  C   UNL     1      -7.970   8.171  64.252  1.00  0.00    -0.144 C  
HETATM    2  C   UNL     1      -7.040   7.941  65.433  1.00  0.00    -0.060 C  
HETATM    3  C   UNL     1      -5.695   8.662  65.316  1.00  0.00    -0.047 C  
HETATM    4  C   UNL     1      -7.523   7.939  66.887  1.00  0.00    -0.091 C  
ENDROOT
BRANCH   4   5
HETATM    5  N   UNL     1      -8.617   8.747  67.501  1.00  0.00    -0.126 N  
BRANCH   5   6
HETATM    6  C   UNL     1      -8.438  10.205  66.979  1.00  0.00    -0.129 C  
BRANCH   6   7
HETATM    7  C   UNL     1      -8.428  11.355  68.086  1.00  0.00    -0.152 C  
BRANCH   7   8
HETATM    8  C   UNL     1      -9.543  12.472  67.775  1.00  0.00    -0.203 C  
BRANCH   8   9
HETATM    9  N   UNL     1      -9.922  13.249  68.968  1.00  0.00    -0.418 N  
HETATM   10  C   UNL     1     -11.192  13.747  69.118  1.00  0.00    -0.262 C  
HETATM   11  H   UNL     1      -9.228  13.420  69.696  1.00  0.00     0.000 HD 
HETATM   12  O   UNL     1     -12.125  13.565  68.354  1.00  0.00    -0.352 OA 
BRANCH  10  13
HETATM   13  O   UNL     1     -11.270  14.467  70.270  1.00  0.00    -0.177 OA 
BRANCH  13  14
HETATM   14  C   UNL     1     -12.517  14.347  70.977  1.00  0.00    -0.355 C  
HETATM   15  C   UNL     1     -12.895  12.922  71.314  1.00  0.00    -0.361 C  
HETATM   16  O   UNL     1     -13.193  14.207  73.272  1.00  0.00    -0.584 OA 
HETATM   17  C   UNL     1     -13.720  13.078  72.568  1.00  0.00    -0.398 C  
HETATM   18  C   UNL     1     -12.403  14.982  72.358  1.00  0.00    -0.351 C  
ENDBRANCH  13  14
ENDBRANCH  10  13
ENDBRANCH   8   9
BRANCH   8  19
HETATM   19  C   UNL     1      -9.303  13.403  66.563  1.00  0.00    -0.225 C  
BRANCH  19  20
HETATM   20  C   UNL     1     -10.231  13.275  65.386  1.00  0.00    -0.304 A  
HETATM   21  C   UNL     1     -12.173  14.022  64.138  1.00  0.00    -0.433 A  
HETATM   22  C   UNL     1     -11.093  11.941  63.556  1.00  0.00    -0.506 A  
HETATM   23  C   UNL     1     -10.157  12.141  64.569  1.00  0.00    -0.286 A  
HETATM   24  C   UNL     1     -11.242  14.219  65.158  1.00  0.00    -0.345 A  
HETATM   25  C   UNL     1     -12.102  12.878  63.343  1.00  0.00    -0.610 A  
ENDBRANCH  19  20
ENDBRANCH   8  19
ENDBRANCH   7   8
BRANCH   7  26
HETATM   26  O   UNL     1      -7.068  11.848  68.377  1.00  0.00    -0.074 OA 
HETATM   27  O   UNL     1      -5.650  10.835  71.155  1.00  0.00    -0.232 OA 
HETATM   28  O   UNL     1      -5.705  10.076  68.976  1.00  0.00    -0.035 OA 
HETATM   29  O   UNL     1      -7.658  10.570  70.371  1.00  0.00    -0.095 OA 
HETATM   30  P   UNL     1      -6.320  11.313  69.843  1.00  0.00    -0.091 P  
ENDBRANCH   7  26
ENDBRANCH   6   7
ENDBRANCH   5   6
BRANCH   5  31
HETATM   31  S   UNL     1     -10.278   8.352  67.580  1.00  0.00    -0.250 S  
HETATM   32  O   UNL     1     -10.500   7.085  66.916  1.00  0.00    -0.269 OA 
HETATM   33  O   UNL     1     -11.030   9.507  67.132  1.00  0.00    -0.168 OA 
BRANCH  31  34
HETATM   34  C   UNL     1     -10.731   8.087  69.255  1.00  0.00    -0.129 A  
HETATM   35  N   UNL     1     -11.568   7.605  73.324  1.00  0.00    -0.629 NA 
HETATM   36  C   UNL     1     -10.802   6.799  69.784  1.00  0.00    -0.316 A  
HETATM   37  H1  UNL     1     -11.740   8.417  73.916  1.00  0.00     0.000 HD 
HETATM   38  H2  UNL     1     -10.798   7.072  73.729  1.00  0.00     0.000 HD 
HETATM   39  C   UNL     1     -10.798   9.201  70.094  1.00  0.00    -0.269 A  
HETATM   40  C   UNL     1     -11.088   9.036  71.440  1.00  0.00    -0.399 A  
HETATM   41  C   UNL     1     -11.085   6.644  71.143  1.00  0.00    -0.326 A  
HETATM   42  C   UNL     1     -11.322   7.760  71.956  1.00  0.00    -0.284 A  
ENDBRANCH  31  34
ENDBRANCH   5  31
ENDBRANCH   4   5
TORSDOF 12
ENDMDL
MODEL       84
REMARK 921   NORMALIZED FREE ENERGY PREDICTED BY IDOCK:   -5.82 KCAL/MOL
REMARK 922        TOTAL FREE ENERGY PREDICTED BY IDOCK:  -12.71 KCAL/MOL
REMARK 923 INTER-LIGAND FREE ENERGY PREDICTED BY IDOCK:   -9.80 KCAL/MOL
REMARK 924 INTRA-LIGAND FREE ENERGY PREDICTED BY IDOCK:   -2.91 KCAL/MOL
REMARK 927      BINDING AFFINITY PREDICTED BY RF-SCORE:    0.00 PKD
ROOT
HETATM    1  C   UNL     1     -12.482  12.668  65.119  1.00  0.00    -0.531 C  
HETATM    2  C   UNL     1     -11.352  13.629  64.789  1.00  0.00    -0.365 C  
HETATM    3  C   UNL     1     -11.823  15.020  64.359  1.00  0.00    -0.349 C  
HETATM    4  C   UNL     1     -10.072  13.732  65.626  1.00  0.00    -0.298 C  
ENDROOT
BRANCH   4   5
HETATM    5  N   UNL     1      -9.912  13.550  67.099  1.00  0.00    -0.242 N  
BRANCH   5   6
HETATM    6  C   UNL     1      -8.824  12.452  67.294  1.00  0.00    -0.192 C  
BRANCH   6   7
HETATM    7  C   UNL     1      -9.175  11.001  66.728  1.00  0.00    -0.161 C  
BRANCH   7   8
HETATM    8  C   UNL     1      -9.595  10.000  67.915  1.00  0.00    -0.145 C  
BRANCH   8   9
HETATM    9  N   UNL     1      -9.025   8.650  67.752  1.00  0.00    -0.136 N  
HETATM   10  C   UNL     1      -9.802   7.595  67.345  1.00  0.00    -0.173 C  
HETATM   11  H   UNL     1      -8.035   8.498  67.946  1.00  0.00     0.000 HD 
HETATM   12  O   UNL     1     -10.977   7.655  67.026  1.00  0.00    -0.277 OA 
BRANCH  10  13
HETATM   13  O   UNL     1      -9.056   6.457  67.325  1.00  0.00    -0.117 OA 
BRANCH  13  14
HETATM   14  C   UNL     1      -9.717   5.309  66.763  1.00  0.00    -0.160 C  
HETATM   15  C   UNL     1      -9.238   4.945  65.376  1.00  0.00    -0.157 C  
HETATM   16  O   UNL     1      -9.286   2.955  66.646  1.00  0.00    -0.158 OA 
HETATM   17  C   UNL     1      -9.471   3.455  65.318  1.00  0.00    -0.145 C  
HETATM   18  C   UNL     1      -9.369   4.058  67.561  1.00  0.00    -0.183 C  
ENDBRANCH  13  14
ENDBRANCH  10  13
ENDBRANCH   8   9
BRANCH   8  19
HETATM   19  C   UNL     1      -9.419  10.501  69.368  1.00  0.00    -0.158 C  
BRANCH  19  20
HETATM   20  C   UNL     1     -10.157   9.769  70.456  1.00  0.00    -0.289 A  
HETATM   21  C   UNL     1     -10.163   8.269  72.363  1.00  0.00    -0.397 A  
HETATM   22  C   UNL     1     -12.251   8.936  71.347  1.00  0.00    -0.374 A  
HETATM   23  C   UNL     1     -11.556   9.717  70.426  1.00  0.00    -0.327 A  
HETATM   24  C   UNL     1      -9.465   9.044  71.436  1.00  0.00    -0.334 A  
HETATM   25  C   UNL     1     -11.555   8.210  72.312  1.00  0.00    -0.436 A  
ENDBRANCH  19  20
ENDBRANCH   8  19
ENDBRANCH   7   8
BRANCH   7  26
HETATM   26  O   UNL     1      -8.164  10.505  65.776  1.00  0.00    -0.152 OA 
HETATM   27  O   UNL     1      -9.220   9.412  62.871  1.00  0.00    -0.187 OA 
HETATM   28  O   UNL     1      -8.517  11.450  63.694  1.00  0.00     0.302 OA 
HETATM   29  O   UNL     1     -10.282  10.048  64.654  1.00  0.00    -0.201 OA 
HETATM   30  P   UNL     1      -8.721   9.928  64.243  1.00  0.00    -0.246 P  
ENDBRANCH   7  26
ENDBRANCH   6   7
ENDBRANCH   5   6
BRANCH   5  31
HETATM   31  S   UNL     1      -9.732  14.771  68.280  1.00  0.00    -0.224 S  
HETATM   32  O   UNL     1     -10.127  16.045  67.716  1.00  0.00    -0.236 OA 
HETATM   33  O   UNL     1      -8.403  14.650  68.845  1.00  0.00    -0.162 OA 
BRANCH  31  34
HETATM   34  C   UNL     1     -10.856  14.476  69.596  1.00  0.00    -0.151 A  
HETATM   35  N   UNL     1     -13.751  13.764  72.529  1.00  0.00    -0.668 NA 
HETATM   36  C   UNL     1     -11.049  15.422  70.601  1.00  0.00    -0.364 A  
HETATM   37  H1  UNL     1     -14.292  12.899  72.520  1.00  0.00     0.000 HD 
HETATM   38  H2  UNL     1     -14.402  14.548  72.506  1.00  0.00     0.000 HD 
HETATM   39  C   UNL     1     -11.710  13.376  69.486  1.00  0.00    -0.385 A  
HETATM   40  C   UNL     1     -12.659  13.138  70.468  1.00  0.00    -0.237 A  
HETATM   41  C   UNL     1     -12.014  15.177  71.580  1.00  0.00    -0.421 A  
HETATM   42  C   UNL     1     -12.758  13.990  71.569  1.00  0.00    -0.363 A  
ENDBRANCH  31  34
ENDBRANCH   5  31
ENDBRANCH   4   5
TORSDOF 12
ENDMDL
MODEL       85
REMARK 921   NORMALIZED FREE ENERGY PREDICTED BY IDOCK:   -5.82 KCAL/MOL
REMARK 922        TOTAL FREE ENERGY PREDICTED BY IDOCK:  -12.71 KCAL/MOL
REMARK 923 INTER-LIGAND FREE ENERGY PREDICTED BY IDOCK:   -9.80 KCAL/MOL
REMARK 924 INTRA-LIGAND FREE ENERGY PREDICTED BY IDOCK:   -2.91 KCAL/MOL
REMARK 927      BINDING AFFINITY PREDICTED BY RF-SCORE:    0.00 PKD
ROOT
HETATM    1  C   UNL     1     -10.735  14.479  64.459  1.00  0.00    -0.198 C  
HETATM    2  C   UNL     1      -9.859  14.950  65.608  1.00  0.00    -0.372 C  
HETATM    3  C   UNL     1     -10.196  16.355  66.113  1.00  0.00    -0.363 C  
HETATM    4  C   UNL     1      -9.456  14.044  66.776  1.00  0.00    -0.282 C  
ENDROOT
BRANCH   4   5
HETATM    5  N   UNL     1     -10.241  12.943  67.408  1.00  0.00    -0.228 N  
BRANCH   5   6
HETATM    6  C   UNL     1      -9.299  12.269  68.450  1.00  0.00    -0.162 C  
BRANCH   6   7
HETATM    7  C   UNL     1      -8.600  10.908  67.995  1.00  0.00    -0.131 C  
BRANCH   7   8
HETATM    8  C   UNL     1      -9.356   9.630  68.613  1.00  0.00    -0.143 C  
BRANCH   8   9
HETATM    9  N   UNL     1      -8.829   8.352  68.102  1.00  0.00    -0.142 N  
HETATM   10  C   UNL     1      -9.564   7.573  67.244  1.00  0.00    -0.156 C  
HETATM   11  H   UNL     1      -7.902   8.041  68.391  1.00  0.00     0.000 HD 
HETATM   12  O   UNL     1     -10.655   7.856  66.778  1.00  0.00    -0.326 OA 
BRANCH  10  13
HETATM   13  O   UNL     1      -8.882   6.429  66.964  1.00  0.00    -0.113 OA 
BRANCH  13  14
HETATM   14  C   UNL     1      -8.537   5.632  68.112  1.00  0.00    -0.104 C  
HETATM   15  C   UNL     1      -9.549   4.555  68.434  1.00  0.00    -0.207 C  
HETATM   16  O   UNL     1      -7.412   3.551  68.492  1.00  0.00    -0.053 OA 
HETATM   17  C   UNL     1      -8.709   3.490  69.095  1.00  0.00    -0.089 C  
HETATM   18  C   UNL     1      -7.281   4.817  67.828  1.00  0.00    -0.066 C  
ENDBRANCH  13  14
ENDBRANCH  10  13
ENDBRANCH   8   9
BRANCH   8  19
HETATM   19  C   UNL     1      -9.533   9.579  70.149  1.00  0.00    -0.287 C  
BRANCH  19  20
HETATM   20  C   UNL     1     -10.851   9.092  70.687  1.00  0.00    -0.321 A  
HETATM   21  C   UNL     1     -12.875   9.467  71.970  1.00  0.00    -0.496 A  
HETATM   22  C   UNL     1     -12.325   7.241  71.211  1.00  0.00    -0.401 A  
HETATM   23  C   UNL     1     -11.171   7.732  70.602  1.00  0.00    -0.278 A  
HETATM   24  C   UNL     1     -11.716   9.959  71.369  1.00  0.00    -0.449 A  
HETATM   25  C   UNL     1     -13.174   8.107  71.897  1.00  0.00    -0.348 A  
ENDBRANCH  19  20
ENDBRANCH   8  19
ENDBRANCH   7   8
BRANCH   7  26
HETATM   26  O   UNL     1      -7.134  10.945  68.153  1.00  0.00    -0.075 OA 
HETATM   27  O   UNL     1      -5.304  10.348  65.498  1.00  0.00    -0.067 OA 
HETATM   28  O   UNL     1      -6.197  12.238  66.479  1.00  0.00    -0.026 OA 
HETATM   29  O   UNL     1      -7.445  10.228  65.841  1.00  0.00    -0.122 OA 
HETATM   30  P   UNL     1      -6.169  10.631  66.752  1.00  0.00    -0.096 P  
ENDBRANCH   7  26
ENDBRANCH   6   7
ENDBRANCH   5   6
BRANCH   5  31
HETATM   31  S   UNL     1     -11.833  13.027  68.023  1.00  0.00    -0.308 S  
HETATM   32  O   UNL     1     -12.243  11.711  68.468  1.00  0.00    -0.485 OA 
HETATM   33  O   UNL     1     -12.652  13.708  67.040  1.00  0.00    -0.188 OA 
BRANCH  31  34
HETATM   34  C   UNL     1     -11.849  14.032  69.461  1.00  0.00    -0.325 A  
HETATM   35  N   UNL     1     -12.178  16.376  72.909  1.00  0.00    -0.493 NA 
HETATM   36  C   UNL     1     -11.526  15.387  69.393  1.00  0.00    -0.335 A  
HETATM   37  H1  UNL     1     -12.469  15.956  73.792  1.00  0.00     0.000 HD 
HETATM   38  H2  UNL     1     -12.817  17.141  72.693  1.00  0.00     0.000 HD 
HETATM   39  C   UNL     1     -12.408  13.496  70.622  1.00  0.00    -0.432 A  
HETATM   40  C   UNL     1     -12.503  14.274  71.766  1.00  0.00    -0.396 A  
HETATM   41  C   UNL     1     -11.634  16.164  70.548  1.00  0.00    -0.322 A  
HETATM   42  C   UNL     1     -12.034  15.588  71.762  1.00  0.00    -0.419 A  
ENDBRANCH  31  34
ENDBRANCH   5  31
ENDBRANCH   4   5
TORSDOF 12
ENDMDL
MODEL       86
REMARK 921   NORMALIZED FREE ENERGY PREDICTED BY IDOCK:   -5.81 KCAL/MOL
REMARK 922        TOTAL FREE ENERGY PREDICTED BY IDOCK:  -12.70 KCAL/MOL
REMARK 923 INTER-LIGAND FREE ENERGY PREDICTED BY IDOCK:  -10.08 KCAL/MOL
REMARK 924 INTRA-LIGAND FREE ENERGY PREDICTED BY IDOCK:   -2.61 KCAL/MOL
REMARK 927      BINDING AFFINITY PREDICTED BY RF-SCORE:    0.00 PKD
ROOT
HETATM    1  C   UNL     1      -6.357  13.059  67.805  1.00  0.00    -0.149 C  
HETATM    2  C   UNL     1      -7.728  13.664  68.060  1.00  0.00    -0.143 C  
HETATM    3  C   UNL     1      -8.080  14.825  67.127  1.00  0.00    -0.226 C  
HETATM    4  C   UNL     1      -8.971  12.819  68.357  1.00  0.00    -0.120 C  
ENDROOT
BRANCH   4   5
HETATM    5  N   UNL     1      -9.317  11.465  67.833  1.00  0.00    -0.159 N  
BRANCH   5   6
HETATM    6  C   UNL     1      -9.172  10.477  69.030  1.00  0.00    -0.185 C  
BRANCH   6   7
HETATM    7  C   UNL     1      -8.806   8.968  68.660  1.00  0.00    -0.137 C  
BRANCH   7   8
HETATM    8  C   UNL     1      -9.845   7.937  69.327  1.00  0.00    -0.177 C  
BRANCH   8   9
HETATM    9  N   UNL     1      -9.497   6.527  69.070  1.00  0.00    -0.131 N  
HETATM   10  C   UNL     1     -10.212   5.771  68.177  1.00  0.00    -0.190 C  
HETATM   11  H   UNL     1      -8.710   6.108  69.564  1.00  0.00     0.000 HD 
HETATM   12  O   UNL     1     -11.133   6.166  67.481  1.00  0.00    -0.330 OA 
BRANCH  10  13
HETATM   13  O   UNL     1      -9.727   4.499  68.161  1.00  0.00    -0.155 OA 
BRANCH  13  14
HETATM   14  C   UNL     1      -9.652   3.895  66.857  1.00  0.00    -0.200 C  
HETATM   15  C   UNL     1      -8.587   4.493  65.966  1.00  0.00    -0.114 C  
HETATM   16  O   UNL     1      -8.372   2.145  65.837  1.00  0.00    -0.086 OA 
HETATM   17  C   UNL     1      -8.213   3.340  65.066  1.00  0.00    -0.094 C  
HETATM   18  C   UNL     1      -9.196   2.445  66.974  1.00  0.00    -0.079 C  
ENDBRANCH  13  14
ENDBRANCH  10  13
ENDBRANCH   8   9
BRANCH   8  19
HETATM   19  C   UNL     1     -10.209   8.152  70.815  1.00  0.00    -0.215 C  
BRANCH  19  20
HETATM   20  C   UNL     1     -11.663   8.326  71.162  1.00  0.00    -0.308 A  
HETATM   21  C   UNL     1     -13.460   9.639  72.128  1.00  0.00    -0.516 A  
HETATM   22  C   UNL     1     -13.851   7.341  71.498  1.00  0.00    -0.463 A  
HETATM   23  C   UNL     1     -12.533   7.235  71.056  1.00  0.00    -0.323 A  
HETATM   24  C   UNL     1     -12.138   9.533  71.695  1.00  0.00    -0.474 A  
HETATM   25  C   UNL     1     -14.313   8.540  72.036  1.00  0.00    -0.537 A  
ENDBRANCH  19  20
ENDBRANCH   8  19
ENDBRANCH   7   8
BRANCH   7  26
HETATM   26  O   UNL     1      -7.373   8.671  68.848  1.00  0.00    -0.078 OA 
HETATM   27  O   UNL     1      -5.739   7.403  66.304  1.00  0.00    -0.030 OA 
HETATM   28  O   UNL     1      -6.156   9.536  67.081  1.00  0.00    -0.061 OA 
HETATM   29  O   UNL     1      -7.847   7.827  66.607  1.00  0.00    -0.098 OA 
HETATM   30  P   UNL     1      -6.511   8.002  67.505  1.00  0.00    -0.059 P  
ENDBRANCH   7  26
ENDBRANCH   6   7
ENDBRANCH   5   6
BRANCH   5  31
HETATM   31  S   UNL     1     -10.667  11.036  66.877  1.00  0.00    -0.266 S  
HETATM   32  O   UNL     1     -11.783  10.717  67.743  1.00  0.00    -0.503 OA 
HETATM   33  O   UNL     1     -10.232  10.041  65.917  1.00  0.00    -0.259 OA 
BRANCH  31  34
HETATM   34  C   UNL     1     -11.183  12.430  65.944  1.00  0.00    -0.336 A  
HETATM   35  N   UNL     1     -12.152  15.876  63.782  1.00  0.00    -1.230 NA 
HETATM   36  C   UNL     1     -12.279  13.194  66.343  1.00  0.00    -0.396 A  
HETATM   37  H1  UNL     1     -11.607  16.140  62.961  1.00  0.00     0.000 HD 
HETATM   38  H2  UNL     1     -12.140  16.657  64.438  1.00  0.00     0.000 HD 
HETATM   39  C   UNL     1     -10.338  12.881  64.928  1.00  0.00    -0.329 A  
HETATM   40  C   UNL     1     -10.671  14.017  64.207  1.00  0.00    -0.067 A  
HETATM   41  C   UNL     1     -12.600  14.342  65.615  1.00  0.00    -0.429 A  
HETATM   42  C   UNL     1     -11.852  14.706  64.487  1.00  0.00    -0.431 A  
ENDBRANCH  31  34
ENDBRANCH   5  31
ENDBRANCH   4   5
TORSDOF 12
ENDMDL
MODEL       87
REMARK 921   NORMALIZED FREE ENERGY PREDICTED BY IDOCK:   -5.81 KCAL/MOL
REMARK 922        TOTAL FREE ENERGY PREDICTED BY IDOCK:  -12.69 KCAL/MOL
REMARK 923 INTER-LIGAND FREE ENERGY PREDICTED BY IDOCK:   -9.74 KCAL/MOL
REMARK 924 INTRA-LIGAND FREE ENERGY PREDICTED BY IDOCK:   -2.96 KCAL/MOL
REMARK 927      BINDING AFFINITY PREDICTED BY RF-SCORE:    0.00 PKD
ROOT
HETATM    1  C   UNL     1      -7.026  12.071  67.006  1.00  0.00    -0.095 C  
HETATM    2  C   UNL     1      -7.357  13.201  67.968  1.00  0.00    -0.125 C  
HETATM    3  C   UNL     1      -6.727  14.544  67.594  1.00  0.00    -0.194 C  
HETATM    4  C   UNL     1      -8.756  13.411  68.558  1.00  0.00    -0.071 C  
ENDROOT
BRANCH   4   5
HETATM    5  N   UNL     1     -10.079  13.139  67.923  1.00  0.00    -0.226 N  
BRANCH   5   6
HETATM    6  C   UNL     1     -11.048  12.734  69.074  1.00  0.00    -0.233 C  
BRANCH   6   7
HETATM    7  C   UNL     1     -11.108  11.180  69.434  1.00  0.00    -0.255 C  
BRANCH   7   8
HETATM    8  C   UNL     1     -10.233  10.310  68.402  1.00  0.00    -0.167 C  
BRANCH   8   9
HETATM    9  N   UNL     1      -9.576   9.155  69.042  1.00  0.00    -0.154 N  
HETATM   10  C   UNL     1      -8.378   9.292  69.696  1.00  0.00    -0.140 C  
HETATM   11  H   UNL     1     -10.021   8.239  68.997  1.00  0.00     0.000 HD 
HETATM   12  O   UNL     1      -7.774  10.337  69.870  1.00  0.00    -0.165 OA 
BRANCH  10  13
HETATM   13  O   UNL     1      -7.962   8.078  70.149  1.00  0.00    -0.101 OA 
BRANCH  13  14
HETATM   14  C   UNL     1      -9.015   7.197  70.578  1.00  0.00    -0.155 C  
HETATM   15  C   UNL     1      -8.813   5.756  70.165  1.00  0.00    -0.144 C  
HETATM   16  O   UNL     1      -9.401   5.754  72.452  1.00  0.00    -0.144 OA 
HETATM   17  C   UNL     1      -9.532   4.990  71.249  1.00  0.00    -0.154 C  
HETATM   18  C   UNL     1      -9.029   7.095  72.099  1.00  0.00    -0.129 C  
ENDBRANCH  13  14
ENDBRANCH  10  13
ENDBRANCH   8   9
BRANCH   8  19
HETATM   19  C   UNL     1     -10.902   9.896  67.071  1.00  0.00    -0.186 C  
BRANCH  19  20
HETATM   20  C   UNL     1     -10.034   9.823  65.843  1.00  0.00    -0.345 A  
HETATM   21  C   UNL     1      -9.537  10.496  63.566  1.00  0.00    -0.374 A  
HETATM   22  C   UNL     1      -8.327   8.664  64.573  1.00  0.00    -0.157 A  
HETATM   23  C   UNL     1      -9.050   8.832  65.752  1.00  0.00    -0.267 A  
HETATM   24  C   UNL     1     -10.268  10.660  64.743  1.00  0.00    -0.401 A  
HETATM   25  C   UNL     1      -8.572   9.493  63.480  1.00  0.00    -0.221 A  
ENDBRANCH  19  20
ENDBRANCH   8  19
ENDBRANCH   7   8
BRANCH   7  26
HETATM   26  O   UNL     1     -12.483  10.711  69.688  1.00  0.00    -0.257 OA 
HETATM   27  O   UNL     1     -13.042   9.090  72.483  1.00  0.00    -0.433 OA 
HETATM   28  O   UNL     1     -13.128  11.302  71.830  1.00  0.00    -0.472 OA 
HETATM   29  O   UNL     1     -11.209   9.803  71.562  1.00  0.00    -0.360 OA 
HETATM   30  P   UNL     1     -12.777   9.856  71.163  1.00  0.00    -0.360 P  
ENDBRANCH   7  26
ENDBRANCH   6   7
ENDBRANCH   5   6
BRANCH   5  31
HETATM   31  S   UNL     1     -10.899  14.108  66.778  1.00  0.00    -0.299 S  
HETATM   32  O   UNL     1     -12.327  13.963  66.966  1.00  0.00    -0.391 OA 
HETATM   33  O   UNL     1     -10.342  13.817  65.472  1.00  0.00    -0.297 OA 
BRANCH  31  34
HETATM   34  C   UNL     1     -10.555  15.799  67.097  1.00  0.00    -0.313 A  
HETATM   35  N   UNL     1      -9.448  19.767  67.815  1.00  0.00    -0.337 NA 
HETATM   36  C   UNL     1     -10.843  16.369  68.336  1.00  0.00    -0.342 A  
HETATM   37  H1  UNL     1      -8.993  20.317  67.086  1.00  0.00     0.000 HD 
HETATM   38  H2  UNL     1      -8.845  19.768  68.638  1.00  0.00     0.000 HD 
HETATM   39  C   UNL     1      -9.783  16.492  66.161  1.00  0.00    -0.344 A  
HETATM   40  C   UNL     1      -9.430  17.811  66.400  1.00  0.00    -0.277 A  
HETATM   41  C   UNL     1     -10.475  17.696  68.569  1.00  0.00    -0.337 A  
HETATM   42  C   UNL     1      -9.850  18.451  67.567  1.00  0.00    -0.314 A  
ENDBRANCH  31  34
ENDBRANCH   5  31
ENDBRANCH   4   5
TORSDOF 12
ENDMDL
MODEL       88
REMARK 921   NORMALIZED FREE ENERGY PREDICTED BY IDOCK:   -5.79 KCAL/MOL
REMARK 922        TOTAL FREE ENERGY PREDICTED BY IDOCK:  -12.66 KCAL/MOL
REMARK 923 INTER-LIGAND FREE ENERGY PREDICTED BY IDOCK:  -10.64 KCAL/MOL
REMARK 924 INTRA-LIGAND FREE ENERGY PREDICTED BY IDOCK:   -2.01 KCAL/MOL
REMARK 927      BINDING AFFINITY PREDICTED BY RF-SCORE:    0.00 PKD
ROOT
HETATM    1  C   UNL     1      -6.407   7.811  66.147  1.00  0.00    -0.046 C  
HETATM    2  C   UNL     1      -7.666   8.135  65.358  1.00  0.00    -0.101 C  
HETATM    3  C   UNL     1      -7.881   7.242  64.135  1.00  0.00    -0.118 C  
HETATM    4  C   UNL     1      -9.007   8.463  66.024  1.00  0.00    -0.184 C  
ENDROOT
BRANCH   4   5
HETATM    5  N   UNL     1      -9.563   7.925  67.300  1.00  0.00    -0.149 N  
BRANCH   5   6
HETATM    6  C   UNL     1     -10.536   9.011  67.851  1.00  0.00    -0.234 C  
BRANCH   6   7
HETATM    7  C   UNL     1     -10.009   9.867  69.091  1.00  0.00    -0.198 C  
BRANCH   7   8
HETATM    8  C   UNL     1     -10.866  11.217  69.272  1.00  0.00    -0.229 C  
BRANCH   8   9
HETATM    9  N   UNL     1     -11.191  11.864  67.988  1.00  0.00    -0.237 N  
HETATM   10  C   UNL     1     -10.423  12.887  67.494  1.00  0.00    -0.223 C  
HETATM   11  H   UNL     1     -12.002  11.544  67.458  1.00  0.00     0.000 HD 
HETATM   12  O   UNL     1      -9.401  13.321  67.998  1.00  0.00    -0.204 OA 
BRANCH  10  13
HETATM   13  O   UNL     1     -10.961  13.344  66.330  1.00  0.00    -0.287 OA 
BRANCH  13  14
HETATM   14  C   UNL     1     -11.536  12.329  65.488  1.00  0.00    -0.361 C  
HETATM   15  C   UNL     1     -12.707  12.810  64.662  1.00  0.00    -0.439 C  
HETATM   16  O   UNL     1     -11.271  11.619  63.214  1.00  0.00    -0.347 OA 
HETATM   17  C   UNL     1     -12.651  11.919  63.444  1.00  0.00    -0.431 C  
HETATM   18  C   UNL     1     -10.538  11.908  64.415  1.00  0.00    -0.319 C  
ENDBRANCH  13  14
ENDBRANCH  10  13
ENDBRANCH   8   9
BRANCH   8  19
HETATM   19  C   UNL     1     -12.110  11.156  70.189  1.00  0.00    -0.443 C  
BRANCH  19  20
HETATM   20  C   UNL     1     -12.567  12.435  70.837  1.00  0.00    -0.337 A  
HETATM   21  C   UNL     1     -12.426  14.844  71.082  1.00  0.00    -0.395 A  
HETATM   22  C   UNL     1     -13.716  13.546  72.658  1.00  0.00    -0.533 A  
HETATM   23  C   UNL     1     -13.391  12.380  71.967  1.00  0.00    -0.511 A  
HETATM   24  C   UNL     1     -12.092  13.677  70.394  1.00  0.00    -0.421 A  
HETATM   25  C   UNL     1     -13.231  14.776  72.218  1.00  0.00    -0.464 A  
ENDBRANCH  19  20
ENDBRANCH   8  19
ENDBRANCH   7   8
BRANCH   7  26
HETATM   26  O   UNL     1      -8.542  10.015  69.095  1.00  0.00    -0.135 OA 
HETATM   27  O   UNL     1      -6.919   8.995  71.755  1.00  0.00    -0.252 OA 
HETATM   28  O   UNL     1      -7.556   8.030  69.758  1.00  0.00    -0.087 OA 
HETATM   29  O   UNL     1      -9.041   9.178  71.332  1.00  0.00    -0.266 OA 
HETATM   30  P   UNL     1      -7.686   9.476  70.499  1.00  0.00    -0.040 P  
ENDBRANCH   7  26
ENDBRANCH   6   7
ENDBRANCH   5   6
BRANCH   5  31
HETATM   31  S   UNL     1     -10.206   6.366  67.575  1.00  0.00    -0.200 S  
HETATM   32  O   UNL     1      -9.203   5.372  67.254  1.00  0.00    -0.111 OA 
HETATM   33  O   UNL     1     -11.490   6.292  66.906  1.00  0.00    -0.134 OA 
BRANCH  31  34
HETATM   34  C   UNL     1     -10.530   6.166  69.288  1.00  0.00    -0.254 A  
HETATM   35  N   UNL     1     -11.333   5.397  73.320  1.00  0.00    -0.486 NA 
HETATM   36  C   UNL     1     -11.647   6.754  69.881  1.00  0.00    -0.326 A  
HETATM   37  H1  UNL     1     -10.708   4.804  73.867  1.00  0.00     0.000 HD 
HETATM   38  H2  UNL     1     -12.272   5.002  73.370  1.00  0.00     0.000 HD 
HETATM   39  C   UNL     1      -9.773   5.223  69.986  1.00  0.00    -0.263 A  
HETATM   40  C   UNL     1     -10.036   4.982  71.326  1.00  0.00    -0.264 A  
HETATM   41  C   UNL     1     -11.907   6.497  71.229  1.00  0.00    -0.385 A  
HETATM   42  C   UNL     1     -11.049   5.684  71.980  1.00  0.00    -0.230 A  
ENDBRANCH  31  34
ENDBRANCH   5  31
ENDBRANCH   4   5
TORSDOF 12
ENDMDL
MODEL       89
REMARK 921   NORMALIZED FREE ENERGY PREDICTED BY IDOCK:   -5.78 KCAL/MOL
REMARK 922        TOTAL FREE ENERGY PREDICTED BY IDOCK:  -12.65 KCAL/MOL
REMARK 923 INTER-LIGAND FREE ENERGY PREDICTED BY IDOCK:  -10.22 KCAL/MOL
REMARK 924 INTRA-LIGAND FREE ENERGY PREDICTED BY IDOCK:   -2.42 KCAL/MOL
REMARK 927      BINDING AFFINITY PREDICTED BY RF-SCORE:    0.00 PKD
ROOT
HETATM    1  C   UNL     1      -7.416   8.238  67.712  1.00  0.00    -0.094 C  
HETATM    2  C   UNL     1      -7.302   8.645  69.172  1.00  0.00    -0.076 C  
HETATM    3  C   UNL     1      -6.960  10.121  69.383  1.00  0.00    -0.076 C  
HETATM    4  C   UNL     1      -8.277   8.162  70.251  1.00  0.00    -0.122 C  
ENDROOT
BRANCH   4   5
HETATM    5  N   UNL     1      -9.734   7.867  70.117  1.00  0.00    -0.179 N  
BRANCH   5   6
HETATM    6  C   UNL     1     -10.292   8.863  69.057  1.00  0.00    -0.212 C  
BRANCH   6   7
HETATM    7  C   UNL     1     -11.223  10.037  69.610  1.00  0.00    -0.239 C  
BRANCH   7   8
HETATM    8  C   UNL     1     -10.981  11.403  68.797  1.00  0.00    -0.223 C  
BRANCH   8   9
HETATM    9  N   UNL     1     -11.027  12.597  69.660  1.00  0.00    -0.445 N  
HETATM   10  C   UNL     1     -11.698  13.729  69.271  1.00  0.00    -0.327 C  
HETATM   11  H   UNL     1     -10.551  12.582  70.562  1.00  0.00     0.000 HD 
HETATM   12  O   UNL     1     -12.353  13.856  68.250  1.00  0.00    -0.254 OA 
BRANCH  10  13
HETATM   13  O   UNL     1     -11.546  14.699  70.213  1.00  0.00    -0.268 OA 
BRANCH  13  14
HETATM   14  C   UNL     1     -12.348  14.528  71.395  1.00  0.00    -0.356 C  
HETATM   15  C   UNL     1     -11.978  15.461  72.526  1.00  0.00    -0.549 C  
HETATM   16  O   UNL     1     -14.327  15.534  72.298  1.00  0.00    -0.562 OA 
HETATM   17  C   UNL     1     -13.280  15.624  73.271  1.00  0.00    -0.557 C  
HETATM   18  C   UNL     1     -13.793  14.925  71.113  1.00  0.00    -0.358 C  
ENDBRANCH  13  14
ENDBRANCH  10  13
ENDBRANCH   8   9
BRANCH   8  19
HETATM   19  C   UNL     1      -9.766  11.460  67.841  1.00  0.00    -0.186 C  
BRANCH  19  20
HETATM   20  C   UNL     1     -10.039  11.492  66.361  1.00  0.00    -0.250 A  
HETATM   21  C   UNL     1     -11.191  12.438  64.447  1.00  0.00    -0.384 A  
HETATM   22  C   UNL     1      -9.930  10.392  64.205  1.00  0.00    -0.368 A  
HETATM   23  C   UNL     1      -9.575  10.449  65.552  1.00  0.00    -0.290 A  
HETATM   24  C   UNL     1     -10.845  12.491  65.798  1.00  0.00    -0.310 A  
HETATM   25  C   UNL     1     -10.740  11.384  63.655  1.00  0.00    -0.470 A  
ENDBRANCH  19  20
ENDBRANCH   8  19
ENDBRANCH   7   8
BRANCH   7  26
HETATM   26  O   UNL     1     -11.197  10.134  71.082  1.00  0.00    -0.325 OA 
HETATM   27  O   UNL     1     -14.024   9.689  72.682  1.00  0.00    -0.265 OA 
HETATM   28  O   UNL     1     -12.295   8.319  72.005  1.00  0.00    -0.314 OA 
HETATM   29  O   UNL     1     -13.564   9.841  70.565  1.00  0.00    -0.054 OA 
HETATM   30  P   UNL     1     -12.689   9.899  71.926  1.00  0.00    -0.340 P  
ENDBRANCH   7  26
ENDBRANCH   6   7
ENDBRANCH   5   6
BRANCH   5  31
HETATM   31  S   UNL     1     -10.470   6.337  69.930  1.00  0.00    -0.253 S  
HETATM   32  O   UNL     1     -11.884   6.514  69.674  1.00  0.00    -0.310 OA 
HETATM   33  O   UNL     1     -10.071   5.513  71.054  1.00  0.00    -0.190 OA 
BRANCH  31  34
HETATM   34  C   UNL     1      -9.830   5.557  68.494  1.00  0.00    -0.146 A  
HETATM   35  N   UNL     1      -8.039   3.815  65.140  1.00  0.00    -0.096 NA 
HETATM   36  C   UNL     1     -10.295   5.897  67.225  1.00  0.00    -0.279 A  
HETATM   37  H1  UNL     1      -7.288   3.135  65.250  1.00  0.00     0.000 HD 
HETATM   38  H2  UNL     1      -7.697   4.576  64.552  1.00  0.00     0.000 HD 
HETATM   39  C   UNL     1      -8.693   4.758  68.641  1.00  0.00    -0.111 A  
HETATM   40  C   UNL     1      -8.112   4.174  67.526  1.00  0.00    -0.095 A  
HETATM   41  C   UNL     1      -9.696   5.309  66.108  1.00  0.00    -0.179 A  
HETATM   42  C   UNL     1      -8.663   4.374  66.260  1.00  0.00    -0.113 A  
ENDBRANCH  31  34
ENDBRANCH   5  31
ENDBRANCH   4   5
TORSDOF 12
ENDMDL
MODEL       90
REMARK 921   NORMALIZED FREE ENERGY PREDICTED BY IDOCK:   -5.77 KCAL/MOL
REMARK 922        TOTAL FREE ENERGY PREDICTED BY IDOCK:  -12.63 KCAL/MOL
REMARK 923 INTER-LIGAND FREE ENERGY PREDICTED BY IDOCK:   -8.76 KCAL/MOL
REMARK 924 INTRA-LIGAND FREE ENERGY PREDICTED BY IDOCK:   -3.87 KCAL/MOL
REMARK 927      BINDING AFFINITY PREDICTED BY RF-SCORE:    0.00 PKD
ROOT
HETATM    1  C   UNL     1     -11.669   6.669  70.403  1.00  0.00    -0.446 C  
HETATM    2  C   UNL     1     -11.861   8.066  70.970  1.00  0.00    -0.280 C  
HETATM    3  C   UNL     1     -12.033   8.103  72.490  1.00  0.00    -0.410 C  
HETATM    4  C   UNL     1     -11.055   9.279  70.493  1.00  0.00    -0.265 C  
ENDROOT
BRANCH   4   5
HETATM    5  N   UNL     1      -9.640   9.322  70.020  1.00  0.00    -0.194 N  
BRANCH   5   6
HETATM    6  C   UNL     1      -9.420  10.739  69.409  1.00  0.00    -0.012 C  
BRANCH   6   7
HETATM    7  C   UNL     1      -8.789  10.787  67.943  1.00  0.00    -0.132 C  
BRANCH   7   8
HETATM    8  C   UNL     1      -9.426   9.653  66.998  1.00  0.00    -0.154 C  
BRANCH   8   9
HETATM    9  N   UNL     1     -10.186  10.213  65.865  1.00  0.00    -0.241 N  
HETATM   10  C   UNL     1      -9.547  10.699  64.753  1.00  0.00    -0.280 C  
HETATM   11  H   UNL     1     -11.204  10.239  65.910  1.00  0.00     0.000 HD 
HETATM   12  O   UNL     1      -8.345  10.673  64.550  1.00  0.00    -0.143 OA 
BRANCH  10  13
HETATM   13  O   UNL     1     -10.463  11.204  63.882  1.00  0.00    -0.342 OA 
BRANCH  13  14
HETATM   14  C   UNL     1     -11.332  12.209  64.432  1.00  0.00    -0.344 C  
HETATM   15  C   UNL     1     -10.647  13.530  64.701  1.00  0.00    -0.441 C  
HETATM   16  O   UNL     1     -12.660  14.005  63.562  1.00  0.00    -0.842 OA 
HETATM   17  C   UNL     1     -11.768  14.530  64.550  1.00  0.00    -0.410 C  
HETATM   18  C   UNL     1     -12.394  12.602  63.410  1.00  0.00    -0.456 C  
ENDBRANCH  13  14
ENDBRANCH  10  13
ENDBRANCH   8   9
BRANCH   8  19
HETATM   19  C   UNL     1      -8.496   8.510  66.526  1.00  0.00    -0.119 C  
BRANCH  19  20
HETATM   20  C   UNL     1      -9.101   7.145  66.340  1.00  0.00    -0.189 A  
HETATM   21  C   UNL     1     -10.782   5.487  66.898  1.00  0.00    -0.310 A  
HETATM   22  C   UNL     1      -8.885   4.869  65.537  1.00  0.00    -0.143 A  
HETATM   23  C   UNL     1      -8.405   6.176  65.609  1.00  0.00    -0.146 A  
HETATM   24  C   UNL     1     -10.299   6.793  66.979  1.00  0.00    -0.338 A  
HETATM   25  C   UNL     1     -10.070   4.524  66.184  1.00  0.00    -0.282 A  
ENDBRANCH  19  20
ENDBRANCH   8  19
ENDBRANCH   7   8
BRANCH   7  26
HETATM   26  O   UNL     1      -7.316  10.874  67.964  1.00  0.00    -0.085 OA 
HETATM   27  O   UNL     1      -5.955  13.761  67.215  1.00  0.00    -0.327 OA 
HETATM   28  O   UNL     1      -6.659  12.741  69.162  1.00  0.00    -0.099 OA 
HETATM   29  O   UNL     1      -8.011  13.065  67.144  1.00  0.00    -0.163 OA 
HETATM   30  P   UNL     1      -6.598  12.398  67.569  1.00  0.00    -0.143 P  
ENDBRANCH   7  26
ENDBRANCH   6   7
ENDBRANCH   5   6
BRANCH   5  31
HETATM   31  S   UNL     1      -8.245   8.829  70.874  1.00  0.00    -0.176 S  
HETATM   32  O   UNL     1      -8.635   8.327  72.176  1.00  0.00    -0.154 OA 
HETATM   33  O   UNL     1      -7.281   9.909  70.812  1.00  0.00    -0.305 OA 
BRANCH  31  34
HETATM   34  C   UNL     1      -7.512   7.464  70.050  1.00  0.00    -0.084 A  
HETATM   35  N   UNL     1      -5.762   4.377  67.836  1.00  0.00    -0.021 NA 
HETATM   36  C   UNL     1      -8.191   6.253  69.922  1.00  0.00    -0.121 A  
HETATM   37  H1  UNL     1      -4.841   4.502  67.415  1.00  0.00     0.000 HD 
HETATM   38  H2  UNL     1      -6.420   4.125  67.098  1.00  0.00     0.000 HD 
HETATM   39  C   UNL     1      -6.334   7.694  69.334  1.00  0.00    -0.035 A  
HETATM   40  C   UNL     1      -5.753   6.663  68.613  1.00  0.00    -0.017 A  
HETATM   41  C   UNL     1      -7.599   5.225  69.185  1.00  0.00    -0.074 A  
HETATM   42  C   UNL     1      -6.335   5.395  68.606  1.00  0.00    -0.035 A  
ENDBRANCH  31  34
ENDBRANCH   5  31
ENDBRANCH   4   5
TORSDOF 12
ENDMDL
MODEL       91
REMARK 921   NORMALIZED FREE ENERGY PREDICTED BY IDOCK:   -5.75 KCAL/MOL
REMARK 922        TOTAL FREE ENERGY PREDICTED BY IDOCK:  -12.59 KCAL/MOL
REMARK 923 INTER-LIGAND FREE ENERGY PREDICTED BY IDOCK:  -10.65 KCAL/MOL
REMARK 924 INTRA-LIGAND FREE ENERGY PREDICTED BY IDOCK:   -1.93 KCAL/MOL
REMARK 927      BINDING AFFINITY PREDICTED BY RF-SCORE:    0.00 PKD
ROOT
HETATM    1  C   UNL     1      -8.612   7.604  67.373  1.00  0.00    -0.125 C  
HETATM    2  C   UNL     1     -10.005   8.032  66.940  1.00  0.00    -0.338 C  
HETATM    3  C   UNL     1     -11.136   7.318  67.684  1.00  0.00    -0.071 C  
HETATM    4  C   UNL     1     -10.382   9.492  66.666  1.00  0.00    -0.210 C  
ENDROOT
BRANCH   4   5
HETATM    5  N   UNL     1      -9.868  10.722  67.336  1.00  0.00    -0.174 N  
BRANCH   5   6
HETATM    6  C   UNL     1     -11.077  11.696  67.462  1.00  0.00    -0.276 C  
BRANCH   6   7
HETATM    7  C   UNL     1     -11.057  12.977  66.509  1.00  0.00    -0.288 C  
BRANCH   7   8
HETATM    8  C   UNL     1     -10.239  14.188  67.179  1.00  0.00    -0.258 C  
BRANCH   8   9
HETATM    9  N   UNL     1     -10.589  14.400  68.596  1.00  0.00    -0.245 N  
HETATM   10  C   UNL     1     -11.265  15.522  69.000  1.00  0.00    -0.303 C  
HETATM   11  H   UNL     1     -10.323  13.698  69.287  1.00  0.00     0.000 HD 
HETATM   12  O   UNL     1     -11.689  16.403  68.271  1.00  0.00    -0.176 OA 
BRANCH  10  13
HETATM   13  O   UNL     1     -11.418  15.504  70.352  1.00  0.00    -0.283 OA 
BRANCH  13  14
HETATM   14  C   UNL     1     -12.645  14.911  70.816  1.00  0.00    -0.354 C  
HETATM   15  C   UNL     1     -12.495  13.480  71.282  1.00  0.00    -0.388 C  
HETATM   16  O   UNL     1     -13.733  14.629  72.932  1.00  0.00    -0.529 OA 
HETATM   17  C   UNL     1     -13.585  13.345  72.316  1.00  0.00    -0.605 C  
HETATM   18  C   UNL     1     -13.122  15.612  72.083  1.00  0.00    -0.458 C  
ENDBRANCH  13  14
ENDBRANCH  10  13
ENDBRANCH   8   9
BRANCH   8  19
HETATM   19  C   UNL     1      -8.705  14.211  66.981  1.00  0.00    -0.222 C  
BRANCH  19  20
HETATM   20  C   UNL     1      -7.970  15.475  67.340  1.00  0.00    -0.211 A  
HETATM   21  C   UNL     1      -6.380  16.670  68.729  1.00  0.00    -0.152 A  
HETATM   22  C   UNL     1      -7.791  17.886  67.191  1.00  0.00    -0.225 A  
HETATM   23  C   UNL     1      -8.370  16.689  66.772  1.00  0.00    -0.270 A  
HETATM   24  C   UNL     1      -6.965  15.472  68.317  1.00  0.00    -0.118 A  
HETATM   25  C   UNL     1      -6.800  17.877  68.170  1.00  0.00    -0.209 A  
ENDBRANCH  19  20
ENDBRANCH   8  19
ENDBRANCH   7   8
BRANCH   7  26
HETATM   26  O   UNL     1     -12.390  13.302  65.969  1.00  0.00    -0.420 OA 
HETATM   27  O   UNL     1     -12.693  13.552  62.714  1.00  0.00    -0.419 OA 
HETATM   28  O   UNL     1     -12.918  11.845  64.252  1.00  0.00    -0.506 OA 
HETATM   29  O   UNL     1     -10.958  13.292  63.994  1.00  0.00    -0.382 OA 
HETATM   30  P   UNL     1     -12.550  13.433  64.252  1.00  0.00     0.014 P  
ENDBRANCH   7  26
ENDBRANCH   6   7
ENDBRANCH   5   6
BRANCH   5  31
HETATM   31  S   UNL     1      -8.894  10.810  68.737  1.00  0.00    -0.154 S  
HETATM   32  O   UNL     1      -8.786  12.191  69.158  1.00  0.00     0.303 OA 
HETATM   33  O   UNL     1      -7.675  10.071  68.476  1.00  0.00    -0.085 OA 
BRANCH  31  34
HETATM   34  C   UNL     1      -9.701   9.981  70.057  1.00  0.00    -0.175 A  
HETATM   35  N   UNL     1     -11.543   7.750  73.077  1.00  0.00    -0.609 NA 
HETATM   36  C   UNL     1     -11.074  10.114  70.256  1.00  0.00    -0.384 A  
HETATM   37  H1  UNL     1     -10.990   7.134  73.674  1.00  0.00     0.000 HD 
HETATM   38  H2  UNL     1     -12.276   7.193  72.636  1.00  0.00     0.000 HD 
HETATM   39  C   UNL     1      -8.974   9.016  70.758  1.00  0.00    -0.286 A  
HETATM   40  C   UNL     1      -9.587   8.288  71.766  1.00  0.00    -0.274 A  
HETATM   41  C   UNL     1     -11.683   9.369  71.268  1.00  0.00    -0.432 A  
HETATM   42  C   UNL     1     -10.925   8.523  72.088  1.00  0.00    -0.357 A  
ENDBRANCH  31  34
ENDBRANCH   5  31
ENDBRANCH   4   5
TORSDOF 12
ENDMDL
MODEL       92
REMARK 921   NORMALIZED FREE ENERGY PREDICTED BY IDOCK:   -5.72 KCAL/MOL
REMARK 922        TOTAL FREE ENERGY PREDICTED BY IDOCK:  -12.53 KCAL/MOL
REMARK 923 INTER-LIGAND FREE ENERGY PREDICTED BY IDOCK:  -10.68 KCAL/MOL
REMARK 924 INTRA-LIGAND FREE ENERGY PREDICTED BY IDOCK:   -1.85 KCAL/MOL
REMARK 927      BINDING AFFINITY PREDICTED BY RF-SCORE:    0.00 PKD
ROOT
HETATM    1  C   UNL     1      -6.863  15.243  67.396  1.00  0.00    -0.188 C  
HETATM    2  C   UNL     1      -7.289  14.568  68.689  1.00  0.00    -0.128 C  
HETATM    3  C   UNL     1      -6.815  15.287  69.953  1.00  0.00    -0.135 C  
HETATM    4  C   UNL     1      -8.688  13.978  68.901  1.00  0.00     0.063 C  
ENDROOT
BRANCH   4   5
HETATM    5  N   UNL     1      -9.989  14.462  68.353  1.00  0.00    -0.235 N  
BRANCH   5   6
HETATM    6  C   UNL     1      -9.856  14.430  66.801  1.00  0.00    -0.264 C  
BRANCH   6   7
HETATM    7  C   UNL     1     -10.247  13.057  66.086  1.00  0.00    -0.284 C  
BRANCH   7   8
HETATM    8  C   UNL     1      -9.318  11.849  66.600  1.00  0.00    -0.205 C  
BRANCH   8   9
HETATM    9  N   UNL     1     -10.069  10.597  66.803  1.00  0.00    -0.216 N  
HETATM   10  C   UNL     1     -10.000   9.911  67.989  1.00  0.00    -0.152 C  
HETATM   11  H   UNL     1     -10.651  10.234  66.048  1.00  0.00     0.000 HD 
HETATM   12  O   UNL     1      -9.391  10.265  68.985  1.00  0.00    -0.169 OA 
BRANCH  10  13
HETATM   13  O   UNL     1     -10.736   8.770  67.903  1.00  0.00    -0.203 OA 
BRANCH  13  14
HETATM   14  C   UNL     1     -10.055   7.651  67.307  1.00  0.00    -0.237 C  
HETATM   15  C   UNL     1      -9.003   7.030  68.198  1.00  0.00    -0.127 C  
HETATM   16  O   UNL     1     -10.310   5.269  67.323  1.00  0.00    -0.206 OA 
HETATM   17  C   UNL     1      -8.980   5.592  67.742  1.00  0.00    -0.108 C  
HETATM   18  C   UNL     1     -11.025   6.493  67.102  1.00  0.00    -0.408 C  
ENDBRANCH  13  14
ENDBRANCH  10  13
ENDBRANCH   8   9
BRANCH   8  19
HETATM   19  C   UNL     1      -8.001  11.584  65.833  1.00  0.00     0.267 C  
BRANCH  19  20
HETATM   20  C   UNL     1      -7.978  10.440  64.856  1.00  0.00    -0.115 A  
HETATM   21  C   UNL     1      -8.819   9.354  62.856  1.00  0.00    -0.216 A  
HETATM   22  C   UNL     1      -7.331   8.163  64.339  1.00  0.00    -0.093 A  
HETATM   23  C   UNL     1      -7.257   9.281  65.167  1.00  0.00    -0.094 A  
HETATM   24  C   UNL     1      -8.754  10.472  63.689  1.00  0.00    -0.184 A  
HETATM   25  C   UNL     1      -8.113   8.198  63.186  1.00  0.00    -0.127 A  
ENDBRANCH  19  20
ENDBRANCH   8  19
ENDBRANCH   7   8
BRANCH   7  26
HETATM   26  O   UNL     1     -10.389  13.201  64.625  1.00  0.00    -0.361 OA 
HETATM   27  O   UNL     1     -13.181  12.156  63.261  1.00  0.00    -0.620 OA 
HETATM   28  O   UNL     1     -12.434  14.161  64.128  1.00  0.00    -0.668 OA 
HETATM   29  O   UNL     1     -12.409  12.001  65.285  1.00  0.00    -0.442 OA 
HETATM   30  P   UNL     1     -11.863  12.650  63.906  1.00  0.00    -0.557 P  
ENDBRANCH   7  26
ENDBRANCH   6   7
ENDBRANCH   5   6
BRANCH   5  31
HETATM   31  S   UNL     1     -11.557  13.968  68.819  1.00  0.00    -0.355 S  
HETATM   32  O   UNL     1     -11.595  12.523  68.914  1.00  0.00    -0.273 OA 
HETATM   33  O   UNL     1     -12.507  14.626  67.944  1.00  0.00    -0.031 OA 
BRANCH  31  34
HETATM   34  C   UNL     1     -11.893  14.551  70.440  1.00  0.00    -0.311 A  
HETATM   35  N   UNL     1     -12.980  15.942  74.231  1.00  0.00    -0.895 NA 
HETATM   36  C   UNL     1     -11.412  15.787  70.872  1.00  0.00    -0.438 A  
HETATM   37  H1  UNL     1     -13.570  15.375  74.839  1.00  0.00     0.000 HD 
HETATM   38  H2  UNL     1     -13.432  16.847  74.102  1.00  0.00     0.000 HD 
HETATM   39  C   UNL     1     -12.834  13.853  71.199  1.00  0.00    -0.423 A  
HETATM   40  C   UNL     1     -13.181  14.313  72.460  1.00  0.00    -0.581 A  
HETATM   41  C   UNL     1     -11.776  16.244  72.140  1.00  0.00    -0.531 A  
HETATM   42  C   UNL     1     -12.586  15.465  72.976  1.00  0.00    -0.434 A  
ENDBRANCH  31  34
ENDBRANCH   5  31
ENDBRANCH   4   5
TORSDOF 12
ENDMDL
MODEL       93
REMARK 921   NORMALIZED FREE ENERGY PREDICTED BY IDOCK:   -5.71 KCAL/MOL
REMARK 922        TOTAL FREE ENERGY PREDICTED BY IDOCK:  -12.52 KCAL/MOL
REMARK 923 INTER-LIGAND FREE ENERGY PREDICTED BY IDOCK:  -11.66 KCAL/MOL
REMARK 924 INTRA-LIGAND FREE ENERGY PREDICTED BY IDOCK:   -0.86 KCAL/MOL
REMARK 927      BINDING AFFINITY PREDICTED BY RF-SCORE:    0.00 PKD
ROOT
HETATM    1  C   UNL     1      -6.592  11.070  69.393  1.00  0.00    -0.104 C  
HETATM    2  C   UNL     1      -7.083  12.133  68.424  1.00  0.00    -0.089 C  
HETATM    3  C   UNL     1      -6.166  12.348  67.218  1.00  0.00    -0.144 C  
HETATM    4  C   UNL     1      -8.552  12.272  68.011  1.00  0.00    -0.176 C  
ENDROOT
BRANCH   4   5
HETATM    5  N   UNL     1      -9.572  11.195  67.841  1.00  0.00    -0.171 N  
BRANCH   5   6
HETATM    6  C   UNL     1      -9.920  10.685  69.271  1.00  0.00    -0.193 C  
BRANCH   6   7
HETATM    7  C   UNL     1     -10.103   9.107  69.434  1.00  0.00    -0.197 C  
BRANCH   7   8
HETATM    8  C   UNL     1     -10.715   8.738  70.875  1.00  0.00    -0.227 C  
BRANCH   8   9
HETATM    9  N   UNL     1     -11.280   9.907  71.573  1.00  0.00    -0.240 N  
HETATM   10  C   UNL     1     -12.529  10.383  71.263  1.00  0.00    -0.415 C  
HETATM   11  H   UNL     1     -10.734  10.370  72.299  1.00  0.00     0.000 HD 
HETATM   12  O   UNL     1     -13.304   9.889  70.462  1.00  0.00    -0.167 OA 
BRANCH  10  13
HETATM   13  O   UNL     1     -12.795  11.492  72.006  1.00  0.00    -0.350 OA 
BRANCH  13  14
HETATM   14  C   UNL     1     -13.352  12.596  71.270  1.00  0.00     0.121 C  
HETATM   15  C   UNL     1     -13.942  13.679  72.145  1.00  0.00    -0.609 C  
HETATM   16  O   UNL     1     -12.583  14.743  70.534  1.00  0.00    -0.334 OA 
HETATM   17  C   UNL     1     -13.776  14.921  71.304  1.00  0.00    -0.435 C  
HETATM   18  C   UNL     1     -12.250  13.347  70.531  1.00  0.00    -0.352 C  
ENDBRANCH  13  14
ENDBRANCH  10  13
ENDBRANCH   8   9
BRANCH   8  19
HETATM   19  C   UNL     1     -11.678   7.530  70.954  1.00  0.00    -0.307 C  
BRANCH  19  20
HETATM   20  C   UNL     1     -11.145   6.245  71.529  1.00  0.00    -0.333 A  
HETATM   21  C   UNL     1      -9.909   4.173  71.278  1.00  0.00    -0.249 A  
HETATM   22  C   UNL     1     -11.212   4.566  73.274  1.00  0.00    -0.388 A  
HETATM   23  C   UNL     1     -11.591   5.814  72.783  1.00  0.00    -0.266 A  
HETATM   24  C   UNL     1     -10.294   5.419  70.782  1.00  0.00    -0.322 A  
HETATM   25  C   UNL     1     -10.375   3.745  72.521  1.00  0.00    -0.204 A  
ENDBRANCH  19  20
ENDBRANCH   8  19
ENDBRANCH   7   8
BRANCH   7  26
HETATM   26  O   UNL     1      -8.908   8.352  69.014  1.00  0.00    -0.144 OA 
HETATM   27  O   UNL     1      -9.220   6.304  66.473  1.00  0.00    -0.147 OA 
HETATM   28  O   UNL     1      -8.638   8.524  66.723  1.00  0.00    -0.110 OA 
HETATM   29  O   UNL     1     -10.677   7.472  67.582  1.00  0.00    -0.239 OA 
HETATM   30  P   UNL     1      -9.073   7.272  67.673  1.00  0.00    -0.123 P  
ENDBRANCH   7  26
ENDBRANCH   6   7
ENDBRANCH   5   6
BRANCH   5  31
HETATM   31  S   UNL     1     -10.981  11.245  66.876  1.00  0.00    -0.272 S  
HETATM   32  O   UNL     1     -12.147  11.150  67.729  1.00  0.00    -0.606 OA 
HETATM   33  O   UNL     1     -10.824  10.274  65.812  1.00  0.00     0.032 OA 
BRANCH  31  34
HETATM   34  C   UNL     1     -11.098  12.814  66.099  1.00  0.00    -0.290 A  
HETATM   35  N   UNL     1     -11.454  16.413  63.999  1.00  0.00    -1.573 NA 
HETATM   36  C   UNL     1      -9.977  13.632  65.961  1.00  0.00    -0.313 A  
HETATM   37  H1  UNL     1     -12.353  16.698  63.612  1.00  0.00     0.000 HD 
HETATM   38  H2  UNL     1     -10.773  16.387  63.239  1.00  0.00     0.000 HD 
HETATM   39  C   UNL     1     -12.284  13.120  65.428  1.00  0.00    -0.510 A  
HETATM   40  C   UNL     1     -12.400  14.320  64.744  1.00  0.00    -0.440 A  
HETATM   41  C   UNL     1     -10.103  14.835  65.262  1.00  0.00    -0.388 A  
HETATM   42  C   UNL     1     -11.339  15.227  64.731  1.00  0.00    -0.391 A  
ENDBRANCH  31  34
ENDBRANCH   5  31
ENDBRANCH   4   5
TORSDOF 12
ENDMDL
MODEL       94
REMARK 921   NORMALIZED FREE ENERGY PREDICTED BY IDOCK:   -5.70 KCAL/MOL
REMARK 922        TOTAL FREE ENERGY PREDICTED BY IDOCK:  -12.51 KCAL/MOL
REMARK 923 INTER-LIGAND FREE ENERGY PREDICTED BY IDOCK:  -10.58 KCAL/MOL
REMARK 924 INTRA-LIGAND FREE ENERGY PREDICTED BY IDOCK:   -1.93 KCAL/MOL
REMARK 927      BINDING AFFINITY PREDICTED BY RF-SCORE:    0.00 PKD
ROOT
HETATM    1  C   UNL     1     -11.525  15.270  72.063  1.00  0.00    -0.500 C  
HETATM    2  C   UNL     1     -12.493  14.232  71.519  1.00  0.00    -0.435 C  
HETATM    3  C   UNL     1     -13.903  14.769  71.262  1.00  0.00    -0.460 C  
HETATM    4  C   UNL     1     -12.105  13.212  70.443  1.00  0.00    -0.317 C  
ENDROOT
BRANCH   4   5
HETATM    5  N   UNL     1     -11.152  13.381  69.307  1.00  0.00    -0.207 N  
BRANCH   5   6
HETATM    6  C   UNL     1     -11.227  12.071  68.467  1.00  0.00    -0.256 C  
BRANCH   6   7
HETATM    7  C   UNL     1      -9.957  11.107  68.546  1.00  0.00    -0.199 C  
BRANCH   7   8
HETATM    8  C   UNL     1     -10.346   9.682  69.181  1.00  0.00    -0.207 C  
BRANCH   8   9
HETATM    9  N   UNL     1      -9.459   8.594  68.731  1.00  0.00    -0.142 N  
HETATM   10  C   UNL     1      -9.821   7.762  67.702  1.00  0.00    -0.163 C  
HETATM   11  H   UNL     1      -8.560   8.457  69.194  1.00  0.00     0.000 HD 
HETATM   12  O   UNL     1     -10.836   7.854  67.032  1.00  0.00    -0.305 OA 
BRANCH  10  13
HETATM   13  O   UNL     1      -8.861   6.816  67.518  1.00  0.00    -0.118 OA 
BRANCH  13  14
HETATM   14  C   UNL     1      -9.343   5.460  67.482  1.00  0.00    -0.114 C  
HETATM   15  C   UNL     1      -9.423   4.876  66.090  1.00  0.00    -0.165 C  
HETATM   16  O   UNL     1      -8.355   3.277  67.460  1.00  0.00    -0.084 OA 
HETATM   17  C   UNL     1      -9.225   3.400  66.331  1.00  0.00    -0.163 C  
HETATM   18  C   UNL     1      -8.347   4.529  68.163  1.00  0.00    -0.094 C  
ENDBRANCH  13  14
ENDBRANCH  10  13
ENDBRANCH   8   9
BRANCH   8  19
HETATM   19  C   UNL     1     -10.565   9.618  70.711  1.00  0.00    -0.392 C  
BRANCH  19  20
HETATM   20  C   UNL     1     -11.843   9.000  71.211  1.00  0.00    -0.379 A  
HETATM   21  C   UNL     1     -13.342   7.100  71.386  1.00  0.00    -0.380 A  
HETATM   22  C   UNL     1     -14.075   9.285  72.111  1.00  0.00    -0.354 A  
HETATM   23  C   UNL     1     -12.834   9.818  71.765  1.00  0.00    -0.530 A  
HETATM   24  C   UNL     1     -12.103   7.634  71.031  1.00  0.00    -0.282 A  
HETATM   25  C   UNL     1     -14.329   7.928  71.919  1.00  0.00    -0.549 A  
ENDBRANCH  19  20
ENDBRANCH   8  19
ENDBRANCH   7   8
BRANCH   7  26
HETATM   26  O   UNL     1      -8.772  11.778  69.112  1.00  0.00     0.167 OA 
HETATM   27  O   UNL     1      -5.932  11.457  67.505  1.00  0.00    -0.053 OA 
HETATM   28  O   UNL     1      -7.678  12.966  67.456  1.00  0.00    -0.151 OA 
HETATM   29  O   UNL     1      -7.876  10.537  67.211  1.00  0.00    -0.105 OA 
HETATM   30  P   UNL     1      -7.273  11.609  68.264  1.00  0.00    -0.100 P  
ENDBRANCH   7  26
ENDBRANCH   6   7
ENDBRANCH   5   6
BRANCH   5  31
HETATM   31  S   UNL     1     -11.000  14.733  68.274  1.00  0.00    -0.269 S  
HETATM   32  O   UNL     1      -9.642  15.233  68.337  1.00  0.00    -0.198 OA 
HETATM   33  O   UNL     1     -12.085  15.645  68.575  1.00  0.00    -0.242 OA 
BRANCH  31  34
HETATM   34  C   UNL     1     -11.232  14.222  66.611  1.00  0.00    -0.334 A  
HETATM   35  N   UNL     1     -11.928  12.767  62.753  1.00  0.00    -0.498 NA 
HETATM   36  C   UNL     1     -10.143  13.917  65.795  1.00  0.00    -0.336 A  
HETATM   37  H1  UNL     1     -12.881  12.657  62.406  1.00  0.00     0.000 HD 
HETATM   38  H2  UNL     1     -11.457  11.864  62.682  1.00  0.00     0.000 HD 
HETATM   39  C   UNL     1     -12.531  13.914  66.202  1.00  0.00    -0.478 A  
HETATM   40  C   UNL     1     -12.757  13.444  64.917  1.00  0.00    -0.365 A  
HETATM   41  C   UNL     1     -10.382  13.435  64.507  1.00  0.00    -0.394 A  
HETATM   42  C   UNL     1     -11.691  13.285  64.030  1.00  0.00    -0.430 A  
ENDBRANCH  31  34
ENDBRANCH   5  31
ENDBRANCH   4   5
TORSDOF 12
ENDMDL
MODEL       95
REMARK 921   NORMALIZED FREE ENERGY PREDICTED BY IDOCK:   -5.69 KCAL/MOL
REMARK 922        TOTAL FREE ENERGY PREDICTED BY IDOCK:  -12.49 KCAL/MOL
REMARK 923 INTER-LIGAND FREE ENERGY PREDICTED BY IDOCK:   -9.71 KCAL/MOL
REMARK 924 INTRA-LIGAND FREE ENERGY PREDICTED BY IDOCK:   -2.79 KCAL/MOL
REMARK 927      BINDING AFFINITY PREDICTED BY RF-SCORE:    0.00 PKD
ROOT
HETATM    1  C   UNL     1      -7.812  14.286  68.073  1.00  0.00    -0.143 C  
HETATM    2  C   UNL     1      -7.854  13.024  67.226  1.00  0.00    -0.132 C  
HETATM    3  C   UNL     1      -6.859  11.947  67.664  1.00  0.00    -0.112 C  
HETATM    4  C   UNL     1      -9.161  12.384  66.747  1.00  0.00    -0.212 C  
ENDROOT
BRANCH   4   5
HETATM    5  N   UNL     1     -10.481  12.341  67.442  1.00  0.00    -0.209 N  
BRANCH   5   6
HETATM    6  C   UNL     1     -10.182  12.037  68.941  1.00  0.00    -0.058 C  
BRANCH   6   7
HETATM    7  C   UNL     1     -10.724  10.644  69.501  1.00  0.00    -0.251 C  
BRANCH   7   8
HETATM    8  C   UNL     1     -10.008   9.404  68.769  1.00  0.00    -0.179 C  
BRANCH   8   9
HETATM    9  N   UNL     1      -9.544   8.372  69.714  1.00  0.00    -0.170 N  
HETATM   10  C   UNL     1      -8.214   8.050  69.817  1.00  0.00    -0.120 C  
HETATM   11  H   UNL     1     -10.223   7.889  70.301  1.00  0.00     0.000 HD 
HETATM   12  O   UNL     1      -7.300   8.590  69.217  1.00  0.00    -0.068 OA 
BRANCH  10  13
HETATM   13  O   UNL     1      -8.055   7.040  70.714  1.00  0.00    -0.110 OA 
BRANCH  13  14
HETATM   14  C   UNL     1      -9.214   6.208  70.904  1.00  0.00    -0.154 C  
HETATM   15  C   UNL     1      -9.123   4.865  70.216  1.00  0.00    -0.165 C  
HETATM   16  O   UNL     1      -9.862   4.473  72.423  1.00  0.00    -0.152 OA 
HETATM   17  C   UNL     1      -9.983   3.980  71.085  1.00  0.00    -0.127 C  
HETATM   18  C   UNL     1      -9.342   5.809  72.370  1.00  0.00    -0.143 C  
ENDBRANCH  13  14
ENDBRANCH  10  13
ENDBRANCH   8   9
BRANCH   8  19
HETATM   19  C   UNL     1     -10.743   8.762  67.569  1.00  0.00    -0.213 C  
BRANCH  19  20
HETATM   20  C   UNL     1     -10.181   7.485  67.004  1.00  0.00    -0.368 A  
HETATM   21  C   UNL     1      -8.555   6.321  65.631  1.00  0.00    -0.143 A  
HETATM   22  C   UNL     1     -10.467   5.132  66.505  1.00  0.00    -0.346 A  
HETATM   23  C   UNL     1     -10.905   6.295  67.134  1.00  0.00    -0.460 A  
HETATM   24  C   UNL     1      -8.997   7.489  66.253  1.00  0.00    -0.199 A  
HETATM   25  C   UNL     1      -9.295   5.145  65.751  1.00  0.00    -0.163 A  
ENDBRANCH  19  20
ENDBRANCH   8  19
ENDBRANCH   7   8
BRANCH   7  26
HETATM   26  O   UNL     1     -12.196  10.600  69.580  1.00  0.00    -0.290 OA 
HETATM   27  O   UNL     1     -13.536   9.501  72.364  1.00  0.00    -0.453 OA 
HETATM   28  O   UNL     1     -12.904  11.570  71.557  1.00  0.00    -0.410 OA 
HETATM   29  O   UNL     1     -11.477   9.582  71.678  1.00  0.00    -0.381 OA 
HETATM   30  P   UNL     1     -12.903  10.020  71.049  1.00  0.00    -0.320 P  
ENDBRANCH   7  26
ENDBRANCH   6   7
ENDBRANCH   5   6
BRANCH   5  31
HETATM   31  S   UNL     1     -11.757  13.470  67.314  1.00  0.00    -0.396 S  
HETATM   32  O   UNL     1     -12.366  13.652  68.615  1.00  0.00    -0.258 OA 
HETATM   33  O   UNL     1     -12.601  13.061  66.209  1.00  0.00    -0.383 OA 
BRANCH  31  34
HETATM   34  C   UNL     1     -11.102  15.040  66.881  1.00  0.00    -0.331 A  
HETATM   35  N   UNL     1      -9.781  18.903  65.977  1.00  0.00    -0.490 NA 
HETATM   36  C   UNL     1     -10.923  15.399  65.546  1.00  0.00    -0.350 A  
HETATM   37  H1  UNL     1      -9.573  19.566  66.724  1.00  0.00     0.000 HD 
HETATM   38  H2  UNL     1     -10.479  19.324  65.362  1.00  0.00     0.000 HD 
HETATM   39  C   UNL     1     -10.981  15.994  67.893  1.00  0.00    -0.327 A  
HETATM   40  C   UNL     1     -10.531  17.269  67.589  1.00  0.00    -0.363 A  
HETATM   41  C   UNL     1     -10.477  16.689  65.250  1.00  0.00    -0.195 A  
HETATM   42  C   UNL     1     -10.191  17.599  66.276  1.00  0.00    -0.362 A  
ENDBRANCH  31  34
ENDBRANCH   5  31
ENDBRANCH   4   5
TORSDOF 12
ENDMDL
MODEL       96
REMARK 921   NORMALIZED FREE ENERGY PREDICTED BY IDOCK:   -5.69 KCAL/MOL
REMARK 922        TOTAL FREE ENERGY PREDICTED BY IDOCK:  -12.48 KCAL/MOL
REMARK 923 INTER-LIGAND FREE ENERGY PREDICTED BY IDOCK:  -10.68 KCAL/MOL
REMARK 924 INTRA-LIGAND FREE ENERGY PREDICTED BY IDOCK:   -1.80 KCAL/MOL
REMARK 927      BINDING AFFINITY PREDICTED BY RF-SCORE:    0.00 PKD
ROOT
HETATM    1  C   UNL     1      -6.916  15.704  67.195  1.00  0.00    -0.169 C  
HETATM    2  C   UNL     1      -7.202  15.263  68.622  1.00  0.00    -0.121 C  
HETATM    3  C   UNL     1      -6.776  16.278  69.685  1.00  0.00    -0.154 C  
HETATM    4  C   UNL     1      -8.503  14.568  69.035  1.00  0.00    -0.048 C  
ENDROOT
BRANCH   4   5
HETATM    5  N   UNL     1      -9.876  14.770  68.487  1.00  0.00    -0.212 N  
BRANCH   5   6
HETATM    6  C   UNL     1      -9.751  14.688  66.936  1.00  0.00    -0.242 C  
BRANCH   6   7
HETATM    7  C   UNL     1     -10.145  13.292  66.269  1.00  0.00    -0.294 C  
BRANCH   7   8
HETATM    8  C   UNL     1      -8.971  12.208  66.451  1.00  0.00    -0.138 C  
BRANCH   8   9
HETATM    9  N   UNL     1      -8.982  11.571  67.780  1.00  0.00    -0.155 N  
HETATM   10  C   UNL     1      -7.817  11.347  68.470  1.00  0.00    -0.140 C  
HETATM   11  H   UNL     1      -9.871  11.292  68.194  1.00  0.00     0.000 HD 
HETATM   12  O   UNL     1      -6.700  11.684  68.114  1.00  0.00    -0.059 OA 
BRANCH  10  13
HETATM   13  O   UNL     1      -8.092  10.705  69.637  1.00  0.00    -0.106 OA 
BRANCH  13  14
HETATM   14  C   UNL     1      -8.936   9.547  69.509  1.00  0.00    -0.181 C  
HETATM   15  C   UNL     1      -8.200   8.234  69.646  1.00  0.00    -0.118 C  
HETATM   16  O   UNL     1     -10.124   8.103  71.007  1.00  0.00    -0.185 OA 
HETATM   17  C   UNL     1      -9.258   7.307  70.192  1.00  0.00    -0.152 C  
HETATM   18  C   UNL     1      -9.923   9.483  70.670  1.00  0.00    -0.276 C  
ENDBRANCH  13  14
ENDBRANCH  10  13
ENDBRANCH   8   9
BRANCH   8  19
HETATM   19  C   UNL     1      -8.796  11.151  65.335  1.00  0.00    -0.110 C  
BRANCH  19  20
HETATM   20  C   UNL     1      -8.794   9.700  65.737  1.00  0.00    -0.186 A  
HETATM   21  C   UNL     1      -7.681   7.549  65.872  1.00  0.00    -0.099 A  
HETATM   22  C   UNL     1     -10.035   7.723  66.384  1.00  0.00    -0.164 A  
HETATM   23  C   UNL     1      -9.990   9.093  66.135  1.00  0.00    -0.338 A  
HETATM   24  C   UNL     1      -7.636   8.920  65.614  1.00  0.00    -0.086 A  
HETATM   25  C   UNL     1      -8.883   6.951  66.249  1.00  0.00    -0.161 A  
ENDBRANCH  19  20
ENDBRANCH   8  19
ENDBRANCH   7   8
BRANCH   7  26
HETATM   26  O   UNL     1     -10.689  13.450  64.906  1.00  0.00    -0.327 OA 
HETATM   27  O   UNL     1     -13.523  11.952  64.219  1.00  0.00    -0.545 OA 
HETATM   28  O   UNL     1     -12.925  14.033  65.018  1.00  0.00    -0.728 OA 
HETATM   29  O   UNL     1     -12.231  11.882  65.963  1.00  0.00    -0.449 OA 
HETATM   30  P   UNL     1     -12.184  12.660  64.544  1.00  0.00    -0.437 P  
ENDBRANCH   7  26
ENDBRANCH   6   7
ENDBRANCH   5   6
BRANCH   5  31
HETATM   31  S   UNL     1     -11.320  14.014  69.001  1.00  0.00    -0.299 S  
HETATM   32  O   UNL     1     -11.074  12.601  69.201  1.00  0.00    -0.245 OA 
HETATM   33  O   UNL     1     -12.375  14.408  68.089  1.00  0.00    -0.196 OA 
BRANCH  31  34
HETATM   34  C   UNL     1     -11.772  14.637  70.578  1.00  0.00    -0.285 A  
HETATM   35  N   UNL     1     -13.133  16.074  74.262  1.00  0.00    -0.893 NA 
HETATM   36  C   UNL     1     -11.491  15.955  70.937  1.00  0.00    -0.444 A  
HETATM   37  H1  UNL     1     -13.645  15.462  74.898  1.00  0.00     0.000 HD 
HETATM   38  H2  UNL     1     -13.713  16.892  74.071  1.00  0.00     0.000 HD 
HETATM   39  C   UNL     1     -12.614  13.853  71.369  1.00  0.00    -0.444 A  
HETATM   40  C   UNL     1     -13.052  14.330  72.595  1.00  0.00    -0.567 A  
HETATM   41  C   UNL     1     -11.945  16.428  72.170  1.00  0.00    -0.479 A  
HETATM   42  C   UNL     1     -12.647  15.587  73.044  1.00  0.00    -0.448 A  
ENDBRANCH  31  34
ENDBRANCH   5  31
ENDBRANCH   4   5
TORSDOF 12
ENDMDL
MODEL       97
REMARK 921   NORMALIZED FREE ENERGY PREDICTED BY IDOCK:   -5.67 KCAL/MOL
REMARK 922        TOTAL FREE ENERGY PREDICTED BY IDOCK:  -12.44 KCAL/MOL
REMARK 923 INTER-LIGAND FREE ENERGY PREDICTED BY IDOCK:  -10.44 KCAL/MOL
REMARK 924 INTRA-LIGAND FREE ENERGY PREDICTED BY IDOCK:   -2.00 KCAL/MOL
REMARK 927      BINDING AFFINITY PREDICTED BY RF-SCORE:    0.00 PKD
ROOT
HETATM    1  C   UNL     1      -6.913  12.602  67.502  1.00  0.00    -0.150 C  
HETATM    2  C   UNL     1      -7.151  11.526  66.456  1.00  0.00    -0.009 C  
HETATM    3  C   UNL     1      -6.102  10.411  66.459  1.00  0.00    -0.072 C  
HETATM    4  C   UNL     1      -8.539  10.954  66.146  1.00  0.00    -0.169 C  
ENDROOT
BRANCH   4   5
HETATM    5  N   UNL     1      -9.682  10.743  67.081  1.00  0.00    -0.168 N  
BRANCH   5   6
HETATM    6  C   UNL     1      -9.131   9.908  68.275  1.00  0.00    -0.122 C  
BRANCH   6   7
HETATM    7  C   UNL     1      -9.314   8.325  68.175  1.00  0.00    -0.133 C  
BRANCH   7   8
HETATM    8  C   UNL     1      -9.762   7.701  69.588  1.00  0.00    -0.171 C  
BRANCH   8   9
HETATM    9  N   UNL     1      -8.848   6.646  70.063  1.00  0.00    -0.141 N  
HETATM   10  C   UNL     1      -9.307   5.387  70.357  1.00  0.00    -0.159 C  
HETATM   11  H   UNL     1      -7.856   6.856  70.175  1.00  0.00     0.000 HD 
HETATM   12  O   UNL     1     -10.452   4.992  70.211  1.00  0.00    -0.261 OA 
BRANCH  10  13
HETATM   13  O   UNL     1      -8.283   4.622  70.822  1.00  0.00    -0.084 OA 
BRANCH  13  14
HETATM   14  C   UNL     1      -8.218   4.500  72.254  1.00  0.00    -0.109 C  
HETATM   15  C   UNL     1      -8.557   5.775  72.992  1.00  0.00    -0.121 C  
HETATM   16  O   UNL     1      -9.770   4.028  74.018  1.00  0.00    -0.108 OA 
HETATM   17  C   UNL     1      -9.118   5.271  74.299  1.00  0.00    -0.117 C  
HETATM   18  C   UNL     1      -9.298   3.546  72.751  1.00  0.00    -0.108 C  
ENDBRANCH  13  14
ENDBRANCH  10  13
ENDBRANCH   8   9
BRANCH   8  19
HETATM   19  C   UNL     1     -10.105   8.688  70.729  1.00  0.00    -0.244 C  
BRANCH  19  20
HETATM   20  C   UNL     1     -11.540   8.775  71.172  1.00  0.00    -0.344 A  
HETATM   21  C   UNL     1     -13.387  10.039  72.109  1.00  0.00    -0.469 A  
HETATM   22  C   UNL     1     -13.586   7.649  71.817  1.00  0.00    -0.392 A  
HETATM   23  C   UNL     1     -12.300   7.605  71.283  1.00  0.00    -0.334 A  
HETATM   24  C   UNL     1     -12.096   9.995  71.582  1.00  0.00    -0.420 A  
HETATM   25  C   UNL     1     -14.128   8.864  72.233  1.00  0.00    -0.512 A  
ENDBRANCH  19  20
ENDBRANCH   8  19
ENDBRANCH   7   8
BRANCH   7  26
HETATM   26  O   UNL     1      -8.183   7.666  67.495  1.00  0.00    -0.118 OA 
HETATM   27  O   UNL     1      -8.883   5.435  65.197  1.00  0.00    -0.156 OA 
HETATM   28  O   UNL     1      -8.512   7.713  65.205  1.00  0.00    -0.138 OA 
HETATM   29  O   UNL     1     -10.141   6.522  66.595  1.00  0.00    -0.176 OA 
HETATM   30  P   UNL     1      -8.553   6.489  66.282  1.00  0.00    -0.147 P  
ENDBRANCH   7  26
ENDBRANCH   6   7
ENDBRANCH   5   6
BRANCH   5  31
HETATM   31  S   UNL     1     -10.789  11.915  67.646  1.00  0.00    -0.240 S  
HETATM   32  O   UNL     1     -10.217  12.603  68.785  1.00  0.00    -0.185 OA 
HETATM   33  O   UNL     1     -12.076  11.268  67.807  1.00  0.00    -0.631 OA 
BRANCH  31  34
HETATM   34  C   UNL     1     -11.007  13.149  66.417  1.00  0.00    -0.288 A  
HETATM   35  N   UNL     1     -11.544  16.288  63.706  1.00  0.00    -1.482 NA 
HETATM   36  C   UNL     1     -12.117  13.133  65.573  1.00  0.00    -0.490 A  
HETATM   37  H1  UNL     1     -10.861  17.043  63.649  1.00  0.00     0.000 HD 
HETATM   38  H2  UNL     1     -12.458  16.698  63.898  1.00  0.00     0.000 HD 
HETATM   39  C   UNL     1     -10.165  14.262  66.458  1.00  0.00    -0.277 A  
HETATM   40  C   UNL     1     -10.341  15.294  65.549  1.00  0.00    -0.408 A  
HETATM   41  C   UNL     1     -12.288  14.182  64.667  1.00  0.00    -0.432 A  
HETATM   42  C   UNL     1     -11.350  15.219  64.588  1.00  0.00    -0.358 A  
ENDBRANCH  31  34
ENDBRANCH   5  31
ENDBRANCH   4   5
TORSDOF 12
ENDMDL
MODEL       98
REMARK 921   NORMALIZED FREE ENERGY PREDICTED BY IDOCK:   -5.66 KCAL/MOL
REMARK 922        TOTAL FREE ENERGY PREDICTED BY IDOCK:  -12.44 KCAL/MOL
REMARK 923 INTER-LIGAND FREE ENERGY PREDICTED BY IDOCK:  -10.19 KCAL/MOL
REMARK 924 INTRA-LIGAND FREE ENERGY PREDICTED BY IDOCK:   -2.26 KCAL/MOL
REMARK 927      BINDING AFFINITY PREDICTED BY RF-SCORE:    0.00 PKD
ROOT
HETATM    1  C   UNL     1     -12.701   6.859  71.311  1.00  0.00    -0.368 C  
HETATM    2  C   UNL     1     -11.328   6.546  71.882  1.00  0.00    -0.327 C  
HETATM    3  C   UNL     1     -11.330   5.439  72.938  1.00  0.00    -0.365 C  
HETATM    4  C   UNL     1     -10.064   6.461  71.019  1.00  0.00    -0.182 C  
ENDROOT
BRANCH   4   5
HETATM    5  N   UNL     1      -9.935   5.987  69.610  1.00  0.00    -0.161 N  
BRANCH   5   6
HETATM    6  C   UNL     1      -9.794   7.260  68.725  1.00  0.00    -0.161 C  
BRANCH   6   7
HETATM    7  C   UNL     1      -9.396   8.608  69.482  1.00  0.00    -0.153 C  
BRANCH   7   8
HETATM    8  C   UNL     1     -10.393   9.810  69.095  1.00  0.00    -0.211 C  
BRANCH   8   9
HETATM    9  N   UNL     1     -10.615   9.924  67.643  1.00  0.00    -0.252 N  
HETATM   10  C   UNL     1      -9.966  10.875  66.898  1.00  0.00    -0.194 C  
HETATM   11  H   UNL     1     -11.262   9.283  67.183  1.00  0.00     0.000 HD 
HETATM   12  O   UNL     1      -9.128  11.659  67.312  1.00  0.00    -0.162 OA 
BRANCH  10  13
HETATM   13  O   UNL     1     -10.380  10.806  65.603  1.00  0.00    -0.254 OA 
BRANCH  13  14
HETATM   14  C   UNL     1     -10.755  12.066  65.019  1.00  0.00    -0.296 C  
HETATM   15  C   UNL     1     -11.089  11.982  63.547  1.00  0.00    -0.519 C  
HETATM   16  O   UNL     1     -12.809  13.223  64.585  1.00  0.00    -0.679 OA 
HETATM   17  C   UNL     1     -12.079  13.106  63.359  1.00  0.00    -0.486 C  
HETATM   18  C   UNL     1     -12.070  12.554  65.618  1.00  0.00    -0.400 C  
ENDBRANCH  13  14
ENDBRANCH  10  13
ENDBRANCH   8   9
BRANCH   8  19
HETATM   19  C   UNL     1     -11.731   9.904  69.866  1.00  0.00    -0.131 C  
BRANCH  19  20
HETATM   20  C   UNL     1     -12.187  11.266  70.314  1.00  0.00    -0.428 A  
HETATM   21  C   UNL     1     -12.137  13.683  70.108  1.00  0.00    -0.431 A  
HETATM   22  C   UNL     1     -13.219  12.657  72.008  1.00  0.00    -0.531 A  
HETATM   23  C   UNL     1     -12.904  11.395  71.510  1.00  0.00    -0.508 A  
HETATM   24  C   UNL     1     -11.812  12.420  69.612  1.00  0.00    -0.380 A  
HETATM   25  C   UNL     1     -12.834  13.800  71.310  1.00  0.00    -0.434 A  
ENDBRANCH  19  20
ENDBRANCH   8  19
ENDBRANCH   7   8
BRANCH   7  26
HETATM   26  O   UNL     1      -7.952   8.899  69.399  1.00  0.00    -0.095 OA 
HETATM   27  O   UNL     1      -6.354   9.473  72.203  1.00  0.00    -0.297 OA 
HETATM   28  O   UNL     1      -6.802   7.601  70.930  1.00  0.00    -0.042 OA 
HETATM   29  O   UNL     1      -8.463   9.196  71.767  1.00  0.00    -0.340 OA 
HETATM   30  P   UNL     1      -7.109   9.202  70.879  1.00  0.00    -0.068 P  
ENDBRANCH   7  26
ENDBRANCH   6   7
ENDBRANCH   5   6
BRANCH   5  31
HETATM   31  S   UNL     1      -8.916   4.747  69.023  1.00  0.00    -0.110 S  
HETATM   32  O   UNL     1      -9.494   3.460  69.349  1.00  0.00    -0.171 OA 
HETATM   33  O   UNL     1      -7.568   5.032  69.472  1.00  0.00    -0.056 OA 
BRANCH  31  34
HETATM   34  C   UNL     1      -8.877   4.810  67.270  1.00  0.00    -0.103 A  
HETATM   35  N   UNL     1      -8.840   4.668  63.090  1.00  0.00    -0.134 NA 
HETATM   36  C   UNL     1      -7.710   5.159  66.590  1.00  0.00    -0.092 A  
HETATM   37  H1  UNL     1      -9.680   4.403  62.575  1.00  0.00     0.000 HD 
HETATM   38  H2  UNL     1      -8.086   4.038  62.816  1.00  0.00     0.000 HD 
HETATM   39  C   UNL     1      -9.970   4.285  66.576  1.00  0.00    -0.214 A  
HETATM   40  C   UNL     1      -9.956   4.253  65.190  1.00  0.00    -0.215 A  
HETATM   41  C   UNL     1      -7.705   5.114  65.194  1.00  0.00    -0.084 A  
HETATM   42  C   UNL     1      -8.858   4.750  64.487  1.00  0.00    -0.147 A  
ENDBRANCH  31  34
ENDBRANCH   5  31
ENDBRANCH   4   5
TORSDOF 12
ENDMDL
MODEL       99
REMARK 921   NORMALIZED FREE ENERGY PREDICTED BY IDOCK:   -5.66 KCAL/MOL
REMARK 922        TOTAL FREE ENERGY PREDICTED BY IDOCK:  -12.43 KCAL/MOL
REMARK 923 INTER-LIGAND FREE ENERGY PREDICTED BY IDOCK:   -9.98 KCAL/MOL
REMARK 924 INTRA-LIGAND FREE ENERGY PREDICTED BY IDOCK:   -2.46 KCAL/MOL
REMARK 927      BINDING AFFINITY PREDICTED BY RF-SCORE:    0.00 PKD
ROOT
HETATM    1  C   UNL     1     -11.511  15.326  72.028  1.00  0.00    -0.500 C  
HETATM    2  C   UNL     1     -12.558  14.250  71.789  1.00  0.00    -0.418 C  
HETATM    3  C   UNL     1     -13.999  14.763  71.827  1.00  0.00    -0.568 C  
HETATM    4  C   UNL     1     -12.406  13.160  70.722  1.00  0.00    -0.321 C  
ENDROOT
BRANCH   4   5
HETATM    5  N   UNL     1     -11.740  13.255  69.390  1.00  0.00    -0.308 N  
BRANCH   5   6
HETATM    6  C   UNL     1     -12.107  11.953  68.618  1.00  0.00    -0.095 C  
BRANCH   6   7
HETATM    7  C   UNL     1     -10.885  11.030  68.167  1.00  0.00    -0.226 C  
BRANCH   7   8
HETATM    8  C   UNL     1     -10.437  10.038  69.351  1.00  0.00    -0.232 C  
BRANCH   8   9
HETATM    9  N   UNL     1      -9.199  10.472  70.023  1.00  0.00    -0.284 N  
HETATM   10  C   UNL     1      -8.005   9.836  69.793  1.00  0.00    -0.164 C  
HETATM   11  H   UNL     1      -9.231  11.259  70.670  1.00  0.00     0.000 HD 
HETATM   12  O   UNL     1      -7.822   8.925  69.003  1.00  0.00    -0.089 OA 
BRANCH  10  13
HETATM   13  O   UNL     1      -7.034  10.389  70.568  1.00  0.00    -0.305 OA 
BRANCH  13  14
HETATM   14  C   UNL     1      -5.947  10.991  69.842  1.00  0.00    -0.099 C  
HETATM   15  C   UNL     1      -6.318  11.438  68.446  1.00  0.00    -0.046 C  
HETATM   16  O   UNL     1      -5.150  13.219  69.465  1.00  0.00    -0.082 OA 
HETATM   17  C   UNL     1      -5.377  12.592  68.199  1.00  0.00    -0.069 C  
HETATM   18  C   UNL     1      -5.538  12.304  70.500  1.00  0.00    -0.168 C  
ENDBRANCH  13  14
ENDBRANCH  10  13
ENDBRANCH   8   9
BRANCH   8  19
HETATM   19  C   UNL     1     -11.512   9.629  70.385  1.00  0.00    -0.325 C  
BRANCH  19  20
HETATM   20  C   UNL     1     -11.263   8.390  71.202  1.00  0.00    -0.307 A  
HETATM   21  C   UNL     1     -11.593   6.018  71.594  1.00  0.00    -0.263 A  
HETATM   22  C   UNL     1     -10.549   7.386  73.288  1.00  0.00    -0.442 A  
HETATM   23  C   UNL     1     -10.666   8.503  72.463  1.00  0.00    -0.303 A  
HETATM   24  C   UNL     1     -11.720   7.137  70.769  1.00  0.00    -0.363 A  
HETATM   25  C   UNL     1     -11.015   6.146  72.856  1.00  0.00    -0.294 A  
ENDBRANCH  19  20
ENDBRANCH   8  19
ENDBRANCH   7   8
BRANCH   7  26
HETATM   26  O   UNL     1      -9.810  11.796  67.509  1.00  0.00    -0.183 OA 
HETATM   27  O   UNL     1      -8.704  10.696  64.625  1.00  0.00    -0.184 OA 
HETATM   28  O   UNL     1     -10.354  12.166  65.291  1.00  0.00    -0.262 OA 
HETATM   29  O   UNL     1     -10.099   9.854  66.061  1.00  0.00    -0.259 OA 
HETATM   30  P   UNL     1      -9.227  11.215  65.987  1.00  0.00    -0.210 P  
ENDBRANCH   7  26
ENDBRANCH   6   7
ENDBRANCH   5   6
BRANCH   5  31
HETATM   31  S   UNL     1     -11.741  14.590  68.323  1.00  0.00    -0.324 S  
HETATM   32  O   UNL     1     -12.372  15.720  68.973  1.00  0.00    -0.180 OA 
HETATM   33  O   UNL     1     -12.271  14.141  67.051  1.00  0.00    -0.432 OA 
BRANCH  31  34
HETATM   34  C   UNL     1     -10.086  15.091  68.019  1.00  0.00    -0.223 A  
HETATM   35  N   UNL     1      -6.129  16.072  67.088  1.00  0.00    -0.327 NA 
HETATM   36  C   UNL     1      -9.111  14.985  69.010  1.00  0.00    -0.205 A  
HETATM   37  H1  UNL     1      -5.886  16.405  66.155  1.00  0.00     0.000 HD 
HETATM   38  H2  UNL     1      -5.559  15.251  67.293  1.00  0.00     0.000 HD 
HETATM   39  C   UNL     1      -9.728  15.382  66.701  1.00  0.00    -0.269 A  
HETATM   40  C   UNL     1      -8.417  15.719  66.401  1.00  0.00    -0.313 A  
HETATM   41  C   UNL     1      -7.792  15.318  68.694  1.00  0.00    -0.142 A  
HETATM   42  C   UNL     1      -7.457  15.775  67.413  1.00  0.00    -0.194 A  
ENDBRANCH  31  34
ENDBRANCH   5  31
ENDBRANCH   4   5
TORSDOF 12
ENDMDL
MODEL      100
REMARK 921   NORMALIZED FREE ENERGY PREDICTED BY IDOCK:   -5.66 KCAL/MOL
REMARK 922        TOTAL FREE ENERGY PREDICTED BY IDOCK:  -12.43 KCAL/MOL
REMARK 923 INTER-LIGAND FREE ENERGY PREDICTED BY IDOCK:   -9.82 KCAL/MOL
REMARK 924 INTRA-LIGAND FREE ENERGY PREDICTED BY IDOCK:   -2.62 KCAL/MOL
REMARK 927      BINDING AFFINITY PREDICTED BY RF-SCORE:    0.00 PKD
ROOT
HETATM    1  C   UNL     1      -6.603  10.628  69.268  1.00  0.00    -0.068 C  
HETATM    2  C   UNL     1      -6.948  11.437  68.028  1.00  0.00    -0.069 C  
HETATM    3  C   UNL     1      -6.337  10.887  66.736  1.00  0.00    -0.097 C  
HETATM    4  C   UNL     1      -8.348  12.000  67.761  1.00  0.00    -0.156 C  
ENDROOT
BRANCH   4   5
HETATM    5  N   UNL     1      -9.669  11.412  68.131  1.00  0.00    -0.186 N  
BRANCH   5   6
HETATM    6  C   UNL     1      -9.436  10.582  69.429  1.00  0.00    -0.136 C  
BRANCH   6   7
HETATM    7  C   UNL     1      -9.827   9.036  69.359  1.00  0.00    -0.183 C  
BRANCH   7   8
HETATM    8  C   UNL     1      -9.383   8.386  67.957  1.00  0.00    -0.136 C  
BRANCH   8   9
HETATM    9  N   UNL     1      -9.087   6.946  68.062  1.00  0.00    -0.121 N  
HETATM   10  C   UNL     1      -7.800   6.478  67.983  1.00  0.00    -0.105 C  
HETATM   11  H   UNL     1      -9.852   6.286  68.196  1.00  0.00     0.000 HD 
HETATM   12  O   UNL     1      -6.795   7.162  67.882  1.00  0.00    -0.068 OA 
BRANCH  10  13
HETATM   13  O   UNL     1      -7.800   5.119  68.055  1.00  0.00    -0.087 OA 
BRANCH  13  14
HETATM   14  C   UNL     1      -8.809   4.470  67.260  1.00  0.00    -0.106 C  
HETATM   15  C   UNL     1      -8.440   4.327  65.801  1.00  0.00    -0.113 C  
HETATM   16  O   UNL     1      -9.252   2.232  66.528  1.00  0.00    -0.099 OA 
HETATM   17  C   UNL     1      -9.193   3.088  65.382  1.00  0.00    -0.141 C  
HETATM   18  C   UNL     1      -8.967   3.017  67.695  1.00  0.00    -0.161 C  
ENDBRANCH  13  14
ENDBRANCH  10  13
ENDBRANCH   8   9
BRANCH   8  19
HETATM   19  C   UNL     1     -10.268   8.678  66.722  1.00  0.00    -0.361 C  
BRANCH  19  20
HETATM   20  C   UNL     1      -9.584   9.136  65.462  1.00  0.00    -0.239 A  
HETATM   21  C   UNL     1      -7.771   8.960  63.860  1.00  0.00    -0.129 A  
HETATM   22  C   UNL     1      -9.293  10.832  63.757  1.00  0.00    -0.295 A  
HETATM   23  C   UNL     1      -9.997  10.323  64.846  1.00  0.00    -0.393 A  
HETATM   24  C   UNL     1      -8.469   8.453  64.957  1.00  0.00    -0.160 A  
HETATM   25  C   UNL     1      -8.179  10.153  63.267  1.00  0.00    -0.162 A  
ENDBRANCH  19  20
ENDBRANCH   8  19
ENDBRANCH   7   8
BRANCH   7  26
HETATM   26  O   UNL     1     -11.215   8.783  69.791  1.00  0.00    -0.144 OA 
HETATM   27  O   UNL     1     -11.695   6.515  72.110  1.00  0.00    -0.294 OA 
HETATM   28  O   UNL     1     -11.331   8.795  72.101  1.00  0.00    -0.351 OA 
HETATM   29  O   UNL     1      -9.919   7.114  71.012  1.00  0.00    -0.188 OA 
HETATM   30  P   UNL     1     -11.468   7.587  71.015  1.00  0.00    -0.282 P  
ENDBRANCH   7  26
ENDBRANCH   6   7
ENDBRANCH   5   6
BRANCH   5  31
HETATM   31  S   UNL     1     -11.175  12.214  68.209  1.00  0.00    -0.293 S  
HETATM   32  O   UNL     1     -11.209  13.054  69.388  1.00  0.00    -0.226 OA 
HETATM   33  O   UNL     1     -12.216  11.220  68.041  1.00  0.00    -0.621 OA 
BRANCH  31  34
HETATM   34  C   UNL     1     -11.319  13.314  66.849  1.00  0.00    -0.318 A  
HETATM   35  N   UNL     1     -11.759  16.140  63.798  1.00  0.00    -1.406 NA 
HETATM   36  C   UNL     1     -12.196  13.046  65.799  1.00  0.00    -0.511 A  
HETATM   37  H1  UNL     1     -11.216  17.003  63.811  1.00  0.00     0.000 HD 
HETATM   38  H2  UNL     1     -12.749  16.386  63.755  1.00  0.00     0.000 HD 
HETATM   39  C   UNL     1     -10.705  14.563  66.956  1.00  0.00    -0.291 A  
HETATM   40  C   UNL     1     -10.844  15.491  65.936  1.00  0.00    -0.317 A  
HETATM   41  C   UNL     1     -12.336  13.992  64.781  1.00  0.00    -0.437 A  
HETATM   42  C   UNL     1     -11.590  15.177  64.798  1.00  0.00    -0.364 A  
ENDBRANCH  31  34
ENDBRANCH   5  31
ENDBRANCH   4   5
TORSDOF 12
ENDMDL
MODEL      101
REMARK 921   NORMALIZED FREE ENERGY PREDICTED BY IDOCK:   -5.66 KCAL/MOL
REMARK 922        TOTAL FREE ENERGY PREDICTED BY IDOCK:  -12.43 KCAL/MOL
REMARK 923 INTER-LIGAND FREE ENERGY PREDICTED BY IDOCK:  -10.47 KCAL/MOL
REMARK 924 INTRA-LIGAND FREE ENERGY PREDICTED BY IDOCK:   -1.96 KCAL/MOL
REMARK 927      BINDING AFFINITY PREDICTED BY RF-SCORE:    0.00 PKD
ROOT
HETATM    1  C   UNL     1     -10.499   7.664  72.883  1.00  0.00    -0.394 C  
HETATM    2  C   UNL     1     -11.480   7.888  71.744  1.00  0.00    -0.313 C  
HETATM    3  C   UNL     1     -12.470   9.029  71.990  1.00  0.00    -0.460 C  
HETATM    4  C   UNL     1     -11.069   7.844  70.268  1.00  0.00    -0.229 C  
ENDROOT
BRANCH   4   5
HETATM    5  N   UNL     1      -9.773   8.258  69.655  1.00  0.00    -0.172 N  
BRANCH   5   6
HETATM    6  C   UNL     1      -9.524   9.731  70.098  1.00  0.00    -0.229 C  
BRANCH   6   7
HETATM    7  C   UNL     1      -9.331  10.799  68.927  1.00  0.00    -0.175 C  
BRANCH   7   8
HETATM    8  C   UNL     1     -10.745  11.392  68.442  1.00  0.00    -0.203 C  
BRANCH   8   9
HETATM    9  N   UNL     1     -11.044  12.711  69.029  1.00  0.00    -0.331 N  
HETATM   10  C   UNL     1     -11.931  12.841  70.068  1.00  0.00    -0.301 C  
HETATM   11  H   UNL     1     -10.583  13.541  68.657  1.00  0.00     0.000 HD 
HETATM   12  O   UNL     1     -12.501  11.927  70.640  1.00  0.00    -0.318 OA 
BRANCH  10  13
HETATM   13  O   UNL     1     -12.070  14.156  70.390  1.00  0.00    -0.303 OA 
BRANCH  13  14
HETATM   14  C   UNL     1     -12.443  14.409  71.757  1.00  0.00    -0.339 C  
HETATM   15  C   UNL     1     -11.684  15.551  72.396  1.00  0.00    -0.570 C  
HETATM   16  O   UNL     1     -13.972  15.868  72.886  1.00  0.00    -0.592 OA 
HETATM   17  C   UNL     1     -12.661  16.074  73.421  1.00  0.00    -0.561 C  
HETATM   18  C   UNL     1     -13.883  14.903  71.827  1.00  0.00    -0.462 C  
ENDBRANCH  13  14
ENDBRANCH  10  13
ENDBRANCH   8   9
BRANCH   8  19
HETATM   19  C   UNL     1     -11.039  11.385  66.923  1.00  0.00    -0.356 C  
BRANCH  19  20
HETATM   20  C   UNL     1     -11.033  12.707  66.203  1.00  0.00    -0.313 A  
HETATM   21  C   UNL     1      -9.929  14.785  65.613  1.00  0.00    -0.390 A  
HETATM   22  C   UNL     1     -12.266  14.471  65.091  1.00  0.00    -0.346 A  
HETATM   23  C   UNL     1     -12.221  13.194  65.645  1.00  0.00    -0.521 A  
HETATM   24  C   UNL     1      -9.884  13.509  66.176  1.00  0.00    -0.292 A  
HETATM   25  C   UNL     1     -11.122  15.267  65.078  1.00  0.00    -0.436 A  
ENDBRANCH  19  20
ENDBRANCH   8  19
ENDBRANCH   7   8
BRANCH   7  26
HETATM   26  O   UNL     1      -8.421  10.321  67.870  1.00  0.00    -0.117 OA 
HETATM   27  O   UNL     1      -5.854  12.212  67.105  1.00  0.00    -0.141 OA 
HETATM   28  O   UNL     1      -6.228  10.485  68.590  1.00  0.00    -0.046 OA 
HETATM   29  O   UNL     1      -7.556  12.537  68.415  1.00  0.00    -0.118 OA 
HETATM   30  P   UNL     1      -7.066  11.319  67.467  1.00  0.00    -0.114 P  
ENDBRANCH   7  26
ENDBRANCH   6   7
ENDBRANCH   5   6
BRANCH   5  31
HETATM   31  S   UNL     1      -8.302   7.389  69.653  1.00  0.00    -0.132 S  
HETATM   32  O   UNL     1      -7.446   7.896  70.705  1.00  0.00    -0.067 OA 
HETATM   33  O   UNL     1      -7.795   7.379  68.295  1.00  0.00    -0.117 OA 
BRANCH  31  34
HETATM   34  C   UNL     1      -8.617   5.714  70.074  1.00  0.00    -0.122 A  
HETATM   35  N   UNL     1      -9.651   1.770  71.003  1.00  0.00    -0.133 NA 
HETATM   36  C   UNL     1      -8.438   5.256  71.379  1.00  0.00    -0.125 A  
HETATM   37  H1  UNL     1     -10.009   1.146  70.280  1.00  0.00     0.000 HD 
HETATM   38  H2  UNL     1     -10.336   1.808  71.759  1.00  0.00     0.000 HD 
HETATM   39  C   UNL     1      -9.262   4.917  69.126  1.00  0.00    -0.166 A  
HETATM   40  C   UNL     1      -9.592   3.606  69.436  1.00  0.00    -0.196 A  
HETATM   41  C   UNL     1      -8.782   3.937  71.682  1.00  0.00    -0.129 A  
HETATM   42  C   UNL     1      -9.273   3.080  70.689  1.00  0.00    -0.138 A  
ENDBRANCH  31  34
ENDBRANCH   5  31
ENDBRANCH   4   5
TORSDOF 12
ENDMDL
MODEL      102
REMARK 921   NORMALIZED FREE ENERGY PREDICTED BY IDOCK:   -5.65 KCAL/MOL
REMARK 922        TOTAL FREE ENERGY PREDICTED BY IDOCK:  -12.41 KCAL/MOL
REMARK 923 INTER-LIGAND FREE ENERGY PREDICTED BY IDOCK:  -10.13 KCAL/MOL
REMARK 924 INTRA-LIGAND FREE ENERGY PREDICTED BY IDOCK:   -2.28 KCAL/MOL
REMARK 927      BINDING AFFINITY PREDICTED BY RF-SCORE:    0.00 PKD
ROOT
HETATM    1  C   UNL     1     -11.711   6.751  70.290  1.00  0.00    -0.397 C  
HETATM    2  C   UNL     1     -11.489   7.956  71.190  1.00  0.00    -0.297 C  
HETATM    3  C   UNL     1     -11.652   7.658  72.682  1.00  0.00    -0.371 C  
HETATM    4  C   UNL     1     -10.359   8.967  70.967  1.00  0.00    -0.278 C  
ENDROOT
BRANCH   4   5
HETATM    5  N   UNL     1      -8.991   8.723  70.423  1.00  0.00    -0.155 N  
BRANCH   5   6
HETATM    6  C   UNL     1      -8.501  10.077  69.830  1.00  0.00    -0.172 C  
BRANCH   6   7
HETATM    7  C   UNL     1      -9.161  10.522  68.445  1.00  0.00    -0.148 C  
BRANCH   7   8
HETATM    8  C   UNL     1     -10.042  11.856  68.623  1.00  0.00    -0.177 C  
BRANCH   8   9
HETATM    9  N   UNL     1      -9.758  12.870  67.591  1.00  0.00    -0.207 N  
HETATM   10  C   UNL     1     -10.459  12.900  66.413  1.00  0.00    -0.267 C  
HETATM   11  H   UNL     1      -9.028  13.562  67.757  1.00  0.00     0.000 HD 
HETATM   12  O   UNL     1     -11.391  12.171  66.116  1.00  0.00    -0.330 OA 
BRANCH  10  13
HETATM   13  O   UNL     1      -9.974  13.890  65.615  1.00  0.00    -0.309 OA 
BRANCH  13  14
HETATM   14  C   UNL     1     -10.541  15.191  65.850  1.00  0.00    -0.337 C  
HETATM   15  C   UNL     1      -9.511  16.282  66.040  1.00  0.00    -0.369 C  
HETATM   16  O   UNL     1     -11.116  17.092  64.508  1.00  0.00    -1.098 OA 
HETATM   17  C   UNL     1     -10.230  17.515  65.550  1.00  0.00     0.055 C  
HETATM   18  C   UNL     1     -11.291  15.671  64.613  1.00  0.00    -0.349 C  
ENDBRANCH  13  14
ENDBRANCH  10  13
ENDBRANCH   8   9
BRANCH   8  19
HETATM   19  C   UNL     1     -11.567  11.683  68.821  1.00  0.00    -0.374 C  
BRANCH  19  20
HETATM   20  C   UNL     1     -12.213  12.423  69.962  1.00  0.00    -0.264 A  
HETATM   21  C   UNL     1     -12.607  14.475  71.193  1.00  0.00    -0.406 A  
HETATM   22  C   UNL     1     -13.315  12.360  72.118  1.00  0.00    -0.508 A  
HETATM   23  C   UNL     1     -12.829  11.701  70.990  1.00  0.00    -0.339 A  
HETATM   24  C   UNL     1     -12.112  13.817  70.067  1.00  0.00    -0.416 A  
HETATM   25  C   UNL     1     -13.202  13.745  72.221  1.00  0.00    -0.563 A  
ENDBRANCH  19  20
ENDBRANCH   8  19
ENDBRANCH   7   8
BRANCH   7  26
HETATM   26  O   UNL     1      -9.804   9.398  67.738  1.00  0.00    -0.157 OA 
HETATM   27  O   UNL     1      -8.552   8.513  64.840  1.00  0.00    -0.171 OA 
HETATM   28  O   UNL     1      -8.195   7.893  67.034  1.00  0.00    -0.114 OA 
HETATM   29  O   UNL     1      -8.114  10.180  66.160  1.00  0.00    -0.116 OA 
HETATM   30  P   UNL     1      -9.143   8.931  66.209  1.00  0.00    -0.222 P  
ENDBRANCH   7  26
ENDBRANCH   6   7
ENDBRANCH   5   6
BRANCH   5  31
HETATM   31  S   UNL     1      -7.697   7.918  71.196  1.00  0.00    -0.089 S  
HETATM   32  O   UNL     1      -7.266   8.695  72.340  1.00  0.00    -0.243 OA 
HETATM   33  O   UNL     1      -6.717   7.580  70.184  1.00  0.00    -0.048 OA 
BRANCH  31  34
HETATM   34  C   UNL     1      -8.270   6.396  71.856  1.00  0.00    -0.109 A  
HETATM   35  N   UNL     1      -9.888   2.810  73.274  1.00  0.00    -0.099 NA 
HETATM   36  C   UNL     1      -8.460   6.234  73.227  1.00  0.00    -0.119 A  
HETATM   37  H1  UNL     1     -10.120   2.056  72.626  1.00  0.00     0.000 HD 
HETATM   38  H2  UNL     1     -10.729   3.046  73.802  1.00  0.00     0.000 HD 
HETATM   39  C   UNL     1      -8.743   5.437  70.958  1.00  0.00    -0.141 A  
HETATM   40  C   UNL     1      -9.267   4.244  71.434  1.00  0.00    -0.194 A  
HETATM   41  C   UNL     1      -8.997   5.033  73.695  1.00  0.00    -0.117 A  
HETATM   42  C   UNL     1      -9.316   3.997  72.807  1.00  0.00    -0.119 A  
ENDBRANCH  31  34
ENDBRANCH   5  31
ENDBRANCH   4   5
TORSDOF 12
ENDMDL
MODEL      103
REMARK 921   NORMALIZED FREE ENERGY PREDICTED BY IDOCK:   -5.64 KCAL/MOL
REMARK 922        TOTAL FREE ENERGY PREDICTED BY IDOCK:  -12.39 KCAL/MOL
REMARK 923 INTER-LIGAND FREE ENERGY PREDICTED BY IDOCK:   -9.54 KCAL/MOL
REMARK 924 INTRA-LIGAND FREE ENERGY PREDICTED BY IDOCK:   -2.86 KCAL/MOL
REMARK 927      BINDING AFFINITY PREDICTED BY RF-SCORE:    0.00 PKD
ROOT
HETATM    1  C   UNL     1     -12.907  10.250  71.403  1.00  0.00    -0.544 C  
HETATM    2  C   UNL     1     -13.088   8.910  72.097  1.00  0.00    -0.475 C  
HETATM    3  C   UNL     1     -14.236   8.068  71.536  1.00  0.00    -0.513 C  
HETATM    4  C   UNL     1     -11.913   8.013  72.500  1.00  0.00    -0.327 C  
ENDROOT
BRANCH   4   5
HETATM    5  N   UNL     1     -10.605   7.834  71.805  1.00  0.00    -0.213 N  
BRANCH   5   6
HETATM    6  C   UNL     1     -10.064   9.263  71.503  1.00  0.00    -0.236 C  
BRANCH   6   7
HETATM    7  C   UNL     1      -9.592   9.538  70.003  1.00  0.00    -0.238 C  
BRANCH   7   8
HETATM    8  C   UNL     1     -10.725   9.102  68.947  1.00  0.00    -0.141 C  
BRANCH   8   9
HETATM    9  N   UNL     1     -10.601   9.799  67.655  1.00  0.00    -0.259 N  
HETATM   10  C   UNL     1     -11.325  10.933  67.387  1.00  0.00    -0.195 C  
HETATM   11  H   UNL     1      -9.964   9.432  66.947  1.00  0.00     0.000 HD 
HETATM   12  O   UNL     1     -12.072  11.504  68.163  1.00  0.00    -0.604 OA 
BRANCH  10  13
HETATM   13  O   UNL     1     -11.072  11.350  66.116  1.00  0.00    -0.278 OA 
BRANCH  13  14
HETATM   14  C   UNL     1     -11.948  12.383  65.631  1.00  0.00    -0.386 C  
HETATM   15  C   UNL     1     -11.305  13.749  65.564  1.00  0.00    -0.313 C  
HETATM   16  O   UNL     1     -12.413  13.394  63.509  1.00  0.00    -0.738 OA 
HETATM   17  C   UNL     1     -12.055  14.421  64.439  1.00  0.00    -0.470 C  
HETATM   18  C   UNL     1     -12.307  12.126  64.171  1.00  0.00    -0.409 C  
ENDBRANCH  13  14
ENDBRANCH  10  13
ENDBRANCH   8   9
BRANCH   8  19
HETATM   19  C   UNL     1     -10.960   7.588  68.737  1.00  0.00     0.045 C  
BRANCH  19  20
HETATM   20  C   UNL     1     -10.293   6.933  67.557  1.00  0.00    -0.277 A  
HETATM   21  C   UNL     1     -10.226   5.192  65.868  1.00  0.00    -0.157 A  
HETATM   22  C   UNL     1      -8.311   6.627  66.198  1.00  0.00    -0.130 A  
HETATM   23  C   UNL     1      -8.994   7.313  67.201  1.00  0.00    -0.132 A  
HETATM   24  C   UNL     1     -10.908   5.871  66.879  1.00  0.00    -0.376 A  
HETATM   25  C   UNL     1      -8.925   5.566  65.535  1.00  0.00    -0.133 A  
ENDBRANCH  19  20
ENDBRANCH   8  19
ENDBRANCH   7   8
BRANCH   7  26
HETATM   26  O   UNL     1      -8.226   9.049  69.740  1.00  0.00    -0.108 OA 
HETATM   27  O   UNL     1      -6.029  11.207  68.615  1.00  0.00    -0.043 OA 
HETATM   28  O   UNL     1      -6.683  10.477  70.705  1.00  0.00    -0.343 OA 
HETATM   29  O   UNL     1      -8.166  11.363  68.968  1.00  0.00    -0.096 OA 
HETATM   30  P   UNL     1      -7.067  10.188  69.147  1.00  0.00    -0.093 P  
ENDBRANCH   7  26
ENDBRANCH   6   7
ENDBRANCH   5   6
BRANCH   5  31
HETATM   31  S   UNL     1      -9.320   6.804  72.263  1.00  0.00    -0.137 S  
HETATM   32  O   UNL     1      -9.763   5.933  73.332  1.00  0.00    -0.152 OA 
HETATM   33  O   UNL     1      -8.149   7.629  72.486  1.00  0.00    -0.101 OA 
BRANCH  31  34
HETATM   34  C   UNL     1      -8.925   5.738  70.926  1.00  0.00    -0.145 A  
HETATM   35  N   UNL     1      -8.035   2.969  67.921  1.00  0.00    -0.070 NA 
HETATM   36  C   UNL     1      -7.650   5.738  70.361  1.00  0.00    -0.090 A  
HETATM   37  H1  UNL     1      -8.748   2.317  67.592  1.00  0.00     0.000 HD 
HETATM   38  H2  UNL     1      -7.230   2.428  68.239  1.00  0.00     0.000 HD 
HETATM   39  C   UNL     1      -9.845   4.740  70.598  1.00  0.00    -0.292 A  
HETATM   40  C   UNL     1      -9.549   3.833  69.592  1.00  0.00    -0.242 A  
HETATM   41  C   UNL     1      -7.361   4.813  69.355  1.00  0.00    -0.052 A  
HETATM   42  C   UNL     1      -8.339   3.919  68.902  1.00  0.00    -0.073 A  
ENDBRANCH  31  34
ENDBRANCH   5  31
ENDBRANCH   4   5
TORSDOF 12
ENDMDL
MODEL      104
REMARK 921   NORMALIZED FREE ENERGY PREDICTED BY IDOCK:   -5.63 KCAL/MOL
REMARK 922        TOTAL FREE ENERGY PREDICTED BY IDOCK:  -12.39 KCAL/MOL
REMARK 923 INTER-LIGAND FREE ENERGY PREDICTED BY IDOCK:  -10.15 KCAL/MOL
REMARK 924 INTRA-LIGAND FREE ENERGY PREDICTED BY IDOCK:   -2.24 KCAL/MOL
REMARK 927      BINDING AFFINITY PREDICTED BY RF-SCORE:    0.00 PKD
ROOT
HETATM    1  C   UNL     1     -12.448  12.397  64.586  1.00  0.00    -0.500 C  
HETATM    2  C   UNL     1     -11.094  11.730  64.403  1.00  0.00    -0.396 C  
HETATM    3  C   UNL     1     -10.288  12.272  63.221  1.00  0.00    -0.279 C  
HETATM    4  C   UNL     1     -10.166  11.390  65.573  1.00  0.00    -0.264 C  
ENDROOT
BRANCH   4   5
HETATM    5  N   UNL     1      -9.980  12.133  66.854  1.00  0.00    -0.202 N  
BRANCH   5   6
HETATM    6  C   UNL     1      -9.144  11.206  67.787  1.00  0.00    -0.149 C  
BRANCH   6   7
HETATM    7  C   UNL     1      -9.234   9.640  67.492  1.00  0.00    -0.133 C  
BRANCH   7   8
HETATM    8  C   UNL     1     -10.410   8.953  68.347  1.00  0.00    -0.200 C  
BRANCH   8   9
HETATM    9  N   UNL     1     -10.748   7.599  67.871  1.00  0.00    -0.429 N  
HETATM   10  C   UNL     1     -10.114   6.491  68.374  1.00  0.00    -0.160 C  
HETATM   11  H   UNL     1     -11.466   7.485  67.156  1.00  0.00     0.000 HD 
HETATM   12  O   UNL     1      -9.284   6.486  69.267  1.00  0.00    -0.139 OA 
BRANCH  10  13
HETATM   13  O   UNL     1     -10.565   5.376  67.737  1.00  0.00    -0.181 OA 
BRANCH  13  14
HETATM   14  C   UNL     1      -9.609   4.746  66.866  1.00  0.00    -0.172 C  
HETATM   15  C   UNL     1      -9.269   3.326  67.257  1.00  0.00    -0.221 C  
HETATM   16  O   UNL     1      -9.704   3.329  64.936  1.00  0.00    -0.160 OA 
HETATM   17  C   UNL     1      -8.906   2.690  65.937  1.00  0.00    -0.135 C  
HETATM   18  C   UNL     1     -10.205   4.562  65.475  1.00  0.00    -0.231 C  
ENDBRANCH  13  14
ENDBRANCH  10  13
ENDBRANCH   8   9
BRANCH   8  19
HETATM   19  C   UNL     1     -10.282   8.979  69.888  1.00  0.00    -0.214 C  
BRANCH  19  20
HETATM   20  C   UNL     1     -11.535   9.199  70.692  1.00  0.00    -0.310 A  
HETATM   21  C   UNL     1     -13.129  10.690  71.752  1.00  0.00    -0.571 A  
HETATM   22  C   UNL     1     -13.225   8.316  72.187  1.00  0.00    -0.297 A  
HETATM   23  C   UNL     1     -12.143   8.114  71.332  1.00  0.00    -0.326 A  
HETATM   24  C   UNL     1     -12.040  10.490  70.902  1.00  0.00    -0.487 A  
HETATM   25  C   UNL     1     -13.715   9.604  72.399  1.00  0.00    -0.342 A  
ENDBRANCH  19  20
ENDBRANCH   8  19
ENDBRANCH   7   8
BRANCH   7  26
HETATM   26  O   UNL     1      -7.916   8.979  67.538  1.00  0.00    -0.100 OA 
HETATM   27  O   UNL     1      -6.995   7.241  64.914  1.00  0.00    -0.049 OA 
HETATM   28  O   UNL     1      -6.744   9.432  65.596  1.00  0.00    -0.072 OA 
HETATM   29  O   UNL     1      -8.866   8.220  65.422  1.00  0.00    -0.157 OA 
HETATM   30  P   UNL     1      -7.430   8.062  66.153  1.00  0.00    -0.077 P  
ENDBRANCH   7  26
ENDBRANCH   6   7
ENDBRANCH   5   6
BRANCH   5  31
HETATM   31  S   UNL     1      -9.490  13.758  67.048  1.00  0.00    -0.263 S  
HETATM   32  O   UNL     1      -9.930  14.530  65.905  1.00  0.00    -0.299 OA 
HETATM   33  O   UNL     1      -8.079  13.759  67.379  1.00  0.00    -0.171 OA 
BRANCH  31  34
HETATM   34  C   UNL     1     -10.321  14.454  68.429  1.00  0.00    -0.244 A  
HETATM   35  N   UNL     1     -12.554  16.088  71.564  1.00  0.00    -0.556 NA 
HETATM   36  C   UNL     1     -10.042  15.753  68.854  1.00  0.00    -0.222 A  
HETATM   37  H1  UNL     1     -13.278  15.536  72.025  1.00  0.00     0.000 HD 
HETATM   38  H2  UNL     1     -12.981  16.946  71.215  1.00  0.00     0.000 HD 
HETATM   39  C   UNL     1     -11.419  13.762  68.942  1.00  0.00    -0.344 A  
HETATM   40  C   UNL     1     -12.148  14.303  69.990  1.00  0.00    -0.400 A  
HETATM   41  C   UNL     1     -10.789  16.291  69.904  1.00  0.00    -0.352 A  
HETATM   42  C   UNL     1     -11.782  15.533  70.538  1.00  0.00    -0.349 A  
ENDBRANCH  31  34
ENDBRANCH   5  31
ENDBRANCH   4   5
TORSDOF 12
ENDMDL
MODEL      105
REMARK 921   NORMALIZED FREE ENERGY PREDICTED BY IDOCK:   -5.63 KCAL/MOL
REMARK 922        TOTAL FREE ENERGY PREDICTED BY IDOCK:  -12.39 KCAL/MOL
REMARK 923 INTER-LIGAND FREE ENERGY PREDICTED BY IDOCK:  -10.23 KCAL/MOL
REMARK 924 INTRA-LIGAND FREE ENERGY PREDICTED BY IDOCK:   -2.16 KCAL/MOL
REMARK 927      BINDING AFFINITY PREDICTED BY RF-SCORE:    0.00 PKD
ROOT
HETATM    1  C   UNL     1      -7.215  12.118  67.129  1.00  0.00    -0.117 C  
HETATM    2  C   UNL     1      -7.642  13.329  67.943  1.00  0.00    -0.152 C  
HETATM    3  C   UNL     1      -6.827  14.592  67.654  1.00  0.00    -0.204 C  
HETATM    4  C   UNL     1      -9.110  13.686  68.201  1.00  0.00    -0.195 C  
ENDROOT
BRANCH   4   5
HETATM    5  N   UNL     1     -10.284  13.477  67.304  1.00  0.00    -0.240 N  
BRANCH   5   6
HETATM    6  C   UNL     1     -11.439  12.944  68.204  1.00  0.00    -0.315 C  
BRANCH   6   7
HETATM    7  C   UNL     1     -11.355  11.406  68.624  1.00  0.00    -0.265 C  
BRANCH   7   8
HETATM    8  C   UNL     1     -10.703  10.518  67.453  1.00  0.00    -0.281 C  
BRANCH   8   9
HETATM    9  N   UNL     1     -10.804   9.070  67.709  1.00  0.00    -0.482 N  
HETATM   10  C   UNL     1      -9.775   8.380  68.299  1.00  0.00    -0.155 C  
HETATM   11  H   UNL     1     -11.654   8.572  67.444  1.00  0.00     0.000 HD 
HETATM   12  O   UNL     1      -8.735   8.863  68.714  1.00  0.00    -0.134 OA 
BRANCH  10  13
HETATM   13  O   UNL     1     -10.093   7.059  68.376  1.00  0.00    -0.153 OA 
BRANCH  13  14
HETATM   14  C   UNL     1     -10.314   6.413  67.109  1.00  0.00    -0.232 C  
HETATM   15  C   UNL     1      -9.087   6.359  66.227  1.00  0.00    -0.167 C  
HETATM   16  O   UNL     1     -10.043   4.200  66.230  1.00  0.00    -0.206 OA 
HETATM   17  C   UNL     1      -9.316   5.116  65.404  1.00  0.00    -0.078 C  
HETATM   18  C   UNL     1     -10.623   4.935  67.318  1.00  0.00     0.071 C  
ENDBRANCH  13  14
ENDBRANCH  10  13
ENDBRANCH   8   9
BRANCH   8  19
HETATM   19  C   UNL     1     -11.106  10.849  65.996  1.00  0.00     0.019 C  
BRANCH  19  20
HETATM   20  C   UNL     1     -10.059  10.694  64.927  1.00  0.00    -0.402 A  
HETATM   21  C   UNL     1      -9.274  11.097  62.667  1.00  0.00    -0.357 A  
HETATM   22  C   UNL     1      -8.095   9.546  64.093  1.00  0.00    -0.147 A  
HETATM   23  C   UNL     1      -9.000   9.801  65.122  1.00  0.00    -0.237 A  
HETATM   24  C   UNL     1     -10.186  11.347  63.693  1.00  0.00    -0.448 A  
HETATM   25  C   UNL     1      -8.234  10.190  62.866  1.00  0.00    -0.161 A  
ENDBRANCH  19  20
ENDBRANCH   8  19
ENDBRANCH   7   8
BRANCH   7  26
HETATM   26  O   UNL     1     -12.618  10.908  69.201  1.00  0.00    -0.361 OA 
HETATM   27  O   UNL     1     -12.481   9.486  72.153  1.00  0.00    -0.357 OA 
HETATM   28  O   UNL     1     -12.821  11.637  71.387  1.00  0.00    -0.409 OA 
HETATM   29  O   UNL     1     -10.928  10.193  70.810  1.00  0.00    -0.320 OA 
HETATM   30  P   UNL     1     -12.546  10.158  70.759  1.00  0.00    -0.262 P  
ENDBRANCH   7  26
ENDBRANCH   6   7
ENDBRANCH   5   6
BRANCH   5  31
HETATM   31  S   UNL     1     -10.902  14.561  66.136  1.00  0.00    -0.325 S  
HETATM   32  O   UNL     1     -12.341  14.415  66.063  1.00  0.00    -0.394 OA 
HETATM   33  O   UNL     1     -10.129  14.392  64.922  1.00  0.00    -0.379 OA 
BRANCH  31  34
HETATM   34  C   UNL     1     -10.627  16.210  66.671  1.00  0.00    -0.274 A  
HETATM   35  N   UNL     1     -10.239  20.130  68.075  1.00  0.00    -0.391 NA 
HETATM   36  C   UNL     1     -10.481  17.248  65.752  1.00  0.00    -0.237 A  
HETATM   37  H1  UNL     1     -10.230  20.321  69.077  1.00  0.00     0.000 HD 
HETATM   38  H2  UNL     1     -10.990  20.677  67.653  1.00  0.00     0.000 HD 
HETATM   39  C   UNL     1     -10.785  16.486  68.031  1.00  0.00    -0.343 A  
HETATM   40  C   UNL     1     -10.643  17.786  68.492  1.00  0.00    -0.260 A  
HETATM   41  C   UNL     1     -10.348  18.554  66.227  1.00  0.00    -0.459 A  
HETATM   42  C   UNL     1     -10.335  18.817  67.603  1.00  0.00    -0.420 A  
ENDBRANCH  31  34
ENDBRANCH   5  31
ENDBRANCH   4   5
TORSDOF 12
ENDMDL
MODEL      106
REMARK 921   NORMALIZED FREE ENERGY PREDICTED BY IDOCK:   -5.63 KCAL/MOL
REMARK 922        TOTAL FREE ENERGY PREDICTED BY IDOCK:  -12.38 KCAL/MOL
REMARK 923 INTER-LIGAND FREE ENERGY PREDICTED BY IDOCK:   -9.83 KCAL/MOL
REMARK 924 INTRA-LIGAND FREE ENERGY PREDICTED BY IDOCK:   -2.55 KCAL/MOL
REMARK 927      BINDING AFFINITY PREDICTED BY RF-SCORE:    0.00 PKD
ROOT
HETATM    1  C   UNL     1      -6.692  12.312  67.377  1.00  0.00    -0.150 C  
HETATM    2  C   UNL     1      -7.817  12.701  68.323  1.00  0.00    -0.144 C  
HETATM    3  C   UNL     1      -7.873  14.196  68.643  1.00  0.00    -0.137 C  
HETATM    4  C   UNL     1      -9.232  12.122  68.219  1.00  0.00    -0.192 C  
ENDROOT
BRANCH   4   5
HETATM    5  N   UNL     1      -9.978  11.714  66.993  1.00  0.00    -0.202 N  
BRANCH   5   6
HETATM    6  C   UNL     1     -10.786  10.437  67.370  1.00  0.00    -0.286 C  
BRANCH   6   7
HETATM    7  C   UNL     1      -9.943   9.092  67.545  1.00  0.00    -0.205 C  
BRANCH   7   8
HETATM    8  C   UNL     1     -10.189   8.435  68.992  1.00  0.00    -0.207 C  
BRANCH   8   9
HETATM    9  N   UNL     1      -9.432   7.185  69.189  1.00  0.00    -0.148 N  
HETATM   10  C   UNL     1     -10.069   6.011  69.502  1.00  0.00    -0.193 C  
HETATM   11  H   UNL     1      -8.417   7.194  69.091  1.00  0.00     0.000 HD 
HETATM   12  O   UNL     1     -11.275   5.854  69.591  1.00  0.00    -0.395 OA 
BRANCH  10  13
HETATM   13  O   UNL     1      -9.149   5.025  69.682  1.00  0.00    -0.103 OA 
BRANCH  13  14
HETATM   14  C   UNL     1      -9.433   4.120  70.765  1.00  0.00    -0.172 C  
HETATM   15  C   UNL     1      -9.347   2.661  70.382  1.00  0.00    -0.212 C  
HETATM   16  O   UNL     1      -8.149   2.928  72.399  1.00  0.00    -0.057 OA 
HETATM   17  C   UNL     1      -8.958   1.993  71.678  1.00  0.00    -0.077 C  
HETATM   18  C   UNL     1      -8.359   4.234  71.841  1.00  0.00    -0.101 C  
ENDBRANCH  13  14
ENDBRANCH  10  13
ENDBRANCH   8   9
BRANCH   8  19
HETATM   19  C   UNL     1     -10.061   9.358  70.227  1.00  0.00    -0.288 C  
BRANCH  19  20
HETATM   20  C   UNL     1     -11.310   9.654  71.013  1.00  0.00    -0.444 A  
HETATM   21  C   UNL     1     -13.153   8.914  72.406  1.00  0.00    -0.476 A  
HETATM   22  C   UNL     1     -13.150  11.153  71.500  1.00  0.00    -0.489 A  
HETATM   23  C   UNL     1     -11.924  10.905  70.885  1.00  0.00    -0.416 A  
HETATM   24  C   UNL     1     -11.930   8.661  71.785  1.00  0.00    -0.402 A  
HETATM   25  C   UNL     1     -13.766  10.158  72.257  1.00  0.00    -0.132 A  
ENDBRANCH  19  20
ENDBRANCH   8  19
ENDBRANCH   7   8
BRANCH   7  26
HETATM   26  O   UNL     1      -8.537   9.247  67.124  1.00  0.00    -0.126 OA 
HETATM   27  O   UNL     1      -7.375   7.133  64.904  1.00  0.00    -0.074 OA 
HETATM   28  O   UNL     1      -8.401   9.198  64.815  1.00  0.00    -0.150 OA 
HETATM   29  O   UNL     1      -9.262   7.219  65.975  1.00  0.00    -0.133 OA 
HETATM   30  P   UNL     1      -7.925   8.131  65.952  1.00  0.00    -0.115 P  
ENDBRANCH   7  26
ENDBRANCH   6   7
ENDBRANCH   5   6
BRANCH   5  31
HETATM   31  S   UNL     1     -10.906  12.713  65.963  1.00  0.00    -0.285 S  
HETATM   32  O   UNL     1     -12.299  12.329  66.052  1.00  0.00    -0.609 OA 
HETATM   33  O   UNL     1     -10.273  12.715  64.659  1.00  0.00    -0.313 OA 
BRANCH  31  34
HETATM   34  C   UNL     1     -10.840  14.367  66.545  1.00  0.00    -0.310 A  
HETATM   35  N   UNL     1     -10.387  18.286  67.935  1.00  0.00    -0.385 NA 
HETATM   36  C   UNL     1     -11.386  14.716  67.780  1.00  0.00    -0.338 A  
HETATM   37  H1  UNL     1      -9.903  18.982  67.368  1.00  0.00     0.000 HD 
HETATM   38  H2  UNL     1      -9.921  18.232  68.841  1.00  0.00     0.000 HD 
HETATM   39  C   UNL     1     -10.034  15.270  65.848  1.00  0.00    -0.368 A  
HETATM   40  C   UNL     1      -9.898  16.571  66.307  1.00  0.00    -0.336 A  
HETATM   41  C   UNL     1     -11.235  16.027  68.237  1.00  0.00    -0.350 A  
HETATM   42  C   UNL     1     -10.570  16.983  67.459  1.00  0.00    -0.310 A  
ENDBRANCH  31  34
ENDBRANCH   5  31
ENDBRANCH   4   5
TORSDOF 12
ENDMDL
MODEL      107
REMARK 921   NORMALIZED FREE ENERGY PREDICTED BY IDOCK:   -5.62 KCAL/MOL
REMARK 922        TOTAL FREE ENERGY PREDICTED BY IDOCK:  -12.38 KCAL/MOL
REMARK 923 INTER-LIGAND FREE ENERGY PREDICTED BY IDOCK:  -10.30 KCAL/MOL
REMARK 924 INTRA-LIGAND FREE ENERGY PREDICTED BY IDOCK:   -2.07 KCAL/MOL
REMARK 927      BINDING AFFINITY PREDICTED BY RF-SCORE:    0.00 PKD
ROOT
HETATM    1  C   UNL     1      -9.086   7.970  65.477  1.00  0.00     0.010 C  
HETATM    2  C   UNL     1      -8.445   9.287  65.073  1.00  0.00    -0.178 C  
HETATM    3  C   UNL     1      -9.028   9.899  63.797  1.00  0.00    -0.279 C  
HETATM    4  C   UNL     1      -8.090  10.387  66.080  1.00  0.00    -0.143 C  
ENDROOT
BRANCH   4   5
HETATM    5  N   UNL     1      -8.804  10.757  67.337  1.00  0.00    -0.129 N  
BRANCH   5   6
HETATM    6  C   UNL     1     -10.310  10.903  66.964  1.00  0.00    -0.231 C  
BRANCH   6   7
HETATM    7  C   UNL     1     -10.807  12.374  66.592  1.00  0.00    -0.246 C  
BRANCH   7   8
HETATM    8  C   UNL     1     -10.501  13.410  67.784  1.00  0.00    -0.243 C  
BRANCH   8   9
HETATM    9  N   UNL     1     -10.968  14.776  67.487  1.00  0.00    -0.294 N  
HETATM   10  C   UNL     1     -10.163  15.677  66.838  1.00  0.00    -0.281 C  
HETATM   11  H   UNL     1     -11.907  15.057  67.771  1.00  0.00     0.000 HD 
HETATM   12  O   UNL     1      -9.048  15.451  66.397  1.00  0.00    -0.270 OA 
BRANCH  10  13
HETATM   13  O   UNL     1     -10.803  16.873  66.733  1.00  0.00    -0.166 OA 
BRANCH  13  14
HETATM   14  C   UNL     1      -9.996  18.022  67.049  1.00  0.00    -0.329 C  
HETATM   15  C   UNL     1     -10.454  19.295  66.373  1.00  0.00    -0.563 C  
HETATM   16  O   UNL     1     -10.082  19.804  68.649  1.00  0.00    -0.438 OA 
HETATM   17  C   UNL     1     -10.007  20.368  67.335  1.00  0.00    -0.416 C  
HETATM   18  C   UNL     1     -10.137  18.375  68.525  1.00  0.00    -0.384 C  
ENDBRANCH  13  14
ENDBRANCH  10  13
ENDBRANCH   8   9
BRANCH   8  19
HETATM   19  C   UNL     1     -10.902  12.989  69.217  1.00  0.00    -0.048 C  
BRANCH  19  20
HETATM   20  C   UNL     1     -11.610  14.004  70.074  1.00  0.00    -0.302 A  
HETATM   21  C   UNL     1     -11.557  15.960  71.508  1.00  0.00    -0.537 A  
HETATM   22  C   UNL     1     -13.581  14.654  71.324  1.00  0.00    -0.449 A  
HETATM   23  C   UNL     1     -12.948  13.797  70.426  1.00  0.00    -0.048 A  
HETATM   24  C   UNL     1     -10.920  15.098  70.616  1.00  0.00    -0.260 A  
HETATM   25  C   UNL     1     -12.885  15.733  71.867  1.00  0.00    -0.514 A  
ENDBRANCH  19  20
ENDBRANCH   8  19
ENDBRANCH   7   8
BRANCH   7  26
HETATM   26  O   UNL     1     -12.177  12.387  66.045  1.00  0.00    -0.636 OA 
HETATM   27  O   UNL     1     -12.619  13.739  63.091  1.00  0.00    -0.793 OA 
HETATM   28  O   UNL     1     -12.157  11.614  63.865  1.00  0.00    -0.332 OA 
HETATM   29  O   UNL     1     -10.887  13.641  64.396  1.00  0.00    -0.396 OA 
HETATM   30  P   UNL     1     -12.410  13.100  64.486  1.00  0.00    -0.344 P  
ENDBRANCH   7  26
ENDBRANCH   6   7
ENDBRANCH   5   6
BRANCH   5  31
HETATM   31  S   UNL     1      -8.648  10.024  68.872  1.00  0.00    -0.148 S  
HETATM   32  O   UNL     1      -9.961   9.867  69.463  1.00  0.00    -0.195 OA 
HETATM   33  O   UNL     1      -7.641  10.757  69.613  1.00  0.00    -0.131 OA 
BRANCH  31  34
HETATM   34  C   UNL     1      -8.026   8.394  68.677  1.00  0.00    -0.121 A  
HETATM   35  N   UNL     1      -6.637   4.454  68.488  1.00  0.00    -0.044 NA 
HETATM   36  C   UNL     1      -6.666   8.164  68.472  1.00  0.00    -0.063 A  
HETATM   37  H1  UNL     1      -7.288   3.672  68.570  1.00  0.00     0.000 HD 
HETATM   38  H2  UNL     1      -5.923   4.351  69.210  1.00  0.00     0.000 HD 
HETATM   39  C   UNL     1      -8.889   7.332  68.957  1.00  0.00    -0.132 A  
HETATM   40  C   UNL     1      -8.425   6.028  68.881  1.00  0.00    -0.116 A  
HETATM   41  C   UNL     1      -6.209   6.846  68.406  1.00  0.00    -0.034 A  
HETATM   42  C   UNL     1      -7.103   5.773  68.517  1.00  0.00    -0.077 A  
ENDBRANCH  31  34
ENDBRANCH   5  31
ENDBRANCH   4   5
TORSDOF 12
ENDMDL
MODEL      108
REMARK 921   NORMALIZED FREE ENERGY PREDICTED BY IDOCK:   -5.61 KCAL/MOL
REMARK 922        TOTAL FREE ENERGY PREDICTED BY IDOCK:  -12.35 KCAL/MOL
REMARK 923 INTER-LIGAND FREE ENERGY PREDICTED BY IDOCK:   -9.71 KCAL/MOL
REMARK 924 INTRA-LIGAND FREE ENERGY PREDICTED BY IDOCK:   -2.64 KCAL/MOL
REMARK 927      BINDING AFFINITY PREDICTED BY RF-SCORE:    0.00 PKD
ROOT
HETATM    1  C   UNL     1     -11.283  16.353  67.918  1.00  0.00    -0.184 C  
HETATM    2  C   UNL     1     -11.070  15.721  69.284  1.00  0.00    -0.297 C  
HETATM    3  C   UNL     1     -12.354  15.544  70.096  1.00  0.00    -0.384 C  
HETATM    4  C   UNL     1     -10.121  14.541  69.518  1.00  0.00     0.091 C  
ENDROOT
BRANCH   4   5
HETATM    5  N   UNL     1      -9.800  13.413  68.596  1.00  0.00    -0.167 N  
BRANCH   5   6
HETATM    6  C   UNL     1     -11.119  12.603  68.411  1.00  0.00    -0.265 C  
BRANCH   6   7
HETATM    7  C   UNL     1     -11.194  11.195  69.159  1.00  0.00    -0.264 C  
BRANCH   7   8
HETATM    8  C   UNL     1     -10.217  10.118  68.471  1.00  0.00    -0.174 C  
BRANCH   8   9
HETATM    9  N   UNL     1      -9.723   9.105  69.422  1.00  0.00    -0.166 N  
HETATM   10  C   UNL     1      -8.521   9.261  70.063  1.00  0.00    -0.176 C  
HETATM   11  H   UNL     1     -10.285   8.274  69.605  1.00  0.00     0.000 HD 
HETATM   12  O   UNL     1      -7.785  10.229  69.977  1.00  0.00    -0.164 OA 
BRANCH  10  13
HETATM   13  O   UNL     1      -8.271   8.172  70.840  1.00  0.00    -0.100 OA 
BRANCH  13  14
HETATM   14  C   UNL     1      -9.043   7.003  70.513  1.00  0.00    -0.156 C  
HETATM   15  C   UNL     1      -8.302   5.999  69.660  1.00  0.00    -0.119 C  
HETATM   16  O   UNL     1      -9.316   4.804  71.426  1.00  0.00    -0.137 OA 
HETATM   17  C   UNL     1      -8.939   4.687  70.051  1.00  0.00    -0.093 C  
HETATM   18  C   UNL     1      -9.338   6.197  71.774  1.00  0.00    -0.151 C  
ENDBRANCH  13  14
ENDBRANCH  10  13
ENDBRANCH   8   9
BRANCH   8  19
HETATM   19  C   UNL     1     -10.698   9.454  67.159  1.00  0.00    -0.234 C  
BRANCH  19  20
HETATM   20  C   UNL     1     -10.139   8.100  66.814  1.00  0.00    -0.365 A  
HETATM   21  C   UNL     1      -8.486   6.720  65.696  1.00  0.00    -0.142 A  
HETATM   22  C   UNL     1     -10.453   5.702  66.660  1.00  0.00    -0.340 A  
HETATM   23  C   UNL     1     -10.891   6.953  67.091  1.00  0.00    -0.447 A  
HETATM   24  C   UNL     1      -8.928   7.974  66.119  1.00  0.00    -0.215 A  
HETATM   25  C   UNL     1      -9.253   5.586  65.960  1.00  0.00    -0.168 A  
ENDBRANCH  19  20
ENDBRANCH   8  19
ENDBRANCH   7   8
BRANCH   7  26
HETATM   26  O   UNL     1     -12.581  10.760  69.408  1.00  0.00    -0.314 OA 
HETATM   27  O   UNL     1     -13.308   9.641  72.403  1.00  0.00    -0.433 OA 
HETATM   28  O   UNL     1     -13.358  11.705  71.371  1.00  0.00    -0.202 OA 
HETATM   29  O   UNL     1     -11.423  10.206  71.484  1.00  0.00    -0.283 OA 
HETATM   30  P   UNL     1     -12.964  10.170  70.989  1.00  0.00    -0.298 P  
ENDBRANCH   7  26
ENDBRANCH   6   7
ENDBRANCH   5   6
BRANCH   5  31
HETATM   31  S   UNL     1      -8.948  13.493  67.117  1.00  0.00    -0.227 S  
HETATM   32  O   UNL     1      -7.961  12.435  67.076  1.00  0.00    -0.167 OA 
HETATM   33  O   UNL     1      -8.502  14.860  66.936  1.00  0.00    -0.228 OA 
BRANCH  31  34
HETATM   34  C   UNL     1     -10.050  13.155  65.793  1.00  0.00    -0.285 A  
HETATM   35  N   UNL     1     -12.898  12.361  62.835  1.00  0.00    -0.480 NA 
HETATM   36  C   UNL     1      -9.980  11.953  65.090  1.00  0.00    -0.276 A  
HETATM   37  H1  UNL     1     -13.621  13.047  62.617  1.00  0.00     0.000 HD 
HETATM   38  H2  UNL     1     -13.356  11.484  63.085  1.00  0.00     0.000 HD 
HETATM   39  C   UNL     1     -11.134  14.017  65.614  1.00  0.00    -0.302 A  
HETATM   40  C   UNL     1     -12.068  13.755  64.623  1.00  0.00    -0.452 A  
HETATM   41  C   UNL     1     -10.931  11.695  64.101  1.00  0.00    -0.442 A  
HETATM   42  C   UNL     1     -11.924  12.637  63.800  1.00  0.00    -0.510 A  
ENDBRANCH  31  34
ENDBRANCH   5  31
ENDBRANCH   4   5
TORSDOF 12
ENDMDL
MODEL      109
REMARK 921   NORMALIZED FREE ENERGY PREDICTED BY IDOCK:   -5.60 KCAL/MOL
REMARK 922        TOTAL FREE ENERGY PREDICTED BY IDOCK:  -12.33 KCAL/MOL
REMARK 923 INTER-LIGAND FREE ENERGY PREDICTED BY IDOCK:   -9.11 KCAL/MOL
REMARK 924 INTRA-LIGAND FREE ENERGY PREDICTED BY IDOCK:   -3.23 KCAL/MOL
REMARK 927      BINDING AFFINITY PREDICTED BY RF-SCORE:    0.00 PKD
ROOT
HETATM    1  C   UNL     1      -8.670   5.170  70.776  1.00  0.00    -0.142 C  
HETATM    2  C   UNL     1      -8.114   5.034  69.368  1.00  0.00    -0.079 C  
HETATM    3  C   UNL     1      -8.656   3.828  68.597  1.00  0.00    -0.121 C  
HETATM    4  C   UNL     1      -7.923   6.229  68.427  1.00  0.00    -0.105 C  
ENDROOT
BRANCH   4   5
HETATM    5  N   UNL     1      -8.750   7.466  68.322  1.00  0.00    -0.123 N  
BRANCH   5   6
HETATM    6  C   UNL     1      -8.026   8.398  67.304  1.00  0.00    -0.105 C  
BRANCH   6   7
HETATM    7  C   UNL     1      -7.521   9.803  67.869  1.00  0.00    -0.086 C  
BRANCH   7   8
HETATM    8  C   UNL     1      -7.823  10.991  66.827  1.00  0.00    -0.149 C  
BRANCH   8   9
HETATM    9  N   UNL     1      -9.112  10.828  66.132  1.00  0.00    -0.169 N  
HETATM   10  C   UNL     1      -9.173  10.716  64.766  1.00  0.00    -0.220 C  
HETATM   11  H   UNL     1      -9.974  10.796  66.676  1.00  0.00     0.000 HD 
HETATM   12  O   UNL     1      -8.217  10.680  64.009  1.00  0.00    -0.105 OA 
BRANCH  10  13
HETATM   13  O   UNL     1     -10.471  10.629  64.369  1.00  0.00    -0.350 OA 
BRANCH  13  14
HETATM   14  C   UNL     1     -11.274  11.787  64.660  1.00  0.00    -0.286 C  
HETATM   15  C   UNL     1     -10.636  13.093  64.243  1.00  0.00    -0.432 C  
HETATM   16  O   UNL     1     -12.867  13.125  63.471  1.00  0.00    -0.638 OA 
HETATM   17  C   UNL     1     -11.827  13.977  63.962  1.00  0.00    -0.308 C  
HETATM   18  C   UNL     1     -12.547  11.770  63.821  1.00  0.00    -0.302 C  
ENDBRANCH  13  14
ENDBRANCH  10  13
ENDBRANCH   8   9
BRANCH   8  19
HETATM   19  C   UNL     1      -7.649  12.443  67.331  1.00  0.00    -0.160 C  
BRANCH  19  20
HETATM   20  C   UNL     1      -8.893  13.230  67.647  1.00  0.00    -0.200 A  
HETATM   21  C   UNL     1     -11.148  13.346  68.532  1.00  0.00    -0.299 A  
HETATM   22  C   UNL     1     -10.237  15.216  67.305  1.00  0.00    -0.243 A  
HETATM   23  C   UNL     1      -9.040  14.523  67.135  1.00  0.00    -0.237 A  
HETATM   24  C   UNL     1      -9.954  12.647  68.355  1.00  0.00    -0.210 A  
HETATM   25  C   UNL     1     -11.291  14.626  68.000  1.00  0.00    -0.329 A  
ENDBRANCH  19  20
ENDBRANCH   8  19
ENDBRANCH   7   8
BRANCH   7  26
HETATM   26  O   UNL     1      -6.150   9.736  68.410  1.00  0.00    -0.046 OA 
HETATM   27  O   UNL     1      -5.744  10.364  71.602  1.00  0.00    -0.301 OA 
HETATM   28  O   UNL     1      -6.133   8.468  70.345  1.00  0.00    -0.031 OA 
HETATM   29  O   UNL     1      -7.478  10.515  70.303  1.00  0.00    -0.176 OA 
HETATM   30  P   UNL     1      -5.936  10.067  70.094  1.00  0.00    -0.086 P  
ENDBRANCH   7  26
ENDBRANCH   6   7
ENDBRANCH   5   6
BRANCH   5  31
HETATM   31  S   UNL     1     -10.443   7.566  68.109  1.00  0.00    -0.154 S  
HETATM   32  O   UNL     1     -10.959   6.257  67.766  1.00  0.00    -0.308 OA 
HETATM   33  O   UNL     1     -10.712   8.671  67.210  1.00  0.00    -0.271 OA 
BRANCH  31  34
HETATM   34  C   UNL     1     -11.197   7.979  69.639  1.00  0.00     0.089 A  
HETATM   35  N   UNL     1     -13.247   8.847  73.179  1.00  0.00    -0.822 NA 
HETATM   36  C   UNL     1     -11.311   9.307  70.047  1.00  0.00    -0.137 A  
HETATM   37  H1  UNL     1     -13.639   8.096  73.746  1.00  0.00     0.000 HD 
HETATM   38  H2  UNL     1     -14.000   9.493  72.941  1.00  0.00     0.000 HD 
HETATM   39  C   UNL     1     -11.876   6.968  70.322  1.00  0.00    -0.243 A  
HETATM   40  C   UNL     1     -12.543   7.260  71.502  1.00  0.00    -0.415 A  
HETATM   41  C   UNL     1     -11.993   9.591  71.232  1.00  0.00    -0.445 A  
HETATM   42  C   UNL     1     -12.531   8.558  72.012  1.00  0.00    -0.363 A  
ENDBRANCH  31  34
ENDBRANCH   5  31
ENDBRANCH   4   5
TORSDOF 12
ENDMDL
MODEL      110
REMARK 921   NORMALIZED FREE ENERGY PREDICTED BY IDOCK:   -5.60 KCAL/MOL
REMARK 922        TOTAL FREE ENERGY PREDICTED BY IDOCK:  -12.33 KCAL/MOL
REMARK 923 INTER-LIGAND FREE ENERGY PREDICTED BY IDOCK:  -11.49 KCAL/MOL
REMARK 924 INTRA-LIGAND FREE ENERGY PREDICTED BY IDOCK:   -0.85 KCAL/MOL
REMARK 927      BINDING AFFINITY PREDICTED BY RF-SCORE:    0.00 PKD
ROOT
HETATM    1  C   UNL     1     -10.367  14.657  64.979  1.00  0.00    -0.432 C  
HETATM    2  C   UNL     1     -11.722  14.466  65.641  1.00  0.00    -0.356 C  
HETATM    3  C   UNL     1     -12.401  13.138  65.299  1.00  0.00    -0.532 C  
HETATM    4  C   UNL     1     -12.001  14.851  67.097  1.00  0.00    -0.114 C  
ENDROOT
BRANCH   4   5
HETATM    5  N   UNL     1     -11.071  14.800  68.263  1.00  0.00    -0.263 N  
BRANCH   5   6
HETATM    6  C   UNL     1     -11.103  13.335  68.791  1.00  0.00    -0.266 C  
BRANCH   6   7
HETATM    7  C   UNL     1     -12.036  13.059  70.057  1.00  0.00    -0.312 C  
BRANCH   7   8
HETATM    8  C   UNL     1     -12.407  11.499  70.178  1.00  0.00    -0.245 C  
BRANCH   8   9
HETATM    9  N   UNL     1     -12.058  10.733  68.968  1.00  0.00    -0.510 N  
HETATM   10  C   UNL     1     -10.788  10.254  68.772  1.00  0.00    -0.230 C  
HETATM   11  H   UNL     1     -12.774  10.555  68.264  1.00  0.00     0.000 HD 
HETATM   12  O   UNL     1      -9.860  10.346  69.559  1.00  0.00    -0.222 OA 
BRANCH  10  13
HETATM   13  O   UNL     1     -10.712   9.632  67.565  1.00  0.00    -0.274 OA 
BRANCH  13  14
HETATM   14  C   UNL     1      -9.512   9.899  66.818  1.00  0.00    -0.169 C  
HETATM   15  C   UNL     1      -9.320   8.994  65.623  1.00  0.00    -0.289 C  
HETATM   16  O   UNL     1      -8.931  11.206  64.895  1.00  0.00    -0.151 OA 
HETATM   17  C   UNL     1      -8.523   9.853  64.672  1.00  0.00    -0.172 C  
HETATM   18  C   UNL     1      -9.593  11.276  66.167  1.00  0.00    -0.214 C  
ENDBRANCH  13  14
ENDBRANCH  10  13
ENDBRANCH   8   9
BRANCH   8  19
HETATM   19  C   UNL     1     -11.950  10.753  71.454  1.00  0.00    -0.188 C  
BRANCH  19  20
HETATM   20  C   UNL     1     -12.335   9.304  71.594  1.00  0.00    -0.450 A  
HETATM   21  C   UNL     1     -14.030   7.576  71.747  1.00  0.00    -0.473 A  
HETATM   22  C   UNL     1     -11.720   7.043  72.207  1.00  0.00    -0.294 A  
HETATM   23  C   UNL     1     -11.361   8.363  71.943  1.00  0.00    -0.382 A  
HETATM   24  C   UNL     1     -13.673   8.900  71.490  1.00  0.00    -0.394 A  
HETATM   25  C   UNL     1     -13.054   6.650  72.113  1.00  0.00     0.007 A  
ENDBRANCH  19  20
ENDBRANCH   8  19
ENDBRANCH   7   8
BRANCH   7  26
HETATM   26  O   UNL     1     -13.159  14.011  70.151  1.00  0.00    -0.045 OA 
HETATM   27  O   UNL     1     -13.423  15.783  72.897  1.00  0.00    -0.517 OA 
HETATM   28  O   UNL     1     -12.381  16.072  70.857  1.00  0.00    -0.380 OA 
HETATM   29  O   UNL     1     -12.104  14.147  72.347  1.00  0.00    -0.014 OA 
HETATM   30  P   UNL     1     -13.297  14.947  71.600  1.00  0.00    -0.460 P  
ENDBRANCH   7  26
ENDBRANCH   6   7
ENDBRANCH   5   6
BRANCH   5  31
HETATM   31  S   UNL     1      -9.482  15.422  68.350  1.00  0.00    -0.206 S  
HETATM   32  O   UNL     1      -8.665  14.786  67.337  1.00  0.00    -0.175 OA 
HETATM   33  O   UNL     1      -9.051  15.345  69.732  1.00  0.00    -0.243 OA 
BRANCH  31  34
HETATM   34  C   UNL     1      -9.502  17.126  67.932  1.00  0.00    -0.257 A  
HETATM   35  N   UNL     1      -9.843  21.182  66.973  1.00  0.00    -0.404 NA 
HETATM   36  C   UNL     1      -9.095  17.561  66.671  1.00  0.00    -0.287 A  
HETATM   37  H1  UNL     1     -10.199  21.847  67.660  1.00  0.00     0.000 HD 
HETATM   38  H2  UNL     1     -10.424  21.247  66.137  1.00  0.00     0.000 HD 
HETATM   39  C   UNL     1     -10.144  18.002  68.810  1.00  0.00    -0.388 A  
HETATM   40  C   UNL     1     -10.243  19.348  68.492  1.00  0.00    -0.492 A  
HETATM   41  C   UNL     1      -9.207  18.917  66.359  1.00  0.00    -0.324 A  
HETATM   42  C   UNL     1      -9.696  19.831  67.302  1.00  0.00    -0.370 A  
ENDBRANCH  31  34
ENDBRANCH   5  31
ENDBRANCH   4   5
TORSDOF 12
ENDMDL
MODEL      111
REMARK 921   NORMALIZED FREE ENERGY PREDICTED BY IDOCK:   -5.60 KCAL/MOL
REMARK 922        TOTAL FREE ENERGY PREDICTED BY IDOCK:  -12.33 KCAL/MOL
REMARK 923 INTER-LIGAND FREE ENERGY PREDICTED BY IDOCK:  -11.61 KCAL/MOL
REMARK 924 INTRA-LIGAND FREE ENERGY PREDICTED BY IDOCK:   -0.72 KCAL/MOL
REMARK 927      BINDING AFFINITY PREDICTED BY RF-SCORE:    0.00 PKD
ROOT
HETATM    1  C   UNL     1      -6.845  14.425  67.953  1.00  0.00    -0.178 C  
HETATM    2  C   UNL     1      -7.557  15.104  69.112  1.00  0.00    -0.188 C  
HETATM    3  C   UNL     1      -7.183  16.576  69.297  1.00  0.00    -0.213 C  
HETATM    4  C   UNL     1      -9.041  14.885  69.423  1.00  0.00    -0.040 C  
ENDROOT
BRANCH   4   5
HETATM    5  N   UNL     1     -10.160  14.635  68.467  1.00  0.00    -0.232 N  
BRANCH   5   6
HETATM    6  C   UNL     1     -11.479  14.762  69.287  1.00  0.00    -0.296 C  
BRANCH   6   7
HETATM    7  C   UNL     1     -11.873  13.507  70.192  1.00  0.00    -0.278 C  
BRANCH   7   8
HETATM    8  C   UNL     1     -11.750  12.133  69.367  1.00  0.00    -0.329 C  
BRANCH   8   9
HETATM    9  N   UNL     1     -11.733  12.341  67.908  1.00  0.00    -0.351 N  
HETATM   10  C   UNL     1     -11.534  11.295  67.043  1.00  0.00    -0.096 C  
HETATM   11  H   UNL     1     -11.871  13.280  67.535  1.00  0.00     0.000 HD 
HETATM   12  O   UNL     1     -11.416  10.122  67.355  1.00  0.00    -0.212 OA 
BRANCH  10  13
HETATM   13  O   UNL     1     -11.510  11.756  65.763  1.00  0.00    -0.300 OA 
BRANCH  13  14
HETATM   14  C   UNL     1     -10.257  11.579  65.078  1.00  0.00    -0.280 C  
HETATM   15  C   UNL     1      -9.715  10.169  65.149  1.00  0.00    -0.370 C  
HETATM   16  O   UNL     1      -9.569  10.864  62.897  1.00  0.00    -0.307 OA 
HETATM   17  C   UNL     1      -8.914  10.050  63.875  1.00  0.00    -0.242 C  
HETATM   18  C   UNL     1     -10.445  11.775  63.577  1.00  0.00    -0.449 C  
ENDBRANCH  13  14
ENDBRANCH  10  13
ENDBRANCH   8   9
BRANCH   8  19
HETATM   19  C   UNL     1     -10.644  11.139  69.794  1.00  0.00     0.020 C  
BRANCH  19  20
HETATM   20  C   UNL     1     -10.979  10.135  70.864  1.00  0.00    -0.241 A  
HETATM   21  C   UNL     1     -10.376   8.219  72.225  1.00  0.00    -0.386 A  
HETATM   22  C   UNL     1     -12.653   9.025  72.219  1.00  0.00    -0.445 A  
HETATM   23  C   UNL     1     -12.296  10.035  71.328  1.00  0.00    -0.496 A  
HETATM   24  C   UNL     1     -10.018   9.224  71.325  1.00  0.00    -0.341 A  
HETATM   25  C   UNL     1     -11.695   8.116  72.665  1.00  0.00    -0.419 A  
ENDBRANCH  19  20
ENDBRANCH   8  19
ENDBRANCH   7   8
BRANCH   7  26
HETATM   26  O   UNL     1     -13.129  13.718  70.936  1.00  0.00    -0.256 OA 
HETATM   27  O   UNL     1     -12.999  15.548  73.653  1.00  0.00    -0.507 OA 
HETATM   28  O   UNL     1     -13.388  15.966  71.416  1.00  0.00    -0.484 OA 
HETATM   29  O   UNL     1     -11.445  14.792  72.337  1.00  0.00    -0.171 OA 
HETATM   30  P   UNL     1     -13.060  14.684  72.369  1.00  0.00    -0.462 P  
ENDBRANCH   7  26
ENDBRANCH   6   7
ENDBRANCH   5   6
BRANCH   5  31
HETATM   31  S   UNL     1     -10.367  15.314  66.913  1.00  0.00    -0.284 S  
HETATM   32  O   UNL     1     -11.771  15.278  66.559  1.00  0.00    -0.124 OA 
HETATM   33  O   UNL     1      -9.415  14.680  66.023  1.00  0.00    -0.288 OA 
BRANCH  31  34
HETATM   34  C   UNL     1      -9.941  17.015  66.961  1.00  0.00    -0.288 A  
HETATM   35  N   UNL     1      -9.186  21.129  66.946  1.00  0.00    -0.409 NA 
HETATM   36  C   UNL     1      -8.842  17.500  66.252  1.00  0.00    -0.216 A  
HETATM   37  H1  UNL     1      -9.785  21.765  67.472  1.00  0.00     0.000 HD 
HETATM   38  H2  UNL     1      -9.178  21.431  65.972  1.00  0.00     0.000 HD 
HETATM   39  C   UNL     1     -10.856  17.898  67.539  1.00  0.00    -0.239 A  
HETATM   40  C   UNL     1     -10.594  19.259  67.542  1.00  0.00    -0.581 A  
HETATM   41  C   UNL     1      -8.593  18.874  66.254  1.00  0.00    -0.267 A  
HETATM   42  C   UNL     1      -9.415  19.749  66.976  1.00  0.00    -0.363 A  
ENDBRANCH  31  34
ENDBRANCH   5  31
ENDBRANCH   4   5
TORSDOF 12
ENDMDL
MODEL      112
REMARK 921   NORMALIZED FREE ENERGY PREDICTED BY IDOCK:   -5.58 KCAL/MOL
REMARK 922        TOTAL FREE ENERGY PREDICTED BY IDOCK:  -12.30 KCAL/MOL
REMARK 923 INTER-LIGAND FREE ENERGY PREDICTED BY IDOCK:  -10.21 KCAL/MOL
REMARK 924 INTRA-LIGAND FREE ENERGY PREDICTED BY IDOCK:   -2.09 KCAL/MOL
REMARK 927      BINDING AFFINITY PREDICTED BY RF-SCORE:    0.00 PKD
ROOT
HETATM    1  C   UNL     1     -11.740  13.314  70.312  1.00  0.00    -0.217 C  
HETATM    2  C   UNL     1     -12.141  14.696  69.824  1.00  0.00    -0.371 C  
HETATM    3  C   UNL     1     -11.647  15.839  70.713  1.00  0.00    -0.429 C  
HETATM    4  C   UNL     1     -12.093  15.107  68.348  1.00  0.00    -0.074 C  
ENDROOT
BRANCH   4   5
HETATM    5  N   UNL     1     -11.131  14.668  67.296  1.00  0.00    -0.317 N  
BRANCH   5   6
HETATM    6  C   UNL     1     -11.650  13.299  66.763  1.00  0.00    -0.365 C  
BRANCH   6   7
HETATM    7  C   UNL     1     -10.542  12.189  66.467  1.00  0.00    -0.237 C  
BRANCH   7   8
HETATM    8  C   UNL     1      -9.532  12.028  67.708  1.00  0.00    -0.190 C  
BRANCH   8   9
HETATM    9  N   UNL     1      -9.557  10.676  68.295  1.00  0.00    -0.157 N  
HETATM   10  C   UNL     1     -10.707  10.156  68.831  1.00  0.00    -0.223 C  
HETATM   11  H   UNL     1      -8.704  10.118  68.302  1.00  0.00     0.000 HD 
HETATM   12  O   UNL     1     -11.802  10.694  68.833  1.00  0.00    -0.274 OA 
BRANCH  10  13
HETATM   13  O   UNL     1     -10.455   8.924  69.350  1.00  0.00    -0.217 OA 
BRANCH  13  14
HETATM   14  C   UNL     1     -11.406   8.473  70.332  1.00  0.00    -0.182 C  
HETATM   15  C   UNL     1     -11.553   6.970  70.397  1.00  0.00    -0.341 C  
HETATM   16  O   UNL     1     -11.317   7.747  72.614  1.00  0.00    -0.348 OA 
HETATM   17  C   UNL     1     -11.953   6.730  71.832  1.00  0.00    -0.333 C  
HETATM   18  C   UNL     1     -10.912   8.807  71.735  1.00  0.00    -0.345 C  
ENDBRANCH  13  14
ENDBRANCH  10  13
ENDBRANCH   8   9
BRANCH   8  19
HETATM   19  C   UNL     1      -8.077  12.518  67.514  1.00  0.00    -0.176 C  
BRANCH  19  20
HETATM   20  C   UNL     1      -7.462  13.343  68.612  1.00  0.00    -0.104 A  
HETATM   21  C   UNL     1      -7.242  15.445  69.803  1.00  0.00    -0.135 A  
HETATM   22  C   UNL     1      -5.698  13.641  70.245  1.00  0.00    -0.146 A  
HETATM   23  C   UNL     1      -6.362  12.842  69.317  1.00  0.00    -0.108 A  
HETATM   24  C   UNL     1      -7.903  14.649  68.867  1.00  0.00    -0.148 A  
HETATM   25  C   UNL     1      -6.135  14.942  70.485  1.00  0.00    -0.113 A  
ENDBRANCH  19  20
ENDBRANCH   8  19
ENDBRANCH   7   8
BRANCH   7  26
HETATM   26  O   UNL     1      -9.927  12.345  65.135  1.00  0.00    -0.259 OA 
HETATM   27  O   UNL     1      -9.513   9.642  63.326  1.00  0.00    -0.122 OA 
HETATM   28  O   UNL     1     -11.184  11.218  63.554  1.00  0.00    -0.344 OA 
HETATM   29  O   UNL     1     -10.171   9.929  65.375  1.00  0.00    -0.273 OA 
HETATM   30  P   UNL     1      -9.709  10.919  64.181  1.00  0.00    -0.348 P  
ENDBRANCH   7  26
ENDBRANCH   6   7
ENDBRANCH   5   6
BRANCH   5  31
HETATM   31  S   UNL     1     -10.507  15.600  66.007  1.00  0.00    -0.347 S  
HETATM   32  O   UNL     1     -11.488  15.660  64.943  1.00  0.00    -0.326 OA 
HETATM   33  O   UNL     1      -9.183  15.099  65.698  1.00  0.00    -0.205 OA 
BRANCH  31  34
HETATM   34  C   UNL     1     -10.295  17.259  66.540  1.00  0.00    -0.308 A  
HETATM   35  N   UNL     1      -9.629  21.258  67.565  1.00  0.00    -0.383 NA 
HETATM   36  C   UNL     1      -9.621  17.551  67.725  1.00  0.00    -0.269 A  
HETATM   37  H1  UNL     1      -9.974  22.009  66.967  1.00  0.00     0.000 HD 
HETATM   38  H2  UNL     1      -8.622  21.377  67.677  1.00  0.00     0.000 HD 
HETATM   39  C   UNL     1     -10.618  18.277  65.640  1.00  0.00    -0.107 A  
HETATM   40  C   UNL     1     -10.406  19.601  65.991  1.00  0.00    -0.620 A  
HETATM   41  C   UNL     1      -9.405  18.889  68.064  1.00  0.00    -0.349 A  
HETATM   42  C   UNL     1      -9.879  19.920  67.243  1.00  0.00    -0.403 A  
ENDBRANCH  31  34
ENDBRANCH   5  31
ENDBRANCH   4   5
TORSDOF 12
ENDMDL
MODEL      113
REMARK 921   NORMALIZED FREE ENERGY PREDICTED BY IDOCK:   -5.58 KCAL/MOL
REMARK 922        TOTAL FREE ENERGY PREDICTED BY IDOCK:  -12.30 KCAL/MOL
REMARK 923 INTER-LIGAND FREE ENERGY PREDICTED BY IDOCK:  -10.41 KCAL/MOL
REMARK 924 INTRA-LIGAND FREE ENERGY PREDICTED BY IDOCK:   -1.89 KCAL/MOL
REMARK 927      BINDING AFFINITY PREDICTED BY RF-SCORE:    0.00 PKD
ROOT
HETATM    1  C   UNL     1     -12.443  13.476  64.967  1.00  0.00    -0.462 C  
HETATM    2  C   UNL     1     -11.090  14.156  64.841  1.00  0.00    -0.389 C  
HETATM    3  C   UNL     1     -11.164  15.604  64.349  1.00  0.00    -0.249 C  
HETATM    4  C   UNL     1      -9.977  14.001  65.883  1.00  0.00    -0.307 C  
ENDROOT
BRANCH   4   5
HETATM    5  N   UNL     1     -10.109  13.831  67.360  1.00  0.00    -0.242 N  
BRANCH   5   6
HETATM    6  C   UNL     1      -9.277  12.568  67.737  1.00  0.00    -0.198 C  
BRANCH   6   7
HETATM    7  C   UNL     1      -9.760  11.188  67.096  1.00  0.00    -0.177 C  
BRANCH   7   8
HETATM    8  C   UNL     1     -10.675  10.357  68.126  1.00  0.00    -0.236 C  
BRANCH   8   9
HETATM    9  N   UNL     1     -10.997   9.003  67.641  1.00  0.00    -0.479 N  
HETATM   10  C   UNL     1     -10.126   7.958  67.823  1.00  0.00    -0.192 C  
HETATM   11  H   UNL     1     -11.882   8.840  67.162  1.00  0.00     0.000 HD 
HETATM   12  O   UNL     1      -9.068   8.007  68.427  1.00  0.00    -0.137 OA 
BRANCH  10  13
HETATM   13  O   UNL     1     -10.629   6.835  67.242  1.00  0.00    -0.238 OA 
BRANCH  13  14
HETATM   14  C   UNL     1      -9.701   5.741  67.131  1.00  0.00    -0.136 C  
HETATM   15  C   UNL     1      -9.826   4.718  68.237  1.00  0.00    -0.181 C  
HETATM   16  O   UNL     1      -9.737   3.536  66.194  1.00  0.00    -0.140 OA 
HETATM   17  C   UNL     1      -9.362   3.444  67.573  1.00  0.00    -0.204 C  
HETATM   18  C   UNL     1     -10.010   4.912  65.890  1.00  0.00    -0.203 C  
ENDBRANCH  13  14
ENDBRANCH  10  13
ENDBRANCH   8   9
BRANCH   8  19
HETATM   19  C   UNL     1     -10.231  10.322  69.607  1.00  0.00    -0.268 C  
BRANCH  19  20
HETATM   20  C   UNL     1     -11.273   9.995  70.643  1.00  0.00    -0.425 A  
HETATM   21  C   UNL     1     -12.295   8.430  72.190  1.00  0.00    -0.426 A  
HETATM   22  C   UNL     1     -13.382  10.532  71.708  1.00  0.00    -0.446 A  
HETATM   23  C   UNL     1     -12.339  10.878  70.851  1.00  0.00    -0.501 A  
HETATM   24  C   UNL     1     -11.254   8.771  71.325  1.00  0.00    -0.352 A  
HETATM   25  C   UNL     1     -13.362   9.308  72.374  1.00  0.00    -0.521 A  
ENDBRANCH  19  20
ENDBRANCH   8  19
ENDBRANCH   7   8
BRANCH   7  26
HETATM   26  O   UNL     1      -8.658  10.448  66.452  1.00  0.00    -0.128 OA 
HETATM   27  O   UNL     1      -9.108   9.443  63.363  1.00  0.00    -0.198 OA 
HETATM   28  O   UNL     1      -8.239  11.336  64.357  1.00  0.00     0.378 OA 
HETATM   29  O   UNL     1     -10.449  10.374  64.795  1.00  0.00    -0.261 OA 
HETATM   30  P   UNL     1      -8.896   9.918  64.822  1.00  0.00    -0.240 P  
ENDBRANCH   7  26
ENDBRANCH   6   7
ENDBRANCH   5   6
BRANCH   5  31
HETATM   31  S   UNL     1      -9.929  15.033  68.561  1.00  0.00    -0.225 S  
HETATM   32  O   UNL     1      -8.779  14.718  69.384  1.00  0.00    -0.092 OA 
HETATM   33  O   UNL     1     -11.213  15.207  69.209  1.00  0.00    -0.247 OA 
BRANCH  31  34
HETATM   34  C   UNL     1      -9.549  16.566  67.797  1.00  0.00    -0.232 A  
HETATM   35  N   UNL     1      -8.830  20.144  65.755  1.00  0.00    -0.503 NA 
HETATM   36  C   UNL     1      -8.252  16.857  67.375  1.00  0.00    -0.199 A  
HETATM   37  H1  UNL     1      -9.589  20.804  65.587  1.00  0.00     0.000 HD 
HETATM   38  H2  UNL     1      -8.415  19.900  64.855  1.00  0.00     0.000 HD 
HETATM   39  C   UNL     1     -10.616  17.386  67.421  1.00  0.00    -0.308 A  
HETATM   40  C   UNL     1     -10.370  18.577  66.755  1.00  0.00    -0.435 A  
HETATM   41  C   UNL     1      -8.018  18.055  66.697  1.00  0.00    -0.278 A  
HETATM   42  C   UNL     1      -9.060  18.962  66.467  1.00  0.00    -0.327 A  
ENDBRANCH  31  34
ENDBRANCH   5  31
ENDBRANCH   4   5
TORSDOF 12
ENDMDL
MODEL      114
REMARK 921   NORMALIZED FREE ENERGY PREDICTED BY IDOCK:   -5.56 KCAL/MOL
REMARK 922        TOTAL FREE ENERGY PREDICTED BY IDOCK:  -12.27 KCAL/MOL
REMARK 923 INTER-LIGAND FREE ENERGY PREDICTED BY IDOCK:  -10.07 KCAL/MOL
REMARK 924 INTRA-LIGAND FREE ENERGY PREDICTED BY IDOCK:   -2.20 KCAL/MOL
REMARK 927      BINDING AFFINITY PREDICTED BY RF-SCORE:    0.00 PKD
ROOT
HETATM    1  C   UNL     1      -8.038  16.435  66.387  1.00  0.00    -0.357 C  
HETATM    2  C   UNL     1      -7.787  16.058  67.838  1.00  0.00    -0.148 C  
HETATM    3  C   UNL     1      -7.691  17.257  68.785  1.00  0.00    -0.261 C  
HETATM    4  C   UNL     1      -8.488  14.884  68.529  1.00  0.00    -0.163 C  
ENDROOT
BRANCH   4   5
HETATM    5  N   UNL     1      -9.871  14.370  68.305  1.00  0.00    -0.222 N  
BRANCH   5   6
HETATM    6  C   UNL     1     -10.012  13.085  69.174  1.00  0.00     0.391 C  
BRANCH   6   7
HETATM    7  C   UNL     1      -9.375  11.750  68.572  1.00  0.00    -0.156 C  
BRANCH   7   8
HETATM    8  C   UNL     1     -10.517  10.711  68.123  1.00  0.00    -0.185 C  
BRANCH   8   9
HETATM    9  N   UNL     1     -11.066   9.941  69.254  1.00  0.00    -0.348 N  
HETATM   10  C   UNL     1     -10.717   8.629  69.455  1.00  0.00    -0.182 C  
HETATM   11  H   UNL     1     -11.716  10.391  69.898  1.00  0.00     0.000 HD 
HETATM   12  O   UNL     1      -9.910   7.995  68.797  1.00  0.00    -0.164 OA 
BRANCH  10  13
HETATM   13  O   UNL     1     -11.395   8.133  70.526  1.00  0.00    -0.268 OA 
BRANCH  13  14
HETATM   14  C   UNL     1     -10.574   7.503  71.525  1.00  0.00    -0.212 C  
HETATM   15  C   UNL     1     -10.805   8.025  72.925  1.00  0.00    -0.399 C  
HETATM   16  O   UNL     1     -10.811   5.667  73.046  1.00  0.00    -0.234 OA 
HETATM   17  C   UNL     1     -10.458   6.837  73.790  1.00  0.00    -0.354 C  
HETATM   18  C   UNL     1     -10.951   6.032  71.665  1.00  0.00    -0.272 C  
ENDBRANCH  13  14
ENDBRANCH  10  13
ENDBRANCH   8   9
BRANCH   8  19
HETATM   19  C   UNL     1     -11.652  11.245  67.218  1.00  0.00    -0.171 C  
BRANCH  19  20
HETATM   20  C   UNL     1     -11.323  11.532  65.777  1.00  0.00    -0.160 A  
HETATM   21  C   UNL     1     -11.873  12.562  63.651  1.00  0.00    -0.610 A  
HETATM   22  C   UNL     1     -10.045  10.990  63.791  1.00  0.00    -0.420 A  
HETATM   23  C   UNL     1     -10.280  10.836  65.156  1.00  0.00    -0.365 A  
HETATM   24  C   UNL     1     -12.115  12.403  65.016  1.00  0.00    -0.468 A  
HETATM   25  C   UNL     1     -10.843  11.849  63.039  1.00  0.00    -0.120 A  
ENDBRANCH  19  20
ENDBRANCH   8  19
ENDBRANCH   7   8
BRANCH   7  26
HETATM   26  O   UNL     1      -8.290  11.212  69.414  1.00  0.00     0.028 OA 
HETATM   27  O   UNL     1      -5.300  10.996  68.085  1.00  0.00    -0.040 OA 
HETATM   28  O   UNL     1      -6.442  12.598  69.293  1.00  0.00    -0.101 OA 
HETATM   29  O   UNL     1      -7.230  11.521  67.238  1.00  0.00    -0.113 OA 
HETATM   30  P   UNL     1      -6.713  11.099  68.713  1.00  0.00    -0.082 P  
ENDBRANCH   7  26
ENDBRANCH   6   7
ENDBRANCH   5   6
BRANCH   5  31
HETATM   31  S   UNL     1     -11.327  15.263  68.336  1.00  0.00    -0.341 S  
HETATM   32  O   UNL     1     -12.349  14.536  67.612  1.00  0.00    -0.218 OA 
HETATM   33  O   UNL     1     -11.024  16.620  67.926  1.00  0.00    -0.342 OA 
BRANCH  31  34
HETATM   34  C   UNL     1     -11.910  15.365  69.989  1.00  0.00    -0.343 A  
HETATM   35  N   UNL     1     -13.551  15.725  73.818  1.00  0.00    -0.705 NA 
HETATM   36  C   UNL     1     -11.271  16.175  70.927  1.00  0.00    -0.329 A  
HETATM   37  H1  UNL     1     -14.396  15.210  74.069  1.00  0.00     0.000 HD 
HETATM   38  H2  UNL     1     -13.723  16.717  73.981  1.00  0.00     0.000 HD 
HETATM   39  C   UNL     1     -13.153  14.797  70.275  1.00  0.00    -0.077 A  
HETATM   40  C   UNL     1     -13.686  14.909  71.550  1.00  0.00    -0.532 A  
HETATM   41  C   UNL     1     -11.821  16.287  72.205  1.00  0.00    -0.601 A  
HETATM   42  C   UNL     1     -12.981  15.580  72.549  1.00  0.00    -0.428 A  
ENDBRANCH  31  34
ENDBRANCH   5  31
ENDBRANCH   4   5
TORSDOF 12
ENDMDL
MODEL      115
REMARK 921   NORMALIZED FREE ENERGY PREDICTED BY IDOCK:   -5.56 KCAL/MOL
REMARK 922        TOTAL FREE ENERGY PREDICTED BY IDOCK:  -12.26 KCAL/MOL
REMARK 923 INTER-LIGAND FREE ENERGY PREDICTED BY IDOCK:  -11.11 KCAL/MOL
REMARK 924 INTRA-LIGAND FREE ENERGY PREDICTED BY IDOCK:   -1.15 KCAL/MOL
REMARK 927      BINDING AFFINITY PREDICTED BY RF-SCORE:    0.00 PKD
ROOT
HETATM    1  C   UNL     1     -11.802  14.338  64.575  1.00  0.00    -0.456 C  
HETATM    2  C   UNL     1     -12.049  12.871  64.887  1.00  0.00    -0.479 C  
HETATM    3  C   UNL     1     -12.687  12.088  63.737  1.00  0.00    -0.516 C  
HETATM    4  C   UNL     1     -11.038  11.995  65.634  1.00  0.00    -0.313 C  
ENDROOT
BRANCH   4   5
HETATM    5  N   UNL     1      -9.548  12.063  65.597  1.00  0.00    -0.224 N  
BRANCH   5   6
HETATM    6  C   UNL     1      -9.138  13.290  66.465  1.00  0.00    -0.117 C  
BRANCH   6   7
HETATM    7  C   UNL     1      -9.325  13.133  68.043  1.00  0.00    -0.219 C  
BRANCH   7   8
HETATM    8  C   UNL     1     -10.489  14.099  68.590  1.00  0.00    -0.250 C  
BRANCH   8   9
HETATM    9  N   UNL     1     -10.482  15.425  67.946  1.00  0.00    -0.251 N  
HETATM   10  C   UNL     1     -10.849  16.551  68.637  1.00  0.00    -0.345 C  
HETATM   11  H   UNL     1     -10.199  15.506  66.970  1.00  0.00     0.000 HD 
HETATM   12  O   UNL     1     -11.151  16.599  69.818  1.00  0.00    -0.295 OA 
BRANCH  10  13
HETATM   13  O   UNL     1     -10.808  17.631  67.810  1.00  0.00    -0.367 OA 
BRANCH  13  14
HETATM   14  C   UNL     1      -9.789  18.598  68.124  1.00  0.00    -0.354 C  
HETATM   15  C   UNL     1      -8.517  18.428  67.325  1.00  0.00    -0.256 C  
HETATM   16  O   UNL     1      -9.092  20.717  67.249  1.00  0.00    -0.367 OA 
HETATM   17  C   UNL     1      -7.967  19.832  67.262  1.00  0.00    -0.285 C  
HETATM   18  C   UNL     1     -10.243  19.994  67.712  1.00  0.00    -0.409 C  
ENDBRANCH  13  14
ENDBRANCH  10  13
ENDBRANCH   8   9
BRANCH   8  19
HETATM   19  C   UNL     1     -11.924  13.523  68.650  1.00  0.00    -0.378 C  
BRANCH  19  20
HETATM   20  C   UNL     1     -12.271  12.624  69.806  1.00  0.00    -0.209 A  
HETATM   21  C   UNL     1     -12.672  10.409  70.711  1.00  0.00    -0.460 A  
HETATM   22  C   UNL     1     -13.197  12.363  72.029  1.00  0.00    -0.514 A  
HETATM   23  C   UNL     1     -12.747  13.184  70.997  1.00  0.00    -0.361 A  
HETATM   24  C   UNL     1     -12.229  11.229  69.672  1.00  0.00    -0.340 A  
HETATM   25  C   UNL     1     -13.163  10.978  71.885  1.00  0.00    -0.503 A  
ENDBRANCH  19  20
ENDBRANCH   8  19
ENDBRANCH   7   8
BRANCH   7  26
HETATM   26  O   UNL     1      -8.043  13.172  68.771  1.00  0.00    -0.062 OA 
HETATM   27  O   UNL     1      -5.921  15.545  67.985  1.00  0.00    -0.117 OA 
HETATM   28  O   UNL     1      -7.631  15.322  69.519  1.00  0.00    -0.211 OA 
HETATM   29  O   UNL     1      -7.812  14.941  67.106  1.00  0.00    -0.200 OA 
HETATM   30  P   UNL     1      -6.924  14.424  68.357  1.00  0.00    -0.141 P  
ENDBRANCH   7  26
ENDBRANCH   6   7
ENDBRANCH   5   6
BRANCH   5  31
HETATM   31  S   UNL     1      -8.445  10.780  65.836  1.00  0.00    -0.159 S  
HETATM   32  O   UNL     1      -7.264  11.283  66.507  1.00  0.00    -0.139 OA 
HETATM   33  O   UNL     1      -8.279  10.096  64.569  1.00  0.00    -0.153 OA 
BRANCH  31  34
HETATM   34  C   UNL     1      -9.146   9.609  66.940  1.00  0.00    -0.138 A  
HETATM   35  N   UNL     1     -11.085   6.916  69.485  1.00  0.00    -0.398 NA 
HETATM   36  C   UNL     1      -8.930   9.700  68.315  1.00  0.00    -0.123 A  
HETATM   37  H1  UNL     1     -11.690   6.190  69.104  1.00  0.00     0.000 HD 
HETATM   38  H2  UNL     1     -11.628   7.468  70.150  1.00  0.00     0.000 HD 
HETATM   39  C   UNL     1     -10.103   8.728  66.431  1.00  0.00    -0.313 A  
HETATM   40  C   UNL     1     -10.733   7.830  67.278  1.00  0.00    -0.326 A  
HETATM   41  C   UNL     1      -9.577   8.796  69.159  1.00  0.00    -0.162 A  
HETATM   42  C   UNL     1     -10.408   7.797  68.635  1.00  0.00    -0.199 A  
ENDBRANCH  31  34
ENDBRANCH   5  31
ENDBRANCH   4   5
TORSDOF 12
ENDMDL
MODEL      116
REMARK 921   NORMALIZED FREE ENERGY PREDICTED BY IDOCK:   -5.55 KCAL/MOL
REMARK 922        TOTAL FREE ENERGY PREDICTED BY IDOCK:  -12.25 KCAL/MOL
REMARK 923 INTER-LIGAND FREE ENERGY PREDICTED BY IDOCK:   -9.72 KCAL/MOL
REMARK 924 INTRA-LIGAND FREE ENERGY PREDICTED BY IDOCK:   -2.53 KCAL/MOL
REMARK 927      BINDING AFFINITY PREDICTED BY RF-SCORE:    0.00 PKD
ROOT
HETATM    1  C   UNL     1      -8.254   6.500  68.677  1.00  0.00    -0.118 C  
HETATM    2  C   UNL     1      -9.659   6.504  68.097  1.00  0.00    -0.123 C  
HETATM    3  C   UNL     1     -10.532   5.340  68.570  1.00  0.00    -0.147 C  
HETATM    4  C   UNL     1     -10.497   7.779  67.952  1.00  0.00    -0.201 C  
ENDROOT
BRANCH   4   5
HETATM    5  N   UNL     1     -10.518   8.980  68.838  1.00  0.00    -0.219 N  
BRANCH   5   6
HETATM    6  C   UNL     1     -11.040  10.162  67.968  1.00  0.00    -0.240 C  
BRANCH   6   7
HETATM    7  C   UNL     1      -9.932  11.032  67.218  1.00  0.00    -0.181 C  
BRANCH   7   8
HETATM    8  C   UNL     1     -10.026  12.582  67.638  1.00  0.00    -0.201 C  
BRANCH   8   9
HETATM    9  N   UNL     1     -10.554  12.774  69.000  1.00  0.00    -0.431 N  
HETATM   10  C   UNL     1     -11.606  13.621  69.241  1.00  0.00    -0.311 C  
HETATM   11  H   UNL     1     -10.129  12.269  69.778  1.00  0.00     0.000 HD 
HETATM   12  O   UNL     1     -12.236  14.236  68.398  1.00  0.00    -0.299 OA 
BRANCH  10  13
HETATM   13  O   UNL     1     -11.866  13.662  70.576  1.00  0.00    -0.291 OA 
BRANCH  13  14
HETATM   14  C   UNL     1     -12.507  14.866  71.033  1.00  0.00    -0.330 C  
HETATM   15  C   UNL     1     -13.744  14.622  71.867  1.00  0.00    -0.510 C  
HETATM   16  O   UNL     1     -12.432  16.218  73.010  1.00  0.00    -0.469 OA 
HETATM   17  C   UNL     1     -13.789  15.832  72.768  1.00  0.00    -0.523 C  
HETATM   18  C   UNL     1     -11.602  15.606  72.012  1.00  0.00    -0.450 C  
ENDBRANCH  13  14
ENDBRANCH  10  13
ENDBRANCH   8   9
BRANCH   8  19
HETATM   19  C   UNL     1      -8.776  13.463  67.402  1.00  0.00    -0.209 C  
BRANCH  19  20
HETATM   20  C   UNL     1      -8.978  14.950  67.290  1.00  0.00    -0.212 A  
HETATM   21  C   UNL     1      -9.473  16.920  65.964  1.00  0.00    -0.227 A  
HETATM   22  C   UNL     1      -8.678  17.163  68.231  1.00  0.00    -0.241 A  
HETATM   23  C   UNL     1      -8.624  15.776  68.363  1.00  0.00    -0.171 A  
HETATM   24  C   UNL     1      -9.411  15.532  66.091  1.00  0.00    -0.376 A  
HETATM   25  C   UNL     1      -9.099  17.734  67.032  1.00  0.00    -0.256 A  
ENDBRANCH  19  20
ENDBRANCH   8  19
ENDBRANCH   7   8
BRANCH   7  26
HETATM   26  O   UNL     1      -9.870  10.745  65.772  1.00  0.00    -0.216 OA 
HETATM   27  O   UNL     1      -7.032   9.636  64.564  1.00  0.00    -0.105 OA 
HETATM   28  O   UNL     1      -8.936   8.658  65.427  1.00  0.00    -0.189 OA 
HETATM   29  O   UNL     1      -7.580  10.375  66.530  1.00  0.00    -0.108 OA 
HETATM   30  P   UNL     1      -8.372  10.159  65.135  1.00  0.00    -0.171 P  
ENDBRANCH   7  26
ENDBRANCH   6   7
ENDBRANCH   5   6
BRANCH   5  31
HETATM   31  S   UNL     1     -11.150   9.090  70.421  1.00  0.00    -0.232 S  
HETATM   32  O   UNL     1     -12.265   8.175  70.555  1.00  0.00     0.005 OA 
HETATM   33  O   UNL     1     -11.370  10.492  70.714  1.00  0.00    -0.327 OA 
BRANCH  31  34
HETATM   34  C   UNL     1      -9.946   8.529  71.568  1.00  0.00    -0.244 A  
HETATM   35  N   UNL     1      -7.204   7.368  74.504  1.00  0.00    -0.115 NA 
HETATM   36  C   UNL     1      -8.590   8.780  71.365  1.00  0.00    -0.254 A  
HETATM   37  H1  UNL     1      -7.521   6.888  75.346  1.00  0.00     0.000 HD 
HETATM   38  H2  UNL     1      -6.692   8.204  74.786  1.00  0.00     0.000 HD 
HETATM   39  C   UNL     1     -10.398   8.028  72.791  1.00  0.00    -0.408 A  
HETATM   40  C   UNL     1      -9.484   7.633  73.755  1.00  0.00    -0.300 A  
HETATM   41  C   UNL     1      -7.678   8.386  72.347  1.00  0.00    -0.145 A  
HETATM   42  C   UNL     1      -8.114   7.727  73.504  1.00  0.00    -0.171 A  
ENDBRANCH  31  34
ENDBRANCH   5  31
ENDBRANCH   4   5
TORSDOF 12
ENDMDL
MODEL      117
REMARK 921   NORMALIZED FREE ENERGY PREDICTED BY IDOCK:   -5.55 KCAL/MOL
REMARK 922        TOTAL FREE ENERGY PREDICTED BY IDOCK:  -12.25 KCAL/MOL
REMARK 923 INTER-LIGAND FREE ENERGY PREDICTED BY IDOCK:   -9.51 KCAL/MOL
REMARK 924 INTRA-LIGAND FREE ENERGY PREDICTED BY IDOCK:   -2.74 KCAL/MOL
REMARK 927      BINDING AFFINITY PREDICTED BY RF-SCORE:    0.00 PKD
ROOT
HETATM    1  C   UNL     1     -10.394  10.882  63.921  1.00  0.00    -0.397 C  
HETATM    2  C   UNL     1      -9.441  10.036  64.751  1.00  0.00    -0.366 C  
HETATM    3  C   UNL     1      -7.976  10.464  64.645  1.00  0.00    -0.092 C  
HETATM    4  C   UNL     1      -9.763   9.572  66.175  1.00  0.00    -0.258 C  
ENDROOT
BRANCH   4   5
HETATM    5  N   UNL     1     -10.551  10.282  67.225  1.00  0.00    -0.257 N  
BRANCH   5   6
HETATM    6  C   UNL     1     -10.802   9.250  68.365  1.00  0.00    -0.076 C  
BRANCH   6   7
HETATM    7  C   UNL     1      -9.886   7.942  68.349  1.00  0.00    -0.173 C  
BRANCH   7   8
HETATM    8  C   UNL     1     -10.780   6.606  68.334  1.00  0.00    -0.258 C  
BRANCH   8   9
HETATM    9  N   UNL     1     -10.000   5.399  68.009  1.00  0.00    -0.145 N  
HETATM   10  C   UNL     1     -10.199   4.720  66.834  1.00  0.00    -0.186 C  
HETATM   11  H   UNL     1      -9.299   5.063  68.669  1.00  0.00     0.000 HD 
HETATM   12  O   UNL     1     -10.959   5.048  65.939  1.00  0.00    -0.218 OA 
BRANCH  10  13
HETATM   13  O   UNL     1      -9.397   3.620  66.797  1.00  0.00    -0.171 OA 
BRANCH  13  14
HETATM   14  C   UNL     1      -7.996   3.884  66.989  1.00  0.00    -0.095 C  
HETATM   15  C   UNL     1      -7.194   2.669  67.396  1.00  0.00    -0.053 C  
HETATM   16  O   UNL     1      -6.013   3.736  65.652  1.00  0.00    -0.022 OA 
HETATM   17  C   UNL     1      -5.822   2.969  66.845  1.00  0.00    -0.023 C  
HETATM   18  C   UNL     1      -7.346   4.268  65.664  1.00  0.00    -0.077 C  
ENDBRANCH  13  14
ENDBRANCH  10  13
ENDBRANCH   8   9
BRANCH   8  19
HETATM   19  C   UNL     1     -11.706   6.353  69.548  1.00  0.00    -0.127 C  
BRANCH  19  20
HETATM   20  C   UNL     1     -11.094   6.415  70.921  1.00  0.00    -0.354 A  
HETATM   21  C   UNL     1      -9.907   5.357  72.753  1.00  0.00    -0.180 A  
HETATM   22  C   UNL     1     -10.905   7.534  73.062  1.00  0.00    -0.445 A  
HETATM   23  C   UNL     1     -11.352   7.519  71.742  1.00  0.00    -0.289 A  
HETATM   24  C   UNL     1     -10.361   5.335  71.434  1.00  0.00    -0.290 A  
HETATM   25  C   UNL     1     -10.186   6.453  73.568  1.00  0.00    -0.262 A  
ENDBRANCH  19  20
ENDBRANCH   8  19
ENDBRANCH   7   8
BRANCH   7  26
HETATM   26  O   UNL     1      -8.803   7.998  69.349  1.00  0.00    -0.142 OA 
HETATM   27  O   UNL     1      -5.744   7.447  68.306  1.00  0.00    -0.025 OA 
HETATM   28  O   UNL     1      -7.074   9.316  68.558  1.00  0.00    -0.070 OA 
HETATM   29  O   UNL     1      -7.666   7.294  67.307  1.00  0.00    -0.105 OA 
HETATM   30  P   UNL     1      -7.189   7.707  68.798  1.00  0.00    -0.085 P  
ENDBRANCH   7  26
ENDBRANCH   6   7
ENDBRANCH   5   6
BRANCH   5  31
HETATM   31  S   UNL     1     -10.239  11.826  67.889  1.00  0.00    -0.197 S  
HETATM   32  O   UNL     1      -8.818  11.963  68.131  1.00  0.00    -0.166 OA 
HETATM   33  O   UNL     1     -11.150  12.023  68.998  1.00  0.00    -0.228 OA 
BRANCH  31  34
HETATM   34  C   UNL     1     -10.631  13.058  66.702  1.00  0.00    -0.266 A  
HETATM   35  N   UNL     1     -11.474  16.197  64.071  1.00  0.00    -1.425 NA 
HETATM   36  C   UNL     1     -11.944  13.245  66.269  1.00  0.00    -0.471 A  
HETATM   37  H1  UNL     1     -10.726  16.803  63.734  1.00  0.00     0.000 HD 
HETATM   38  H2  UNL     1     -12.182  16.782  64.516  1.00  0.00     0.000 HD 
HETATM   39  C   UNL     1      -9.640  13.986  66.378  1.00  0.00    -0.299 A  
HETATM   40  C   UNL     1      -9.922  15.017  65.495  1.00  0.00    -0.390 A  
HETATM   41  C   UNL     1     -12.218  14.293  65.387  1.00  0.00    -0.408 A  
HETATM   42  C   UNL     1     -11.191  15.126  64.924  1.00  0.00    -0.417 A  
ENDBRANCH  31  34
ENDBRANCH   5  31
ENDBRANCH   4   5
TORSDOF 12
ENDMDL
MODEL      118
REMARK 921   NORMALIZED FREE ENERGY PREDICTED BY IDOCK:   -5.54 KCAL/MOL
REMARK 922        TOTAL FREE ENERGY PREDICTED BY IDOCK:  -12.23 KCAL/MOL
REMARK 923 INTER-LIGAND FREE ENERGY PREDICTED BY IDOCK:  -10.35 KCAL/MOL
REMARK 924 INTRA-LIGAND FREE ENERGY PREDICTED BY IDOCK:   -1.88 KCAL/MOL
REMARK 927      BINDING AFFINITY PREDICTED BY RF-SCORE:    0.00 PKD
ROOT
HETATM    1  C   UNL     1     -12.976  14.143  65.481  1.00  0.00    -0.303 C  
HETATM    2  C   UNL     1     -11.973  13.029  65.228  1.00  0.00    -0.446 C  
HETATM    3  C   UNL     1     -11.621  12.831  63.752  1.00  0.00    -0.548 C  
HETATM    4  C   UNL     1     -10.739  12.802  66.108  1.00  0.00    -0.275 C  
ENDROOT
BRANCH   4   5
HETATM    5  N   UNL     1      -9.909  13.817  66.820  1.00  0.00    -0.267 N  
BRANCH   5   6
HETATM    6  C   UNL     1      -8.869  13.025  67.667  1.00  0.00    -0.191 C  
BRANCH   6   7
HETATM    7  C   UNL     1      -9.085  11.445  67.755  1.00  0.00    -0.158 C  
BRANCH   7   8
HETATM    8  C   UNL     1      -9.730  11.023  69.166  1.00  0.00    -0.076 C  
BRANCH   8   9
HETATM    9  N   UNL     1     -10.749  11.978  69.638  1.00  0.00    -0.402 N  
HETATM   10  C   UNL     1     -12.059  11.871  69.243  1.00  0.00    -0.210 C  
HETATM   11  H   UNL     1     -10.476  12.730  70.269  1.00  0.00     0.000 HD 
HETATM   12  O   UNL     1     -12.524  10.989  68.542  1.00  0.00    -0.440 OA 
BRANCH  10  13
HETATM   13  O   UNL     1     -12.782  12.896  69.770  1.00  0.00     0.152 OA 
BRANCH  13  14
HETATM   14  C   UNL     1     -12.378  13.308  71.088  1.00  0.00    -0.232 C  
HETATM   15  C   UNL     1     -12.081  14.786  71.203  1.00  0.00    -0.391 C  
HETATM   16  O   UNL     1     -13.467  14.206  73.025  1.00  0.00    -0.661 OA 
HETATM   17  C   UNL     1     -12.402  15.085  72.647  1.00  0.00    -0.353 C  
HETATM   18  C   UNL     1     -13.532  13.136  72.070  1.00  0.00    -0.507 C  
ENDBRANCH  13  14
ENDBRANCH  10  13
ENDBRANCH   8   9
BRANCH   8  19
HETATM   19  C   UNL     1     -10.228   9.566  69.317  1.00  0.00    -0.212 C  
BRANCH  19  20
HETATM   20  C   UNL     1     -10.345   9.005  70.709  1.00  0.00    -0.305 A  
HETATM   21  C   UNL     1      -9.320   8.095  72.711  1.00  0.00    -0.344 A  
HETATM   22  C   UNL     1     -11.718   8.008  72.437  1.00  0.00    -0.444 A  
HETATM   23  C   UNL     1     -11.603   8.650  71.206  1.00  0.00    -0.340 A  
HETATM   24  C   UNL     1      -9.202   8.730  71.474  1.00  0.00    -0.332 A  
HETATM   25  C   UNL     1     -10.578   7.728  73.187  1.00  0.00    -0.415 A  
ENDBRANCH  19  20
ENDBRANCH   8  19
ENDBRANCH   7   8
BRANCH   7  26
HETATM   26  O   UNL     1      -7.896  10.687  67.322  1.00  0.00    -0.108 OA 
HETATM   27  O   UNL     1      -8.294   8.464  64.945  1.00  0.00    -0.158 OA 
HETATM   28  O   UNL     1      -7.752  10.706  65.013  1.00  0.00    -0.087 OA 
HETATM   29  O   UNL     1      -9.717   9.675  66.051  1.00  0.00    -0.223 OA 
HETATM   30  P   UNL     1      -8.106   9.514  66.068  1.00  0.00    -0.114 P  
ENDBRANCH   7  26
ENDBRANCH   6   7
ENDBRANCH   5   6
BRANCH   5  31
HETATM   31  S   UNL     1      -9.183  15.214  66.155  1.00  0.00    -0.226 S  
HETATM   32  O   UNL     1      -9.731  15.456  64.837  1.00  0.00    -0.157 OA 
HETATM   33  O   UNL     1      -7.747  15.074  66.291  1.00  0.00     0.545 OA 
BRANCH  31  34
HETATM   34  C   UNL     1      -9.634  16.614  67.112  1.00  0.00    -0.241 A  
HETATM   35  N   UNL     1     -10.547  20.117  69.207  1.00  0.00    -0.393 NA 
HETATM   36  C   UNL     1      -9.255  16.722  68.450  1.00  0.00    -0.229 A  
HETATM   37  H1  UNL     1     -11.059  20.872  68.752  1.00  0.00     0.000 HD 
HETATM   38  H2  UNL     1      -9.667  20.495  69.560  1.00  0.00     0.000 HD 
HETATM   39  C   UNL     1     -10.183  17.710  66.442  1.00  0.00    -0.364 A  
HETATM   40  C   UNL     1     -10.494  18.864  67.144  1.00  0.00    -0.509 A  
HETATM   41  C   UNL     1      -9.566  17.893  69.145  1.00  0.00    -0.044 A  
HETATM   42  C   UNL     1     -10.270  18.930  68.520  1.00  0.00    -0.347 A  
ENDBRANCH  31  34
ENDBRANCH   5  31
ENDBRANCH   4   5
TORSDOF 12
ENDMDL
MODEL      119
REMARK 921   NORMALIZED FREE ENERGY PREDICTED BY IDOCK:   -5.54 KCAL/MOL
REMARK 922        TOTAL FREE ENERGY PREDICTED BY IDOCK:  -12.23 KCAL/MOL
REMARK 923 INTER-LIGAND FREE ENERGY PREDICTED BY IDOCK:   -9.52 KCAL/MOL
REMARK 924 INTRA-LIGAND FREE ENERGY PREDICTED BY IDOCK:   -2.71 KCAL/MOL
REMARK 927      BINDING AFFINITY PREDICTED BY RF-SCORE:    0.00 PKD
ROOT
HETATM    1  C   UNL     1     -10.588   8.527  72.314  1.00  0.00    -0.408 C  
HETATM    2  C   UNL     1     -11.160   8.724  70.919  1.00  0.00    -0.320 C  
HETATM    3  C   UNL     1     -11.892  10.054  70.729  1.00  0.00    -0.435 C  
HETATM    4  C   UNL     1     -10.400   8.344  69.644  1.00  0.00    -0.218 C  
ENDROOT
BRANCH   4   5
HETATM    5  N   UNL     1      -8.930   8.395  69.392  1.00  0.00    -0.152 N  
BRANCH   5   6
HETATM    6  C   UNL     1      -8.490   9.871  69.628  1.00  0.00    -0.187 C  
BRANCH   6   7
HETATM    7  C   UNL     1      -8.411  10.801  68.333  1.00  0.00    -0.137 C  
BRANCH   7   8
HETATM    8  C   UNL     1      -9.598  11.887  68.323  1.00  0.00    -0.201 C  
BRANCH   8   9
HETATM    9  N   UNL     1      -9.145  13.224  67.900  1.00  0.00    -0.194 N  
HETATM   10  C   UNL     1      -9.596  14.358  68.527  1.00  0.00    -0.217 C  
HETATM   11  H   UNL     1      -8.485  13.308  67.127  1.00  0.00     0.000 HD 
HETATM   12  O   UNL     1     -10.337  14.393  69.495  1.00  0.00    -0.105 OA 
BRANCH  10  13
HETATM   13  O   UNL     1      -9.074  15.457  67.918  1.00  0.00    -0.177 OA 
BRANCH  13  14
HETATM   14  C   UNL     1     -10.032  16.477  67.581  1.00  0.00    -0.254 C  
HETATM   15  C   UNL     1      -9.547  17.884  67.847  1.00  0.00    -0.286 C  
HETATM   16  O   UNL     1     -10.479  17.862  65.677  1.00  0.00    -0.610 OA 
HETATM   17  C   UNL     1     -10.299  18.700  66.824  1.00  0.00    -0.407 C  
HETATM   18  C   UNL     1     -10.268  16.499  66.075  1.00  0.00    -0.356 C  
ENDBRANCH  13  14
ENDBRANCH  10  13
ENDBRANCH   8   9
BRANCH   8  19
HETATM   19  C   UNL     1     -10.915  11.499  67.611  1.00  0.00    -0.296 C  
BRANCH  19  20
HETATM   20  C   UNL     1     -11.153  12.050  66.230  1.00  0.00    -0.363 A  
HETATM   21  C   UNL     1     -12.346  13.533  64.726  1.00  0.00    -0.435 A  
HETATM   22  C   UNL     1     -10.881  11.832  63.832  1.00  0.00    -0.468 A  
HETATM   23  C   UNL     1     -10.568  11.420  65.126  1.00  0.00    -0.352 A  
HETATM   24  C   UNL     1     -12.040  13.115  66.021  1.00  0.00    -0.495 A  
HETATM   25  C   UNL     1     -11.772  12.885  63.632  1.00  0.00    -0.572 A  
ENDBRANCH  19  20
ENDBRANCH   8  19
ENDBRANCH   7   8
BRANCH   7  26
HETATM   26  O   UNL     1      -8.218  10.027  67.092  1.00  0.00    -0.117 OA 
HETATM   27  O   UNL     1      -5.593  10.731  65.257  1.00  0.00    -0.143 OA 
HETATM   28  O   UNL     1      -6.038   9.260  66.979  1.00  0.00    -0.058 OA 
HETATM   29  O   UNL     1      -6.423  11.679  67.026  1.00  0.00    -0.124 OA 
HETATM   30  P   UNL     1      -6.833  10.399  66.124  1.00  0.00    -0.137 P  
ENDBRANCH   7  26
ENDBRANCH   6   7
ENDBRANCH   5   6
BRANCH   5  31
HETATM   31  S   UNL     1      -7.738   7.325  69.988  1.00  0.00    -0.097 S  
HETATM   32  O   UNL     1      -6.939   8.007  70.984  1.00  0.00    -0.047 OA 
HETATM   33  O   UNL     1      -7.064   6.733  68.850  1.00  0.00    -0.082 OA 
BRANCH  31  34
HETATM   34  C   UNL     1      -8.518   6.004  70.841  1.00  0.00    -0.127 A  
HETATM   35  N   UNL     1     -10.106   2.755  72.942  1.00  0.00    -0.134 NA 
HETATM   36  C   UNL     1      -9.311   5.080  70.162  1.00  0.00    -0.215 A  
HETATM   37  H1  UNL     1      -9.933   2.653  73.942  1.00  0.00     0.000 HD 
HETATM   38  H2  UNL     1      -9.785   1.907  72.474  1.00  0.00     0.000 HD 
HETATM   39  C   UNL     1      -8.142   5.774  72.166  1.00  0.00    -0.108 A  
HETATM   40  C   UNL     1      -8.681   4.703  72.861  1.00  0.00    -0.116 A  
HETATM   41  C   UNL     1      -9.842   4.000  70.870  1.00  0.00    -0.229 A  
HETATM   42  C   UNL     1      -9.605   3.859  72.243  1.00  0.00    -0.142 A  
ENDBRANCH  31  34
ENDBRANCH   5  31
ENDBRANCH   4   5
TORSDOF 12
ENDMDL
MODEL      120
REMARK 921   NORMALIZED FREE ENERGY PREDICTED BY IDOCK:   -5.52 KCAL/MOL
REMARK 922        TOTAL FREE ENERGY PREDICTED BY IDOCK:  -12.20 KCAL/MOL
REMARK 923 INTER-LIGAND FREE ENERGY PREDICTED BY IDOCK:  -10.10 KCAL/MOL
REMARK 924 INTRA-LIGAND FREE ENERGY PREDICTED BY IDOCK:   -2.10 KCAL/MOL
REMARK 927      BINDING AFFINITY PREDICTED BY RF-SCORE:    0.00 PKD
ROOT
HETATM    1  C   UNL     1     -12.524  13.754  65.698  1.00  0.00    -0.541 C  
HETATM    2  C   UNL     1     -11.110  14.179  65.338  1.00  0.00    -0.321 C  
HETATM    3  C   UNL     1     -11.017  15.579  64.725  1.00  0.00    -0.416 C  
HETATM    4  C   UNL     1      -9.901  13.909  66.240  1.00  0.00    -0.306 C  
ENDROOT
BRANCH   4   5
HETATM    5  N   UNL     1      -9.849  13.871  67.731  1.00  0.00    -0.231 N  
BRANCH   5   6
HETATM    6  C   UNL     1      -9.056  12.586  68.114  1.00  0.00    -0.204 C  
BRANCH   6   7
HETATM    7  C   UNL     1      -9.873  11.457  68.893  1.00  0.00    -0.112 C  
BRANCH   7   8
HETATM    8  C   UNL     1      -9.250   9.998  68.627  1.00  0.00    -0.152 C  
BRANCH   8   9
HETATM    9  N   UNL     1      -8.962   9.751  67.203  1.00  0.00    -0.134 N  
HETATM   10  C   UNL     1      -9.696   8.848  66.476  1.00  0.00    -0.254 C  
HETATM   11  H   UNL     1      -8.203  10.260  66.750  1.00  0.00     0.000 HD 
HETATM   12  O   UNL     1     -10.660   8.221  66.881  1.00  0.00    -0.321 OA 
BRANCH  10  13
HETATM   13  O   UNL     1      -9.200   8.766  65.212  1.00  0.00    -0.157 OA 
BRANCH  13  14
HETATM   14  C   UNL     1      -9.034  10.029  64.542  1.00  0.00    -0.226 C  
HETATM   15  C   UNL     1      -8.444   9.912  63.155  1.00  0.00    -0.178 C  
HETATM   16  O   UNL     1     -10.313  11.347  63.003  1.00  0.00    -0.306 OA 
HETATM   17  C   UNL     1      -9.018  11.112  62.441  1.00  0.00    -0.265 C  
HETATM   18  C   UNL     1     -10.393  10.659  64.260  1.00  0.00    -0.255 C  
ENDBRANCH  13  14
ENDBRANCH  10  13
ENDBRANCH   8   9
BRANCH   8  19
HETATM   19  C   UNL     1      -8.062   9.556  69.515  1.00  0.00    -0.117 C  
BRANCH  19  20
HETATM   20  C   UNL     1      -8.267   8.371  70.419  1.00  0.00    -0.115 A  
HETATM   21  C   UNL     1      -8.491   7.425  72.642  1.00  0.00    -0.138 A  
HETATM   22  C   UNL     1      -8.238   5.969  70.732  1.00  0.00    -0.125 A  
HETATM   23  C   UNL     1      -8.184   7.078  69.890  1.00  0.00    -0.130 A  
HETATM   24  C   UNL     1      -8.428   8.537  71.802  1.00  0.00    -0.236 A  
HETATM   25  C   UNL     1      -8.388   6.142  72.107  1.00  0.00    -0.110 A  
ENDBRANCH  19  20
ENDBRANCH   8  19
ENDBRANCH   7   8
BRANCH   7  26
HETATM   26  O   UNL     1     -11.332  11.591  68.717  1.00  0.00    -0.216 OA 
HETATM   27  O   UNL     1     -13.262  10.430  71.099  1.00  0.00    -0.373 OA 
HETATM   28  O   UNL     1     -12.276  12.466  70.639  1.00  0.00    -0.368 OA 
HETATM   29  O   UNL     1     -11.117  10.312  70.784  1.00  0.00    -0.326 OA 
HETATM   30  P   UNL     1     -12.350  10.979  69.974  1.00  0.00    -0.203 P  
ENDBRANCH   7  26
ENDBRANCH   6   7
ENDBRANCH   5   6
BRANCH   5  31
HETATM   31  S   UNL     1      -9.439  15.150  68.786  1.00  0.00    -0.217 S  
HETATM   32  O   UNL     1      -8.047  15.029  69.167  1.00  0.00    -0.176 OA 
HETATM   33  O   UNL     1     -10.438  15.198  69.835  1.00  0.00    -0.255 OA 
BRANCH  31  34
HETATM   34  C   UNL     1      -9.555  16.675  67.924  1.00  0.00    -0.234 A  
HETATM   35  N   UNL     1      -9.576  20.386  65.998  1.00  0.00    -0.668 NA 
HETATM   36  C   UNL     1     -10.607  17.557  68.165  1.00  0.00    -0.366 A  
HETATM   37  H1  UNL     1      -8.833  20.633  65.344  1.00  0.00     0.000 HD 
HETATM   38  H2  UNL     1      -9.614  21.103  66.723  1.00  0.00     0.000 HD 
HETATM   39  C   UNL     1      -8.454  17.077  67.165  1.00  0.00    -0.222 A  
HETATM   40  C   UNL     1      -8.473  18.303  66.518  1.00  0.00    -0.287 A  
HETATM   41  C   UNL     1     -10.611  18.793  67.516  1.00  0.00    -0.497 A  
HETATM   42  C   UNL     1      -9.591  19.133  66.618  1.00  0.00    -0.346 A  
ENDBRANCH  31  34
ENDBRANCH   5  31
ENDBRANCH   4   5
TORSDOF 12
ENDMDL
MODEL      121
REMARK 921   NORMALIZED FREE ENERGY PREDICTED BY IDOCK:   -5.52 KCAL/MOL
REMARK 922        TOTAL FREE ENERGY PREDICTED BY IDOCK:  -12.20 KCAL/MOL
REMARK 923 INTER-LIGAND FREE ENERGY PREDICTED BY IDOCK:   -9.66 KCAL/MOL
REMARK 924 INTRA-LIGAND FREE ENERGY PREDICTED BY IDOCK:   -2.54 KCAL/MOL
REMARK 927      BINDING AFFINITY PREDICTED BY RF-SCORE:    0.00 PKD
ROOT
HETATM    1  C   UNL     1      -6.587  10.315  69.189  1.00  0.00    -0.055 C  
HETATM    2  C   UNL     1      -6.335  10.288  67.691  1.00  0.00    -0.058 C  
HETATM    3  C   UNL     1      -5.281   9.268  67.255  1.00  0.00    -0.036 C  
HETATM    4  C   UNL     1      -7.460  10.373  66.653  1.00  0.00    -0.114 C  
ENDROOT
BRANCH   4   5
HETATM    5  N   UNL     1      -8.850   9.838  66.749  1.00  0.00    -0.137 N  
BRANCH   5   6
HETATM    6  C   UNL     1      -9.674  10.546  65.633  1.00  0.00    -0.234 C  
BRANCH   6   7
HETATM    7  C   UNL     1     -10.562  11.791  66.090  1.00  0.00    -0.260 C  
BRANCH   7   8
HETATM    8  C   UNL     1     -10.601  11.920  67.693  1.00  0.00    -0.211 C  
BRANCH   8   9
HETATM    9  N   UNL     1     -10.380  13.300  68.161  1.00  0.00    -0.238 N  
HETATM   10  C   UNL     1      -9.134  13.873  68.124  1.00  0.00    -0.193 C  
HETATM   11  H   UNL     1     -11.169  13.840  68.519  1.00  0.00     0.000 HD 
HETATM   12  O   UNL     1      -8.126  13.360  67.669  1.00  0.00    -0.148 OA 
BRANCH  10  13
HETATM   13  O   UNL     1      -9.187  15.123  68.657  1.00  0.00    -0.180 OA 
BRANCH  13  14
HETATM   14  C   UNL     1     -10.011  16.056  67.935  1.00  0.00    -0.233 C  
HETATM   15  C   UNL     1     -10.402  17.276  68.738  1.00  0.00    -0.358 C  
HETATM   16  O   UNL     1      -9.645  18.035  66.634  1.00  0.00    -0.292 OA 
HETATM   17  C   UNL     1     -10.575  18.337  67.679  1.00  0.00    -0.405 C  
HETATM   18  C   UNL     1      -9.226  16.670  66.782  1.00  0.00    -0.238 C  
ENDBRANCH  13  14
ENDBRANCH  10  13
ENDBRANCH   8   9
BRANCH   8  19
HETATM   19  C   UNL     1     -11.794  11.271  68.433  1.00  0.00    -0.331 C  
BRANCH  19  20
HETATM   20  C   UNL     1     -11.511  10.551  69.724  1.00  0.00    -0.365 A  
HETATM   21  C   UNL     1     -10.058   9.184  71.103  1.00  0.00    -0.384 A  
HETATM   22  C   UNL     1     -12.333   9.602  71.796  1.00  0.00    -0.474 A  
HETATM   23  C   UNL     1     -12.539  10.379  70.657  1.00  0.00    -0.435 A  
HETATM   24  C   UNL     1     -10.265   9.954  69.958  1.00  0.00    -0.319 A  
HETATM   25  C   UNL     1     -11.095   9.002  72.017  1.00  0.00    -0.371 A  
ENDBRANCH  19  20
ENDBRANCH   8  19
ENDBRANCH   7   8
BRANCH   7  26
HETATM   26  O   UNL     1     -11.861  11.847  65.394  1.00  0.00    -0.319 OA 
HETATM   27  O   UNL     1     -12.589  14.591  63.754  1.00  0.00    -0.825 OA 
HETATM   28  O   UNL     1     -11.557  12.594  63.226  1.00  0.00    -0.489 OA 
HETATM   29  O   UNL     1     -10.940  14.083  65.071  1.00  0.00    -0.335 OA 
HETATM   30  P   UNL     1     -12.245  13.295  64.528  1.00  0.00    -0.382 P  
ENDBRANCH   7  26
ENDBRANCH   6   7
ENDBRANCH   5   6
BRANCH   5  31
HETATM   31  S   UNL     1      -9.325   8.202  66.883  1.00  0.00    -0.187 S  
HETATM   32  O   UNL     1     -10.768   8.115  66.800  1.00  0.00    -0.278 OA 
HETATM   33  O   UNL     1      -8.666   7.644  68.047  1.00  0.00    -0.125 OA 
BRANCH  31  34
HETATM   34  C   UNL     1      -8.722   7.308  65.498  1.00  0.00    -0.024 A  
HETATM   35  N   UNL     1      -7.114   5.025  62.386  1.00  0.00    -0.030 NA 
HETATM   36  C   UNL     1      -8.028   7.951  64.475  1.00  0.00    -0.140 A  
HETATM   37  H1  UNL     1      -7.247   4.014  62.365  1.00  0.00     0.000 HD 
HETATM   38  H2  UNL     1      -6.112   5.215  62.359  1.00  0.00     0.000 HD 
HETATM   39  C   UNL     1      -8.760   5.913  65.560  1.00  0.00    -0.133 A  
HETATM   40  C   UNL     1      -8.236   5.162  64.519  1.00  0.00    -0.133 A  
HETATM   41  C   UNL     1      -7.496   7.184  63.437  1.00  0.00    -0.096 A  
HETATM   42  C   UNL     1      -7.679   5.795  63.407  1.00  0.00    -0.089 A  
ENDBRANCH  31  34
ENDBRANCH   5  31
ENDBRANCH   4   5
TORSDOF 12
ENDMDL
MODEL      122
REMARK 921   NORMALIZED FREE ENERGY PREDICTED BY IDOCK:   -5.45 KCAL/MOL
REMARK 922        TOTAL FREE ENERGY PREDICTED BY IDOCK:  -12.07 KCAL/MOL
REMARK 923 INTER-LIGAND FREE ENERGY PREDICTED BY IDOCK:   -9.33 KCAL/MOL
REMARK 924 INTRA-LIGAND FREE ENERGY PREDICTED BY IDOCK:   -2.75 KCAL/MOL
REMARK 927      BINDING AFFINITY PREDICTED BY RF-SCORE:    0.00 PKD
ROOT
HETATM    1  C   UNL     1      -6.615  11.593  66.896  1.00  0.00    -0.129 C  
HETATM    2  C   UNL     1      -7.410  12.503  67.818  1.00  0.00    -0.124 C  
HETATM    3  C   UNL     1      -7.082  13.989  67.661  1.00  0.00    -0.193 C  
HETATM    4  C   UNL     1      -8.906  12.310  68.093  1.00  0.00    -0.187 C  
ENDROOT
BRANCH   4   5
HETATM    5  N   UNL     1      -9.959  11.799  67.168  1.00  0.00    -0.202 N  
BRANCH   5   6
HETATM    6  C   UNL     1     -10.865  10.851  68.010  1.00  0.00    -0.245 C  
BRANCH   6   7
HETATM    7  C   UNL     1     -10.412   9.322  68.084  1.00  0.00    -0.215 C  
BRANCH   7   8
HETATM    8  C   UNL     1     -10.781   8.674  69.509  1.00  0.00    -0.182 C  
BRANCH   8   9
HETATM    9  N   UNL     1     -10.397   7.254  69.609  1.00  0.00    -0.215 N  
HETATM   10  C   UNL     1     -11.256   6.321  70.132  1.00  0.00    -0.403 C  
HETATM   11  H   UNL     1      -9.476   6.960  69.282  1.00  0.00     0.000 HD 
HETATM   12  O   UNL     1     -12.399   6.530  70.501  1.00  0.00    -0.259 OA 
BRANCH  10  13
HETATM   13  O   UNL     1     -10.649   5.103  70.161  1.00  0.00    -0.272 OA 
BRANCH  13  14
HETATM   14  C   UNL     1      -9.358   5.084  70.798  1.00  0.00    -0.154 C  
HETATM   15  C   UNL     1      -9.365   4.455  72.173  1.00  0.00    -0.174 C  
HETATM   16  O   UNL     1      -7.550   3.523  70.984  1.00  0.00    -0.045 OA 
HETATM   17  C   UNL     1      -7.965   3.905  72.300  1.00  0.00    -0.080 C  
HETATM   18  C   UNL     1      -8.407   4.171  70.032  1.00  0.00    -0.061 C  
ENDBRANCH  13  14
ENDBRANCH  10  13
ENDBRANCH   8   9
BRANCH   8  19
HETATM   19  C   UNL     1     -10.356   9.450  70.778  1.00  0.00    -0.366 C  
BRANCH  19  20
HETATM   20  C   UNL     1      -9.460   8.747  71.762  1.00  0.00    -0.363 A  
HETATM   21  C   UNL     1      -9.125   7.639  73.894  1.00  0.00    -0.316 A  
HETATM   22  C   UNL     1      -7.221   8.230  72.530  1.00  0.00    -0.130 A  
HETATM   23  C   UNL     1      -8.075   8.759  71.564  1.00  0.00    -0.174 A  
HETATM   24  C   UNL     1      -9.981   8.176  72.932  1.00  0.00    -0.336 A  
HETATM   25  C   UNL     1      -7.745   7.674  73.695  1.00  0.00    -0.164 A  
ENDBRANCH  19  20
ENDBRANCH   8  19
ENDBRANCH   7   8
BRANCH   7  26
HETATM   26  O   UNL     1      -9.031   9.117  67.607  1.00  0.00    -0.123 OA 
HETATM   27  O   UNL     1      -8.525   6.754  65.391  1.00  0.00    -0.145 OA 
HETATM   28  O   UNL     1      -9.009   9.008  65.296  1.00  0.00    -0.196 OA 
HETATM   29  O   UNL     1     -10.284   7.320  66.532  1.00  0.00    -0.183 OA 
HETATM   30  P   UNL     1      -8.764   7.870  66.437  1.00  0.00    -0.167 P  
ENDBRANCH   7  26
ENDBRANCH   6   7
ENDBRANCH   5   6
BRANCH   5  31
HETATM   31  S   UNL     1     -10.912  12.707  66.078  1.00  0.00    -0.292 S  
HETATM   32  O   UNL     1     -12.298  12.308  66.209  1.00  0.00    -0.556 OA 
HETATM   33  O   UNL     1     -10.290  12.623  64.772  1.00  0.00    -0.299 OA 
BRANCH  31  34
HETATM   34  C   UNL     1     -10.867  14.400  66.539  1.00  0.00    -0.310 A  
HETATM   35  N   UNL     1     -10.464  18.415  67.635  1.00  0.00    -0.407 NA 
HETATM   36  C   UNL     1     -11.401  14.827  67.754  1.00  0.00    -0.344 A  
HETATM   37  H1  UNL     1     -10.001  19.076  67.012  1.00  0.00     0.000 HD 
HETATM   38  H2  UNL     1      -9.984  18.435  68.535  1.00  0.00     0.000 HD 
HETATM   39  C   UNL     1     -10.087  15.262  65.766  1.00  0.00    -0.384 A  
HETATM   40  C   UNL     1      -9.968  16.595  66.128  1.00  0.00    -0.356 A  
HETATM   41  C   UNL     1     -11.266  16.170  68.113  1.00  0.00    -0.311 A  
HETATM   42  C   UNL     1     -10.631  17.079  67.257  1.00  0.00    -0.267 A  
ENDBRANCH  31  34
ENDBRANCH   5  31
ENDBRANCH   4   5
TORSDOF 12
ENDMDL
MODEL      123
REMARK 921   NORMALIZED FREE ENERGY PREDICTED BY IDOCK:   -5.44 KCAL/MOL
REMARK 922        TOTAL FREE ENERGY PREDICTED BY IDOCK:  -12.06 KCAL/MOL
REMARK 923 INTER-LIGAND FREE ENERGY PREDICTED BY IDOCK:   -9.46 KCAL/MOL
REMARK 924 INTRA-LIGAND FREE ENERGY PREDICTED BY IDOCK:   -2.60 KCAL/MOL
REMARK 927      BINDING AFFINITY PREDICTED BY RF-SCORE:    0.00 PKD
ROOT
HETATM    1  C   UNL     1      -6.588   9.177  65.640  1.00  0.00    -0.068 C  
HETATM    2  C   UNL     1      -7.963   9.138  64.995  1.00  0.00    -0.120 C  
HETATM    3  C   UNL     1      -7.967   8.584  63.568  1.00  0.00    -0.161 C  
HETATM    4  C   UNL     1      -9.225   8.696  65.744  1.00  0.00    -0.181 C  
ENDROOT
BRANCH   4   5
HETATM    5  N   UNL     1      -9.351   7.667  66.818  1.00  0.00    -0.163 N  
BRANCH   5   6
HETATM    6  C   UNL     1     -10.466   8.169  67.783  1.00  0.00    -0.214 C  
BRANCH   6   7
HETATM    7  C   UNL     1     -10.028   9.260  68.864  1.00  0.00    -0.181 C  
BRANCH   7   8
HETATM    8  C   UNL     1     -10.638  10.706  68.512  1.00  0.00    -0.200 C  
BRANCH   8   9
HETATM    9  N   UNL     1     -11.012  11.476  69.711  1.00  0.00    -0.461 N  
HETATM   10  C   UNL     1     -12.287  11.429  70.216  1.00  0.00    -0.297 C  
HETATM   11  H   UNL     1     -10.311  12.054  70.174  1.00  0.00     0.000 HD 
HETATM   12  O   UNL     1     -13.198  10.736  69.795  1.00  0.00    -0.001 OA 
BRANCH  10  13
HETATM   13  O   UNL     1     -12.387  12.263  71.287  1.00  0.00    -0.247 OA 
BRANCH  13  14
HETATM   14  C   UNL     1     -13.017  13.527  71.014  1.00  0.00    -0.202 C  
HETATM   15  C   UNL     1     -14.121  13.883  71.984  1.00  0.00    -0.568 C  
HETATM   16  O   UNL     1     -12.744  15.788  71.760  1.00  0.00    -0.426 OA 
HETATM   17  C   UNL     1     -14.102  15.392  71.980  1.00  0.00    -0.549 C  
HETATM   18  C   UNL     1     -12.026  14.666  71.226  1.00  0.00    -0.343 C  
ENDBRANCH  13  14
ENDBRANCH  10  13
ENDBRANCH   8   9
BRANCH   8  19
HETATM   19  C   UNL     1      -9.853  11.588  67.513  1.00  0.00    -0.203 C  
BRANCH  19  20
HETATM   20  C   UNL     1     -10.619  12.214  66.378  1.00  0.00    -0.275 A  
HETATM   21  C   UNL     1     -12.622  13.277  65.516  1.00  0.00    -0.505 A  
HETATM   22  C   UNL     1     -10.891  12.556  63.995  1.00  0.00    -0.446 A  
HETATM   23  C   UNL     1     -10.132  12.100  65.071  1.00  0.00    -0.289 A  
HETATM   24  C   UNL     1     -11.868  12.813  66.595  1.00  0.00    -0.462 A  
HETATM   25  C   UNL     1     -12.136  13.141  64.217  1.00  0.00    -0.477 A  
ENDBRANCH  19  20
ENDBRANCH   8  19
ENDBRANCH   7   8
BRANCH   7  26
HETATM   26  O   UNL     1      -8.585   9.211  69.164  1.00  0.00    -0.128 OA 
HETATM   27  O   UNL     1      -7.698   8.806  72.294  1.00  0.00    -0.332 OA 
HETATM   28  O   UNL     1      -8.128   7.393  70.521  1.00  0.00    -0.102 OA 
HETATM   29  O   UNL     1      -9.634   9.132  71.366  1.00  0.00    -0.286 OA 
HETATM   30  P   UNL     1      -8.117   8.997  70.816  1.00  0.00    -0.160 P  
ENDBRANCH   7  26
ENDBRANCH   6   7
ENDBRANCH   5   6
BRANCH   5  31
HETATM   31  S   UNL     1      -9.461   5.973  66.623  1.00  0.00    -0.151 S  
HETATM   32  O   UNL     1      -8.468   5.537  65.664  1.00  0.00    -0.129 OA 
HETATM   33  O   UNL     1     -10.851   5.645  66.374  1.00  0.00    -0.253 OA 
BRANCH  31  34
HETATM   34  C   UNL     1      -9.031   5.186  68.132  1.00  0.00    -0.110 A  
HETATM   35  N   UNL     1      -7.938   3.068  71.568  1.00  0.00    -0.055 NA 
HETATM   36  C   UNL     1      -9.986   4.964  69.123  1.00  0.00    -0.252 A  
HETATM   37  H1  UNL     1      -6.980   2.738  71.688  1.00  0.00     0.000 HD 
HETATM   38  H2  UNL     1      -8.563   2.266  71.639  1.00  0.00     0.000 HD 
HETATM   39  C   UNL     1      -7.771   4.590  68.217  1.00  0.00    -0.080 A  
HETATM   40  C   UNL     1      -7.410   3.900  69.364  1.00  0.00    -0.053 A  
HETATM   41  C   UNL     1      -9.614   4.260  70.270  1.00  0.00    -0.269 A  
HETATM   42  C   UNL     1      -8.298   3.806  70.436  1.00  0.00    -0.057 A  
ENDBRANCH  31  34
ENDBRANCH   5  31
ENDBRANCH   4   5
TORSDOF 12
ENDMDL
MODEL      124
REMARK 921   NORMALIZED FREE ENERGY PREDICTED BY IDOCK:   -5.43 KCAL/MOL
REMARK 922        TOTAL FREE ENERGY PREDICTED BY IDOCK:  -12.05 KCAL/MOL
REMARK 923 INTER-LIGAND FREE ENERGY PREDICTED BY IDOCK:   -9.15 KCAL/MOL
REMARK 924 INTRA-LIGAND FREE ENERGY PREDICTED BY IDOCK:   -2.90 KCAL/MOL
REMARK 927      BINDING AFFINITY PREDICTED BY RF-SCORE:    0.00 PKD
ROOT
HETATM    1  C   UNL     1     -11.158   6.387  67.078  1.00  0.00    -0.405 C  
HETATM    2  C   UNL     1      -9.924   5.507  66.962  1.00  0.00    -0.198 C  
HETATM    3  C   UNL     1      -9.765   4.833  65.597  1.00  0.00    -0.188 C  
HETATM    4  C   UNL     1      -8.556   5.910  67.523  1.00  0.00    -0.102 C  
ENDROOT
BRANCH   4   5
HETATM    5  N   UNL     1      -7.962   7.275  67.623  1.00  0.00    -0.113 N  
BRANCH   5   6
HETATM    6  C   UNL     1      -7.544   7.469  69.111  1.00  0.00    -0.100 C  
BRANCH   6   7
HETATM    7  C   UNL     1      -8.683   7.226  70.203  1.00  0.00    -0.140 C  
BRANCH   7   8
HETATM    8  C   UNL     1      -9.374   8.611  70.641  1.00  0.00    -0.185 C  
BRANCH   8   9
HETATM    9  N   UNL     1     -10.184   9.211  69.567  1.00  0.00    -0.196 N  
HETATM   10  C   UNL     1      -9.787  10.363  68.936  1.00  0.00    -0.200 C  
HETATM   11  H   UNL     1     -11.056   8.762  69.287  1.00  0.00     0.000 HD 
HETATM   12  O   UNL     1      -8.744  10.963  69.135  1.00  0.00    -0.137 OA 
BRANCH  10  13
HETATM   13  O   UNL     1     -10.728  10.736  68.027  1.00  0.00    -0.194 OA 
BRANCH  13  14
HETATM   14  C   UNL     1     -10.749  12.142  67.718  1.00  0.00    -0.209 C  
HETATM   15  C   UNL     1     -11.335  12.461  66.361  1.00  0.00    -0.392 C  
HETATM   16  O   UNL     1     -12.332  13.929  67.919  1.00  0.00    -0.245 OA 
HETATM   17  C   UNL     1     -11.903  13.846  66.556  1.00  0.00    -0.414 C  
HETATM   18  C   UNL     1     -11.700  12.873  68.658  1.00  0.00    -0.324 C  
ENDBRANCH  13  14
ENDBRANCH  10  13
ENDBRANCH   8   9
BRANCH   8  19
HETATM   19  C   UNL     1     -10.137   8.634  71.986  1.00  0.00    -0.401 C  
BRANCH  19  20
HETATM   20  C   UNL     1     -11.633   8.468  71.946  1.00  0.00    -0.410 A  
HETATM   21  C   UNL     1     -13.596   7.071  71.662  1.00  0.00    -0.346 A  
HETATM   22  C   UNL     1     -13.828   9.474  71.748  1.00  0.00    -0.313 A  
HETATM   23  C   UNL     1     -12.451   9.603  71.919  1.00  0.00    -0.459 A  
HETATM   24  C   UNL     1     -12.216   7.199  71.824  1.00  0.00    -0.379 A  
HETATM   25  C   UNL     1     -14.399   8.209  71.616  1.00  0.00    -0.570 A  
ENDBRANCH  19  20
ENDBRANCH   8  19
ENDBRANCH   7   8
BRANCH   7  26
HETATM   26  O   UNL     1      -8.242   6.337  71.294  1.00  0.00    -0.119 OA 
HETATM   27  O   UNL     1      -9.879   3.529  71.723  1.00  0.00    -0.160 OA 
HETATM   28  O   UNL     1      -8.028   4.173  70.504  1.00  0.00    -0.054 OA 
HETATM   29  O   UNL     1     -10.236   5.232  70.424  1.00  0.00    -0.231 OA 
HETATM   30  P   UNL     1      -9.106   4.855  71.520  1.00  0.00    -0.146 P  
ENDBRANCH   7  26
ENDBRANCH   6   7
ENDBRANCH   5   6
BRANCH   5  31
HETATM   31  S   UNL     1      -6.796   7.977  66.589  1.00  0.00    -0.069 S  
HETATM   32  O   UNL     1      -6.153   6.934  65.817  1.00  0.00    -0.034 OA 
HETATM   33  O   UNL     1      -5.965   8.854  67.390  1.00  0.00    -0.046 OA 
BRANCH  31  34
HETATM   34  C   UNL     1      -7.603   8.999  65.412  1.00  0.00    -0.090 A  
HETATM   35  N   UNL     1      -9.719  11.212  62.565  1.00  0.00    -0.595 NA 
HETATM   36  C   UNL     1      -6.948   9.413  64.253  1.00  0.00    -0.102 A  
HETATM   37  H1  UNL     1     -10.694  11.464  62.727  1.00  0.00     0.000 HD 
HETATM   38  H2  UNL     1      -9.664  10.701  61.684  1.00  0.00     0.000 HD 
HETATM   39  C   UNL     1      -8.978   9.195  65.558  1.00  0.00    -0.252 A  
HETATM   40  C   UNL     1      -9.671   9.941  64.617  1.00  0.00    -0.265 A  
HETATM   41  C   UNL     1      -7.659  10.155  63.308  1.00  0.00    -0.143 A  
HETATM   42  C   UNL     1      -8.999  10.501  63.530  1.00  0.00    -0.221 A  
ENDBRANCH  31  34
ENDBRANCH   5  31
ENDBRANCH   4   5
TORSDOF 12
ENDMDL
MODEL      125
REMARK 921   NORMALIZED FREE ENERGY PREDICTED BY IDOCK:   -5.43 KCAL/MOL
REMARK 922        TOTAL FREE ENERGY PREDICTED BY IDOCK:  -12.04 KCAL/MOL
REMARK 923 INTER-LIGAND FREE ENERGY PREDICTED BY IDOCK:   -9.73 KCAL/MOL
REMARK 924 INTRA-LIGAND FREE ENERGY PREDICTED BY IDOCK:   -2.31 KCAL/MOL
REMARK 927      BINDING AFFINITY PREDICTED BY RF-SCORE:    0.00 PKD
ROOT
HETATM    1  C   UNL     1     -12.267  13.571  67.907  1.00  0.00    -0.168 C  
HETATM    2  C   UNL     1     -11.294  13.218  69.020  1.00  0.00    -0.334 C  
HETATM    3  C   UNL     1     -11.969  12.851  70.344  1.00  0.00    -0.329 C  
HETATM    4  C   UNL     1     -10.048  12.355  68.797  1.00  0.00    -0.055 C  
ENDROOT
BRANCH   4   5
HETATM    5  N   UNL     1      -9.866  11.218  67.848  1.00  0.00    -0.172 N  
BRANCH   5   6
HETATM    6  C   UNL     1     -10.964  10.169  68.198  1.00  0.00    -0.259 C  
BRANCH   6   7
HETATM    7  C   UNL     1     -10.452   8.793  68.825  1.00  0.00    -0.191 C  
BRANCH   7   8
HETATM    8  C   UNL     1      -9.710   9.035  70.232  1.00  0.00    -0.196 C  
BRANCH   8   9
HETATM    9  N   UNL     1     -10.274   8.222  71.324  1.00  0.00    -0.195 N  
HETATM   10  C   UNL     1     -11.371   8.644  72.030  1.00  0.00    -0.362 C  
HETATM   11  H   UNL     1      -9.840   7.329  71.557  1.00  0.00     0.000 HD 
HETATM   12  O   UNL     1     -12.014   9.657  71.814  1.00  0.00    -0.381 OA 
BRANCH  10  13
HETATM   13  O   UNL     1     -11.659   7.746  73.011  1.00  0.00    -0.330 OA 
BRANCH  13  14
HETATM   14  C   UNL     1     -10.766   6.620  73.084  1.00  0.00    -0.278 C  
HETATM   15  C   UNL     1     -10.115   6.442  74.437  1.00  0.00    -0.367 C  
HETATM   16  O   UNL     1     -10.929   4.329  73.768  1.00  0.00    -0.254 OA 
HETATM   17  C   UNL     1      -9.871   4.954  74.502  1.00  0.00    -0.189 C  
HETATM   18  C   UNL     1     -11.545   5.318  72.930  1.00  0.00    -0.219 C  
ENDBRANCH  13  14
ENDBRANCH  10  13
ENDBRANCH   8   9
BRANCH   8  19
HETATM   19  C   UNL     1      -8.164   8.977  70.242  1.00  0.00    -0.150 C  
BRANCH  19  20
HETATM   20  C   UNL     1      -7.507   7.972  71.149  1.00  0.00    -0.070 A  
HETATM   21  C   UNL     1      -6.971   5.675  71.719  1.00  0.00    -0.076 A  
HETATM   22  C   UNL     1      -6.532   7.444  73.304  1.00  0.00    -0.064 A  
HETATM   23  C   UNL     1      -7.022   8.382  72.397  1.00  0.00    -0.108 A  
HETATM   24  C   UNL     1      -7.471   6.612  70.813  1.00  0.00    -0.087 A  
HETATM   25  C   UNL     1      -6.509   6.092  72.966  1.00  0.00    -0.064 A  
ENDBRANCH  19  20
ENDBRANCH   8  19
ENDBRANCH   7   8
BRANCH   7  26
HETATM   26  O   UNL     1      -9.742   7.953  67.843  1.00  0.00    -0.147 OA 
HETATM   27  O   UNL     1     -10.393   4.739  67.841  1.00  0.00    -0.054 OA 
HETATM   28  O   UNL     1     -11.250   6.583  66.748  1.00  0.00    -0.334 OA 
HETATM   29  O   UNL     1     -11.002   6.342  69.174  1.00  0.00    -0.306 OA 
HETATM   30  P   UNL     1     -10.086   6.257  67.842  1.00  0.00    -0.186 P  
ENDBRANCH   7  26
ENDBRANCH   6   7
ENDBRANCH   5   6
BRANCH   5  31
HETATM   31  S   UNL     1      -9.656  11.305  66.155  1.00  0.00    -0.222 S  
HETATM   32  O   UNL     1     -10.393  10.230  65.525  1.00  0.00    -0.258 OA 
HETATM   33  O   UNL     1      -8.235  11.415  65.890  1.00  0.00    -0.063 OA 
BRANCH  31  34
HETATM   34  C   UNL     1     -10.385  12.785  65.554  1.00  0.00    -0.284 A  
HETATM   35  N   UNL     1     -12.104  16.195  63.849  1.00  0.00    -1.261 NA 
HETATM   36  C   UNL     1      -9.741  14.013  65.700  1.00  0.00    -0.181 A  
HETATM   37  H1  UNL     1     -12.992  16.132  63.352  1.00  0.00     0.000 HD 
HETATM   38  H2  UNL     1     -11.412  16.597  63.216  1.00  0.00     0.000 HD 
HETATM   39  C   UNL     1     -11.508  12.668  64.733  1.00  0.00    -0.364 A  
HETATM   40  C   UNL     1     -12.081  13.803  64.181  1.00  0.00    -0.478 A  
HETATM   41  C   UNL     1     -10.322  15.149  65.132  1.00  0.00    -0.416 A  
HETATM   42  C   UNL     1     -11.543  15.063  64.450  1.00  0.00    -0.276 A  
ENDBRANCH  31  34
ENDBRANCH   5  31
ENDBRANCH   4   5
TORSDOF 12
ENDMDL
MODEL      126
REMARK 921   NORMALIZED FREE ENERGY PREDICTED BY IDOCK:   -5.41 KCAL/MOL
REMARK 922        TOTAL FREE ENERGY PREDICTED BY IDOCK:  -12.01 KCAL/MOL
REMARK 923 INTER-LIGAND FREE ENERGY PREDICTED BY IDOCK:   -9.64 KCAL/MOL
REMARK 924 INTRA-LIGAND FREE ENERGY PREDICTED BY IDOCK:   -2.37 KCAL/MOL
REMARK 927      BINDING AFFINITY PREDICTED BY RF-SCORE:    0.00 PKD
ROOT
HETATM    1  C   UNL     1      -6.290  11.067  66.808  1.00  0.00    -0.114 C  
HETATM    2  C   UNL     1      -6.849  11.787  68.024  1.00  0.00    -0.074 C  
HETATM    3  C   UNL     1      -6.418  13.251  68.135  1.00  0.00    -0.112 C  
HETATM    4  C   UNL     1      -8.295  11.616  68.504  1.00  0.00    -0.140 C  
ENDROOT
BRANCH   4   5
HETATM    5  N   UNL     1      -9.520  11.381  67.685  1.00  0.00    -0.160 N  
BRANCH   5   6
HETATM    6  C   UNL     1      -9.737   9.839  67.645  1.00  0.00    -0.156 C  
BRANCH   6   7
HETATM    7  C   UNL     1      -9.649   9.076  69.045  1.00  0.00    -0.160 C  
BRANCH   7   8
HETATM    8  C   UNL     1      -8.369   8.103  69.097  1.00  0.00    -0.131 C  
BRANCH   8   9
HETATM    9  N   UNL     1      -8.468   7.085  70.158  1.00  0.00    -0.138 N  
HETATM   10  C   UNL     1      -7.393   6.781  70.954  1.00  0.00    -0.082 C  
HETATM   11  H   UNL     1      -9.352   6.597  70.303  1.00  0.00     0.000 HD 
HETATM   12  O   UNL     1      -6.303   7.329  70.922  1.00  0.00    -0.036 OA 
BRANCH  10  13
HETATM   13  O   UNL     1      -7.725   5.780  71.813  1.00  0.00    -0.098 OA 
BRANCH  13  14
HETATM   14  C   UNL     1      -8.919   6.012  72.582  1.00  0.00    -0.127 C  
HETATM   15  C   UNL     1     -10.095   5.161  72.159  1.00  0.00    -0.247 C  
HETATM   16  O   UNL     1      -9.946   5.030  74.512  1.00  0.00    -0.177 OA 
HETATM   17  C   UNL     1     -10.889   5.022  73.435  1.00  0.00    -0.299 C  
HETATM   18  C   UNL     1      -8.709   5.572  74.027  1.00  0.00    -0.120 C  
ENDBRANCH  13  14
ENDBRANCH  10  13
ENDBRANCH   8   9
BRANCH   8  19
HETATM   19  C   UNL     1      -7.899   7.469  67.767  1.00  0.00    -0.117 C  
BRANCH  19  20
HETATM   20  C   UNL     1      -8.583   6.208  67.311  1.00  0.00    -0.103 A  
HETATM   21  C   UNL     1      -8.515   3.838  66.796  1.00  0.00    -0.105 A  
HETATM   22  C   UNL     1     -10.457   5.146  66.203  1.00  0.00    -0.301 A  
HETATM   23  C   UNL     1      -9.863   6.281  66.751  1.00  0.00    -0.208 A  
HETATM   24  C   UNL     1      -7.915   4.976  67.337  1.00  0.00    -0.096 A  
HETATM   25  C   UNL     1      -9.783   3.927  66.223  1.00  0.00    -0.176 A  
ENDBRANCH  19  20
ENDBRANCH   8  19
ENDBRANCH   7   8
BRANCH   7  26
HETATM   26  O   UNL     1     -10.939   8.488  69.451  1.00  0.00    -0.147 OA 
HETATM   27  O   UNL     1     -11.853   8.845  72.579  1.00  0.00    -0.291 OA 
HETATM   28  O   UNL     1     -12.173  10.046  70.634  1.00  0.00    -0.281 OA 
HETATM   29  O   UNL     1     -10.010   9.337  71.542  1.00  0.00    -0.307 OA 
HETATM   30  P   UNL     1     -11.421   8.677  71.102  1.00  0.00    -0.303 P  
ENDBRANCH   7  26
ENDBRANCH   6   7
ENDBRANCH   5   6
BRANCH   5  31
HETATM   31  S   UNL     1     -11.023  12.183  67.815  1.00  0.00    -0.249 S  
HETATM   32  O   UNL     1     -11.077  12.896  69.075  1.00  0.00    -0.251 OA 
HETATM   33  O   UNL     1     -12.066  11.220  67.523  1.00  0.00    -0.530 OA 
BRANCH  31  34
HETATM   34  C   UNL     1     -11.131  13.420  66.574  1.00  0.00    -0.297 A  
HETATM   35  N   UNL     1     -11.394  16.568  63.835  1.00  0.00    -1.559 NA 
HETATM   36  C   UNL     1     -12.229  13.482  65.717  1.00  0.00    -0.505 A  
HETATM   37  H1  UNL     1     -10.654  17.268  63.780  1.00  0.00     0.000 HD 
HETATM   38  H2  UNL     1     -12.276  17.049  64.012  1.00  0.00     0.000 HD 
HETATM   39  C   UNL     1     -10.207  14.466  66.618  1.00  0.00    -0.277 A  
HETATM   40  C   UNL     1     -10.292  15.500  65.699  1.00  0.00    -0.407 A  
HETATM   41  C   UNL     1     -12.309  14.533  64.802  1.00  0.00    -0.403 A  
HETATM   42  C   UNL     1     -11.293  15.495  64.726  1.00  0.00    -0.357 A  
ENDBRANCH  31  34
ENDBRANCH   5  31
ENDBRANCH   4   5
TORSDOF 12
ENDMDL
MODEL      127
REMARK 921   NORMALIZED FREE ENERGY PREDICTED BY IDOCK:   -5.40 KCAL/MOL
REMARK 922        TOTAL FREE ENERGY PREDICTED BY IDOCK:  -11.99 KCAL/MOL
REMARK 923 INTER-LIGAND FREE ENERGY PREDICTED BY IDOCK:   -9.33 KCAL/MOL
REMARK 924 INTRA-LIGAND FREE ENERGY PREDICTED BY IDOCK:   -2.67 KCAL/MOL
REMARK 927      BINDING AFFINITY PREDICTED BY RF-SCORE:    0.00 PKD
ROOT
HETATM    1  C   UNL     1      -8.782   7.440  74.239  1.00  0.00    -0.264 C  
HETATM    2  C   UNL     1      -8.315   6.251  73.415  1.00  0.00    -0.114 C  
HETATM    3  C   UNL     1      -8.735   4.894  73.984  1.00  0.00    -0.111 C  
HETATM    4  C   UNL     1      -8.363   6.227  71.883  1.00  0.00    -0.117 C  
ENDROOT
BRANCH   4   5
HETATM    5  N   UNL     1      -9.363   6.865  70.978  1.00  0.00    -0.156 N  
BRANCH   5   6
HETATM    6  C   UNL     1      -8.823   6.691  69.527  1.00  0.00    -0.139 C  
BRANCH   6   7
HETATM    7  C   UNL     1      -8.306   8.016  68.801  1.00  0.00    -0.127 C  
BRANCH   7   8
HETATM    8  C   UNL     1      -8.608   7.970  67.222  1.00  0.00    -0.124 C  
BRANCH   8   9
HETATM    9  N   UNL     1      -8.647   9.309  66.608  1.00  0.00    -0.126 N  
HETATM   10  C   UNL     1      -9.790  10.068  66.631  1.00  0.00    -0.203 C  
HETATM   11  H   UNL     1      -7.810   9.678  66.157  1.00  0.00     0.000 HD 
HETATM   12  O   UNL     1     -10.835   9.770  67.185  1.00  0.00    -0.235 OA 
BRANCH  10  13
HETATM   13  O   UNL     1      -9.582  11.231  65.956  1.00  0.00    -0.203 OA 
BRANCH  13  14
HETATM   14  C   UNL     1     -10.775  11.871  65.468  1.00  0.00    -0.283 C  
HETATM   15  C   UNL     1     -10.805  13.365  65.696  1.00  0.00    -0.292 C  
HETATM   16  O   UNL     1     -11.434  12.986  63.452  1.00  0.00    -0.425 OA 
HETATM   17  C   UNL     1     -11.663  13.863  64.559  1.00  0.00    -0.410 C  
HETATM   18  C   UNL     1     -10.839  11.777  63.948  1.00  0.00    -0.404 C  
ENDBRANCH  13  14
ENDBRANCH  10  13
ENDBRANCH   8   9
BRANCH   8  19
HETATM   19  C   UNL     1      -7.770   6.993  66.363  1.00  0.00    -0.104 C  
BRANCH  19  20
HETATM   20  C   UNL     1      -8.510   5.995  65.514  1.00  0.00    -0.151 A  
HETATM   21  C   UNL     1     -10.200   4.272  65.270  1.00  0.00    -0.234 A  
HETATM   22  C   UNL     1      -8.625   4.677  63.484  1.00  0.00    -0.131 A  
HETATM   23  C   UNL     1      -8.034   5.693  64.233  1.00  0.00    -0.125 A  
HETATM   24  C   UNL     1      -9.603   5.282  66.025  1.00  0.00    -0.166 A  
HETATM   25  C   UNL     1      -9.705   3.965  64.003  1.00  0.00    -0.167 A  
ENDBRANCH  19  20
ENDBRANCH   8  19
ENDBRANCH   7   8
BRANCH   7  26
HETATM   26  O   UNL     1      -6.933   8.380  69.198  1.00  0.00    -0.057 OA 
HETATM   27  O   UNL     1      -6.449  11.389  70.407  1.00  0.00    -0.253 OA 
HETATM   28  O   UNL     1      -6.952   9.325  71.309  1.00  0.00    -0.210 OA 
HETATM   29  O   UNL     1      -8.191  10.447  69.518  1.00  0.00    -0.164 OA 
HETATM   30  P   UNL     1      -6.678   9.968  69.836  1.00  0.00    -0.133 P  
ENDBRANCH   7  26
ENDBRANCH   6   7
ENDBRANCH   5   6
BRANCH   5  31
HETATM   31  S   UNL     1     -11.060   6.663  71.001  1.00  0.00    -0.299 S  
HETATM   32  O   UNL     1     -11.428   5.847  72.139  1.00  0.00    -0.291 OA 
HETATM   33  O   UNL     1     -11.472   6.232  69.680  1.00  0.00    -0.432 OA 
BRANCH  31  34
HETATM   34  C   UNL     1     -11.826   8.218  71.274  1.00  0.00    -0.288 A  
HETATM   35  N   UNL     1     -13.404  12.009  72.066  1.00  0.00    -0.454 NA 
HETATM   36  C   UNL     1     -12.980   8.323  72.050  1.00  0.00    -0.355 A  
HETATM   37  H1  UNL     1     -12.963  12.843  71.679  1.00  0.00     0.000 HD 
HETATM   38  H2  UNL     1     -13.446  12.113  73.080  1.00  0.00     0.000 HD 
HETATM   39  C   UNL     1     -11.127   9.364  70.887  1.00  0.00    -0.389 A  
HETATM   40  C   UNL     1     -11.662  10.617  71.141  1.00  0.00    -0.248 A  
HETATM   41  C   UNL     1     -13.504   9.592  72.308  1.00  0.00    -0.521 A  
HETATM   42  C   UNL     1     -12.899  10.738  71.776  1.00  0.00    -0.423 A  
ENDBRANCH  31  34
ENDBRANCH   5  31
ENDBRANCH   4   5
TORSDOF 12
ENDMDL
MODEL      128
REMARK 921   NORMALIZED FREE ENERGY PREDICTED BY IDOCK:   -5.40 KCAL/MOL
REMARK 922        TOTAL FREE ENERGY PREDICTED BY IDOCK:  -11.99 KCAL/MOL
REMARK 923 INTER-LIGAND FREE ENERGY PREDICTED BY IDOCK:   -9.55 KCAL/MOL
REMARK 924 INTRA-LIGAND FREE ENERGY PREDICTED BY IDOCK:   -2.44 KCAL/MOL
REMARK 927      BINDING AFFINITY PREDICTED BY RF-SCORE:    0.00 PKD
ROOT
HETATM    1  C   UNL     1      -9.399  15.247  69.510  1.00  0.00    -0.198 C  
HETATM    2  C   UNL     1     -10.825  14.726  69.593  1.00  0.00    -0.247 C  
HETATM    3  C   UNL     1     -11.889  15.826  69.631  1.00  0.00    -0.352 C  
HETATM    4  C   UNL     1     -11.323  13.526  68.781  1.00  0.00    -0.290 C  
ENDROOT
BRANCH   4   5
HETATM    5  N   UNL     1     -10.910  13.098  67.412  1.00  0.00    -0.253 N  
BRANCH   5   6
HETATM    6  C   UNL     1     -11.437  11.644  67.224  1.00  0.00    -0.277 C  
BRANCH   6   7
HETATM    7  C   UNL     1     -10.342  10.483  67.278  1.00  0.00    -0.228 C  
BRANCH   7   8
HETATM    8  C   UNL     1      -9.967  10.106  68.796  1.00  0.00    -0.179 C  
BRANCH   8   9
HETATM    9  N   UNL     1      -8.822  10.878  69.311  1.00  0.00    -0.378 N  
HETATM   10  C   UNL     1      -7.732  10.251  69.859  1.00  0.00    -0.126 C  
HETATM   11  H   UNL     1      -8.841  11.896  69.258  1.00  0.00     0.000 HD 
HETATM   12  O   UNL     1      -7.560   9.046  69.929  1.00  0.00    -0.058 OA 
BRANCH  10  13
HETATM   13  O   UNL     1      -6.844  11.181  70.304  1.00  0.00    -0.187 OA 
BRANCH  13  14
HETATM   14  C   UNL     1      -5.956  11.702  69.299  1.00  0.00    -0.071 C  
HETATM   15  C   UNL     1      -6.004  10.947  67.990  1.00  0.00    -0.049 C  
HETATM   16  O   UNL     1      -6.130  13.249  67.477  1.00  0.00    -0.232 OA 
HETATM   17  C   UNL     1      -5.634  12.003  66.977  1.00  0.00    -0.112 C  
HETATM   18  C   UNL     1      -6.397  13.100  68.879  1.00  0.00    -0.093 C  
ENDBRANCH  13  14
ENDBRANCH  10  13
ENDBRANCH   8   9
BRANCH   8  19
HETATM   19  C   UNL     1     -11.118  10.072  69.828  1.00  0.00    -0.319 C  
BRANCH  19  20
HETATM   20  C   UNL     1     -11.343   8.791  70.586  1.00  0.00    -0.289 A  
HETATM   21  C   UNL     1     -11.855   7.621  72.648  1.00  0.00    -0.269 A  
HETATM   22  C   UNL     1     -11.089   6.386  70.720  1.00  0.00    -0.365 A  
HETATM   23  C   UNL     1     -11.013   7.570  69.989  1.00  0.00    -0.252 A  
HETATM   24  C   UNL     1     -11.772   8.809  71.921  1.00  0.00    -0.429 A  
HETATM   25  C   UNL     1     -11.506   6.412  72.049  1.00  0.00    -0.350 A  
ENDBRANCH  19  20
ENDBRANCH   8  19
ENDBRANCH   7   8
BRANCH   7  26
HETATM   26  O   UNL     1      -9.211  10.730  66.363  1.00  0.00    -0.163 OA 
HETATM   27  O   UNL     1      -8.283   8.275  64.398  1.00  0.00    -0.165 OA 
HETATM   28  O   UNL     1      -9.765  10.036  64.227  1.00  0.00    -0.296 OA 
HETATM   29  O   UNL     1      -9.723   8.368  66.022  1.00  0.00    -0.195 OA 
HETATM   30  P   UNL     1      -8.722   9.434  65.326  1.00  0.00    -0.198 P  
ENDBRANCH   7  26
ENDBRANCH   6   7
ENDBRANCH   5   6
BRANCH   5  31
HETATM   31  S   UNL     1     -11.079  13.977  65.956  1.00  0.00    -0.307 S  
HETATM   32  O   UNL     1     -12.470  14.338  65.775  1.00  0.00    -0.441 OA 
HETATM   33  O   UNL     1     -10.419  13.226  64.907  1.00  0.00    -0.333 OA 
BRANCH  31  34
HETATM   34  C   UNL     1     -10.216  15.499  66.093  1.00  0.00    -0.306 A  
HETATM   35  N   UNL     1      -8.028  19.017  66.661  1.00  0.00    -0.260 NA 
HETATM   36  C   UNL     1     -10.900  16.696  66.302  1.00  0.00    -0.015 A  
HETATM   37  H1  UNL     1      -7.009  19.003  66.625  1.00  0.00     0.000 HD 
HETATM   38  H2  UNL     1      -8.310  19.405  67.562  1.00  0.00     0.000 HD 
HETATM   39  C   UNL     1      -8.825  15.448  66.212  1.00  0.00    -0.302 A  
HETATM   40  C   UNL     1      -8.105  16.619  66.388  1.00  0.00    -0.359 A  
HETATM   41  C   UNL     1     -10.164  17.868  66.488  1.00  0.00    -0.379 A  
HETATM   42  C   UNL     1      -8.764  17.849  66.438  1.00  0.00    -0.224 A  
ENDBRANCH  31  34
ENDBRANCH   5  31
ENDBRANCH   4   5
TORSDOF 12
ENDMDL
MODEL      129
REMARK 921   NORMALIZED FREE ENERGY PREDICTED BY IDOCK:   -5.37 KCAL/MOL
REMARK 922        TOTAL FREE ENERGY PREDICTED BY IDOCK:  -11.94 KCAL/MOL
REMARK 923 INTER-LIGAND FREE ENERGY PREDICTED BY IDOCK:  -10.04 KCAL/MOL
REMARK 924 INTRA-LIGAND FREE ENERGY PREDICTED BY IDOCK:   -1.90 KCAL/MOL
REMARK 927      BINDING AFFINITY PREDICTED BY RF-SCORE:    0.00 PKD
ROOT
HETATM    1  C   UNL     1      -9.491   5.248  68.056  1.00  0.00    -0.147 C  
HETATM    2  C   UNL     1     -10.286   6.544  68.021  1.00  0.00    -0.192 C  
HETATM    3  C   UNL     1     -11.579   6.503  68.837  1.00  0.00     0.032 C  
HETATM    4  C   UNL     1      -9.633   7.927  68.119  1.00  0.00    -0.152 C  
ENDROOT
BRANCH   4   5
HETATM    5  N   UNL     1      -8.417   8.324  68.888  1.00  0.00    -0.127 N  
BRANCH   5   6
HETATM    6  C   UNL     1      -7.748   9.483  68.090  1.00  0.00    -0.083 C  
BRANCH   6   7
HETATM    7  C   UNL     1      -8.142   9.600  66.548  1.00  0.00    -0.119 C  
BRANCH   7   8
HETATM    8  C   UNL     1      -9.227  10.763  66.311  1.00  0.00    -0.173 C  
BRANCH   8   9
HETATM    9  N   UNL     1      -9.523  11.528  67.536  1.00  0.00    -0.168 N  
HETATM   10  C   UNL     1     -10.813  11.728  67.955  1.00  0.00    -0.211 C  
HETATM   11  H   UNL     1      -8.753  11.915  68.082  1.00  0.00     0.000 HD 
HETATM   12  O   UNL     1     -11.814  11.272  67.428  1.00  0.00    -0.590 OA 
BRANCH  10  13
HETATM   13  O   UNL     1     -10.818  12.503  69.073  1.00  0.00    -0.211 OA 
BRANCH  13  14
HETATM   14  C   UNL     1     -11.917  13.428  69.166  1.00  0.00    -0.317 C  
HETATM   15  C   UNL     1     -12.376  13.692  70.582  1.00  0.00    -0.440 C  
HETATM   16  O   UNL     1     -12.164  15.786  69.511  1.00  0.00    -0.325 OA 
HETATM   17  C   UNL     1     -12.931  15.094  70.501  1.00  0.00    -0.321 C  
HETATM   18  C   UNL     1     -11.479  14.814  68.707  1.00  0.00    -0.301 C  
ENDBRANCH  13  14
ENDBRANCH  10  13
ENDBRANCH   8   9
BRANCH   8  19
HETATM   19  C   UNL     1      -9.007  11.712  65.109  1.00  0.00     0.177 C  
BRANCH  19  20
HETATM   20  C   UNL     1     -10.190  12.494  64.606  1.00  0.00    -0.315 A  
HETATM   21  C   UNL     1     -11.563  14.494  64.630  1.00  0.00    -0.413 A  
HETATM   22  C   UNL     1     -12.324  12.523  63.459  1.00  0.00    -0.623 A  
HETATM   23  C   UNL     1     -11.157  11.854  63.822  1.00  0.00    -0.510 A  
HETATM   24  C   UNL     1     -10.398  13.822  65.002  1.00  0.00    -0.402 A  
HETATM   25  C   UNL     1     -12.528  13.841  63.865  1.00  0.00    -0.260 A  
ENDBRANCH  19  20
ENDBRANCH   8  19
ENDBRANCH   7   8
BRANCH   7  26
HETATM   26  O   UNL     1      -8.440   8.290  65.939  1.00  0.00    -0.123 OA 
HETATM   27  O   UNL     1      -6.267   7.078  63.804  1.00  0.00    -0.042 OA 
HETATM   28  O   UNL     1      -6.583   6.918  66.085  1.00  0.00    -0.049 OA 
HETATM   29  O   UNL     1      -6.399   9.000  64.806  1.00  0.00    -0.065 OA 
HETATM   30  P   UNL     1      -7.293   7.650  64.813  1.00  0.00    -0.088 P  
ENDBRANCH   7  26
ENDBRANCH   6   7
ENDBRANCH   5   6
BRANCH   5  31
HETATM   31  S   UNL     1      -8.303   8.623  70.566  1.00  0.00    -0.155 S  
HETATM   32  O   UNL     1      -7.831   9.975  70.779  1.00  0.00    -0.197 OA 
HETATM   33  O   UNL     1      -7.558   7.531  71.161  1.00  0.00    -0.079 OA 
BRANCH  31  34
HETATM   34  C   UNL     1      -9.907   8.571  71.276  1.00  0.00    -0.216 A  
HETATM   35  N   UNL     1     -13.680   8.718  73.074  1.00  0.00    -0.999 NA 
HETATM   36  C   UNL     1     -10.231   7.626  72.249  1.00  0.00    -0.268 A  
HETATM   37  H1  UNL     1     -14.361   9.422  72.789  1.00  0.00     0.000 HD 
HETATM   38  H2  UNL     1     -13.531   8.808  74.080  1.00  0.00     0.000 HD 
HETATM   39  C   UNL     1     -10.771   9.634  71.006  1.00  0.00    -0.393 A  
HETATM   40  C   UNL     1     -12.025   9.671  71.596  1.00  0.00    -0.470 A  
HETATM   41  C   UNL     1     -11.494   7.678  72.843  1.00  0.00    -0.342 A  
HETATM   42  C   UNL     1     -12.430   8.644  72.451  1.00  0.00    -0.362 A  
ENDBRANCH  31  34
ENDBRANCH   5  31
ENDBRANCH   4   5
TORSDOF 12
ENDMDL
MODEL      130
REMARK 921   NORMALIZED FREE ENERGY PREDICTED BY IDOCK:   -5.37 KCAL/MOL
REMARK 922        TOTAL FREE ENERGY PREDICTED BY IDOCK:  -11.94 KCAL/MOL
REMARK 923 INTER-LIGAND FREE ENERGY PREDICTED BY IDOCK:   -9.89 KCAL/MOL
REMARK 924 INTRA-LIGAND FREE ENERGY PREDICTED BY IDOCK:   -2.04 KCAL/MOL
REMARK 927      BINDING AFFINITY PREDICTED BY RF-SCORE:    0.00 PKD
ROOT
HETATM    1  C   UNL     1      -8.593   5.506  66.554  1.00  0.00    -0.118 C  
HETATM    2  C   UNL     1      -9.951   5.938  67.083  1.00  0.00    -0.187 C  
HETATM    3  C   UNL     1     -10.256   5.439  68.497  1.00  0.00    -0.237 C  
HETATM    4  C   UNL     1     -10.517   7.348  66.879  1.00  0.00    -0.309 C  
ENDROOT
BRANCH   4   5
HETATM    5  N   UNL     1      -9.777   8.642  66.816  1.00  0.00    -0.210 N  
BRANCH   5   6
HETATM    6  C   UNL     1      -8.739   8.617  67.978  1.00  0.00    -0.141 C  
BRANCH   6   7
HETATM    7  C   UNL     1      -9.257   9.126  69.400  1.00  0.00    -0.156 C  
BRANCH   7   8
HETATM    8  C   UNL     1      -9.875  10.607  69.298  1.00  0.00    -0.180 C  
BRANCH   8   9
HETATM    9  N   UNL     1      -9.200  11.440  68.286  1.00  0.00    -0.177 N  
HETATM   10  C   UNL     1      -7.963  11.982  68.523  1.00  0.00    -0.132 C  
HETATM   11  H   UNL     1      -9.662  11.616  67.394  1.00  0.00     0.000 HD 
HETATM   12  O   UNL     1      -7.282  11.801  69.518  1.00  0.00     0.004 OA 
BRANCH  10  13
HETATM   13  O   UNL     1      -7.586  12.746  67.462  1.00  0.00    -0.140 OA 
BRANCH  13  14
HETATM   14  C   UNL     1      -7.746  14.163  67.647  1.00  0.00    -0.174 C  
HETATM   15  C   UNL     1      -8.992  14.543  68.414  1.00  0.00    -0.186 C  
HETATM   16  O   UNL     1      -7.196  15.753  69.354  1.00  0.00    -0.199 OA 
HETATM   17  C   UNL     1      -8.598  15.838  69.080  1.00  0.00    -0.256 C  
HETATM   18  C   UNL     1      -6.640  14.705  68.546  1.00  0.00    -0.095 C  
ENDBRANCH  13  14
ENDBRANCH  10  13
ENDBRANCH   8   9
BRANCH   8  19
HETATM   19  C   UNL     1     -11.412  10.733  69.180  1.00  0.00    -0.368 C  
BRANCH  19  20
HETATM   20  C   UNL     1     -12.098  11.768  70.030  1.00  0.00    -0.387 A  
HETATM   21  C   UNL     1     -12.484  14.086  70.635  1.00  0.00    -0.435 A  
HETATM   22  C   UNL     1     -13.337  12.316  72.039  1.00  0.00    -0.491 A  
HETATM   23  C   UNL     1     -12.808  11.366  71.167  1.00  0.00    -0.440 A  
HETATM   24  C   UNL     1     -11.946  13.136  69.765  1.00  0.00    -0.382 A  
HETATM   25  C   UNL     1     -13.172  13.674  71.775  1.00  0.00    -0.477 A  
ENDBRANCH  19  20
ENDBRANCH   8  19
ENDBRANCH   7   8
BRANCH   7  26
HETATM   26  O   UNL     1      -8.275   8.896  70.476  1.00  0.00    -0.112 OA 
HETATM   27  O   UNL     1      -9.383   7.671  73.308  1.00  0.00    -0.192 OA 
HETATM   28  O   UNL     1      -8.554   6.772  71.351  1.00  0.00    -0.123 OA 
HETATM   29  O   UNL     1     -10.412   8.360  71.525  1.00  0.00    -0.210 OA 
HETATM   30  P   UNL     1      -8.860   8.249  71.970  1.00  0.00    -0.223 P  
ENDBRANCH   7  26
ENDBRANCH   6   7
ENDBRANCH   5   6
BRANCH   5  31
HETATM   31  S   UNL     1      -9.093   9.379  65.434  1.00  0.00    -0.233 S  
HETATM   32  O   UNL     1      -9.005   8.404  64.367  1.00  0.00     0.154 OA 
HETATM   33  O   UNL     1      -7.882  10.059  65.848  1.00  0.00    -0.112 OA 
BRANCH  31  34
HETATM   34  C   UNL     1     -10.180  10.623  64.842  1.00  0.00    -0.324 A  
HETATM   35  N   UNL     1     -12.532  13.759  63.383  1.00  0.00    -1.072 NA 
HETATM   36  C   UNL     1     -11.135  11.199  65.678  1.00  0.00    -0.078 A  
HETATM   37  H1  UNL     1     -12.422  14.082  62.422  1.00  0.00     0.000 HD 
HETATM   38  H2  UNL     1     -12.392  14.555  64.006  1.00  0.00     0.000 HD 
HETATM   39  C   UNL     1      -9.913  11.175  63.587  1.00  0.00    -0.411 A  
HETATM   40  C   UNL     1     -10.704  12.206  63.104  1.00  0.00    -0.230 A  
HETATM   41  C   UNL     1     -11.920  12.243  65.184  1.00  0.00    -0.395 A  
HETATM   42  C   UNL     1     -11.771  12.688  63.864  1.00  0.00    -0.457 A  
ENDBRANCH  31  34
ENDBRANCH   5  31
ENDBRANCH   4   5
TORSDOF 12
ENDMDL
MODEL      131
REMARK 921   NORMALIZED FREE ENERGY PREDICTED BY IDOCK:   -5.35 KCAL/MOL
REMARK 922        TOTAL FREE ENERGY PREDICTED BY IDOCK:  -11.91 KCAL/MOL
REMARK 923 INTER-LIGAND FREE ENERGY PREDICTED BY IDOCK:  -10.71 KCAL/MOL
REMARK 924 INTRA-LIGAND FREE ENERGY PREDICTED BY IDOCK:   -1.21 KCAL/MOL
REMARK 927      BINDING AFFINITY PREDICTED BY RF-SCORE:    0.00 PKD
ROOT
HETATM    1  C   UNL     1      -5.179  12.478  69.858  1.00  0.00    -0.084 C  
HETATM    2  C   UNL     1      -5.988  13.507  70.632  1.00  0.00    -0.126 C  
HETATM    3  C   UNL     1      -5.162  14.336  71.618  1.00  0.00    -0.178 C  
HETATM    4  C   UNL     1      -7.076  14.370  69.986  1.00  0.00     0.105 C  
ENDROOT
BRANCH   4   5
HETATM    5  N   UNL     1      -7.125  14.912  68.596  1.00  0.00    -0.105 N  
BRANCH   5   6
HETATM    6  C   UNL     1      -8.629  14.958  68.191  1.00  0.00    -0.159 C  
BRANCH   6   7
HETATM    7  C   UNL     1      -9.326  13.552  67.898  1.00  0.00    -0.215 C  
BRANCH   7   8
HETATM    8  C   UNL     1     -10.903  13.607  68.209  1.00  0.00    -0.251 C  
BRANCH   8   9
HETATM    9  N   UNL     1     -11.730  13.500  66.994  1.00  0.00    -0.361 N  
HETATM   10  C   UNL     1     -11.951  14.587  66.187  1.00  0.00    -0.312 C  
HETATM   11  H   UNL     1     -12.146  12.602  66.749  1.00  0.00     0.000 HD 
HETATM   12  O   UNL     1     -11.467  15.697  66.335  1.00  0.00    -0.041 OA 
BRANCH  10  13
HETATM   13  O   UNL     1     -12.783  14.241  65.168  1.00  0.00    -0.596 OA 
BRANCH  13  14
HETATM   14  C   UNL     1     -12.134  13.648  64.029  1.00  0.00    -0.425 C  
HETATM   15  C   UNL     1     -10.686  13.285  64.271  1.00  0.00    -0.408 C  
HETATM   16  O   UNL     1     -11.715  11.422  63.248  1.00  0.00    -0.213 OA 
HETATM   17  C   UNL     1     -10.469  12.120  63.335  1.00  0.00    -0.412 C  
HETATM   18  C   UNL     1     -12.756  12.292  63.715  1.00  0.00    -0.405 C  
ENDBRANCH  13  14
ENDBRANCH  10  13
ENDBRANCH   8   9
BRANCH   8  19
HETATM   19  C   UNL     1     -11.443  12.684  69.327  1.00  0.00    -0.354 C  
BRANCH  19  20
HETATM   20  C   UNL     1     -12.259  13.313  70.423  1.00  0.00    -0.404 A  
HETATM   21  C   UNL     1     -13.110  15.282  71.556  1.00  0.00    -0.517 A  
HETATM   22  C   UNL     1     -13.376  13.103  72.563  1.00  0.00    -0.525 A  
HETATM   23  C   UNL     1     -12.733  12.519  71.473  1.00  0.00    -0.325 A  
HETATM   24  C   UNL     1     -12.459  14.700  70.468  1.00  0.00    -0.408 A  
HETATM   25  C   UNL     1     -13.561  14.484  72.606  1.00  0.00    -0.577 A  
ENDBRANCH  19  20
ENDBRANCH   8  19
ENDBRANCH   7   8
BRANCH   7  26
HETATM   26  O   UNL     1      -8.580  12.419  68.478  1.00  0.00    -0.148 OA 
HETATM   27  O   UNL     1      -8.327   9.688  66.681  1.00  0.00    -0.122 OA 
HETATM   28  O   UNL     1      -7.065  11.604  66.931  1.00  0.00    -0.142 OA 
HETATM   29  O   UNL     1      -9.451  11.522  66.382  1.00  0.00    -0.200 OA 
HETATM   30  P   UNL     1      -8.447  10.978  67.529  1.00  0.00    -0.132 P  
ENDBRANCH   7  26
ENDBRANCH   6   7
ENDBRANCH   5   6
BRANCH   5  31
HETATM   31  S   UNL     1      -6.311  16.286  67.989  1.00  0.00    -0.143 S  
HETATM   32  O   UNL     1      -5.749  15.974  66.691  1.00  0.00    -0.176 OA 
HETATM   33  O   UNL     1      -5.423  16.769  69.027  1.00  0.00    -0.127 OA 
BRANCH  31  34
HETATM   34  C   UNL     1      -7.474  17.568  67.698  1.00  0.00    -0.186 A  
HETATM   35  N   UNL     1     -10.030  20.769  66.859  1.00  0.00    -0.515 NA 
HETATM   36  C   UNL     1      -8.033  18.284  68.756  1.00  0.00    -0.268 A  
HETATM   37  H1  UNL     1     -10.259  21.009  65.894  1.00  0.00     0.000 HD 
HETATM   38  H2  UNL     1      -9.635  21.596  67.308  1.00  0.00     0.000 HD 
HETATM   39  C   UNL     1      -7.649  17.999  66.381  1.00  0.00    -0.297 A  
HETATM   40  C   UNL     1      -8.508  19.053  66.108  1.00  0.00    -0.216 A  
HETATM   41  C   UNL     1      -8.889  19.349  68.470  1.00  0.00    -0.411 A  
HETATM   42  C   UNL     1      -9.203  19.678  67.144  1.00  0.00    -0.332 A  
ENDBRANCH  31  34
ENDBRANCH   5  31
ENDBRANCH   4   5
TORSDOF 12
ENDMDL
MODEL      132
REMARK 921   NORMALIZED FREE ENERGY PREDICTED BY IDOCK:   -5.33 KCAL/MOL
REMARK 922        TOTAL FREE ENERGY PREDICTED BY IDOCK:  -11.87 KCAL/MOL
REMARK 923 INTER-LIGAND FREE ENERGY PREDICTED BY IDOCK:   -8.95 KCAL/MOL
REMARK 924 INTRA-LIGAND FREE ENERGY PREDICTED BY IDOCK:   -2.93 KCAL/MOL
REMARK 927      BINDING AFFINITY PREDICTED BY RF-SCORE:    0.00 PKD
ROOT
HETATM    1  C   UNL     1      -8.501   9.334  64.401  1.00  0.00    -0.201 C  
HETATM    2  C   UNL     1      -8.000   9.441  65.832  1.00  0.00    -0.106 C  
HETATM    3  C   UNL     1      -6.991  10.569  66.056  1.00  0.00    -0.134 C  
HETATM    4  C   UNL     1      -8.917   9.293  67.051  1.00  0.00    -0.126 C  
ENDROOT
BRANCH   4   5
HETATM    5  N   UNL     1     -10.348   9.694  67.187  1.00  0.00    -0.245 N  
BRANCH   5   6
HETATM    6  C   UNL     1     -11.097   8.466  67.786  1.00  0.00     0.392 C  
BRANCH   6   7
HETATM    7  C   UNL     1     -10.278   7.579  68.831  1.00  0.00    -0.208 C  
BRANCH   7   8
HETATM    8  C   UNL     1     -10.027   6.095  68.264  1.00  0.00    -0.143 C  
BRANCH   8   9
HETATM    9  N   UNL     1     -10.276   5.048  69.271  1.00  0.00    -0.205 N  
HETATM   10  C   UNL     1      -9.250   4.513  70.008  1.00  0.00    -0.128 C  
HETATM   11  H   UNL     1     -11.228   4.716  69.424  1.00  0.00     0.000 HD 
HETATM   12  O   UNL     1      -8.082   4.861  69.964  1.00  0.00    -0.072 OA 
BRANCH  10  13
HETATM   13  O   UNL     1      -9.731   3.536  70.823  1.00  0.00    -0.177 OA 
BRANCH  13  14
HETATM   14  C   UNL     1      -9.540   3.771  72.230  1.00  0.00    -0.144 C  
HETATM   15  C   UNL     1     -10.620   4.620  72.861  1.00  0.00    -0.277 C  
HETATM   16  O   UNL     1     -10.286   2.753  74.267  1.00  0.00    -0.119 OA 
HETATM   17  C   UNL     1     -10.635   4.141  74.292  1.00  0.00    -0.229 C  
HETATM   18  C   UNL     1      -9.667   2.464  73.005  1.00  0.00    -0.105 C  
ENDBRANCH  13  14
ENDBRANCH  10  13
ENDBRANCH   8   9
BRANCH   8  19
HETATM   19  C   UNL     1     -10.684   5.726  66.912  1.00  0.00    -0.381 C  
BRANCH  19  20
HETATM   20  C   UNL     1      -9.789   5.216  65.815  1.00  0.00    -0.107 A  
HETATM   21  C   UNL     1      -9.287   3.590  64.086  1.00  0.00    -0.135 A  
HETATM   22  C   UNL     1      -7.618   5.208  64.740  1.00  0.00    -0.078 A  
HETATM   23  C   UNL     1      -8.508   5.756  65.662  1.00  0.00    -0.149 A  
HETATM   24  C   UNL     1     -10.177   4.132  65.014  1.00  0.00    -0.218 A  
HETATM   25  C   UNL     1      -8.006   4.124  63.956  1.00  0.00    -0.089 A  
ENDBRANCH  19  20
ENDBRANCH   8  19
ENDBRANCH   7   8
BRANCH   7  26
HETATM   26  O   UNL     1     -10.817   7.677  70.201  1.00  0.00    -0.244 OA 
HETATM   27  O   UNL     1      -8.821   8.819  72.539  1.00  0.00    -0.402 OA 
HETATM   28  O   UNL     1     -10.342   9.763  71.081  1.00  0.00    -0.248 OA 
HETATM   29  O   UNL     1      -8.473   8.308  70.457  1.00  0.00    -0.121 OA 
HETATM   30  P   UNL     1      -9.764   8.280  71.434  1.00  0.00    -0.220 P  
ENDBRANCH   7  26
ENDBRANCH   6   7
ENDBRANCH   5   6
BRANCH   5  31
HETATM   31  S   UNL     1     -10.961  11.140  67.859  1.00  0.00    -0.276 S  
HETATM   32  O   UNL     1      -9.922  11.783  68.638  1.00  0.00    -0.212 OA 
HETATM   33  O   UNL     1     -12.218  10.829  68.510  1.00  0.00    -0.470 OA 
BRANCH  31  34
HETATM   34  C   UNL     1     -11.339  12.266  66.567  1.00  0.00    -0.351 A  
HETATM   35  N   UNL     1     -12.520  14.957  63.592  1.00  0.00    -1.008 NA 
HETATM   36  C   UNL     1     -11.239  11.884  65.230  1.00  0.00    -0.351 A  
HETATM   37  H1  UNL     1     -12.857  15.887  63.840  1.00  0.00     0.000 HD 
HETATM   38  H2  UNL     1     -13.241  14.495  63.036  1.00  0.00     0.000 HD 
HETATM   39  C   UNL     1     -11.956  13.470  66.915  1.00  0.00    -0.447 A  
HETATM   40  C   UNL     1     -12.334  14.363  65.924  1.00  0.00    -0.342 A  
HETATM   41  C   UNL     1     -11.631  12.789  64.241  1.00  0.00    -0.433 A  
HETATM   42  C   UNL     1     -12.093  14.067  64.582  1.00  0.00    -0.440 A  
ENDBRANCH  31  34
ENDBRANCH   5  31
ENDBRANCH   4   5
TORSDOF 12
ENDMDL
MODEL      133
REMARK 921   NORMALIZED FREE ENERGY PREDICTED BY IDOCK:   -5.32 KCAL/MOL
REMARK 922        TOTAL FREE ENERGY PREDICTED BY IDOCK:  -11.85 KCAL/MOL
REMARK 923 INTER-LIGAND FREE ENERGY PREDICTED BY IDOCK:  -10.61 KCAL/MOL
REMARK 924 INTRA-LIGAND FREE ENERGY PREDICTED BY IDOCK:   -1.24 KCAL/MOL
REMARK 927      BINDING AFFINITY PREDICTED BY RF-SCORE:    0.00 PKD
ROOT
HETATM    1  C   UNL     1     -11.732  15.180  72.368  1.00  0.00    -0.487 C  
HETATM    2  C   UNL     1     -12.760  14.224  71.785  1.00  0.00    -0.428 C  
HETATM    3  C   UNL     1     -14.124  14.863  71.516  1.00  0.00    -0.593 C  
HETATM    4  C   UNL     1     -12.423  13.202  70.693  1.00  0.00    -0.286 C  
ENDROOT
BRANCH   4   5
HETATM    5  N   UNL     1     -11.440  13.329  69.578  1.00  0.00    -0.259 N  
BRANCH   5   6
HETATM    6  C   UNL     1     -11.674  12.107  68.640  1.00  0.00    -0.330 C  
BRANCH   6   7
HETATM    7  C   UNL     1     -10.450  11.094  68.480  1.00  0.00    -0.191 C  
BRANCH   7   8
HETATM    8  C   UNL     1     -10.739   9.707  69.241  1.00  0.00    -0.226 C  
BRANCH   8   9
HETATM    9  N   UNL     1      -9.735   8.670  68.942  1.00  0.00    -0.166 N  
HETATM   10  C   UNL     1      -9.908   7.793  67.902  1.00  0.00    -0.160 C  
HETATM   11  H   UNL     1      -8.897   8.604  69.519  1.00  0.00     0.000 HD 
HETATM   12  O   UNL     1     -10.832   7.802  67.105  1.00  0.00    -0.313 OA 
BRANCH  10  13
HETATM   13  O   UNL     1      -8.874   6.908  67.870  1.00  0.00    -0.124 OA 
BRANCH  13  14
HETATM   14  C   UNL     1      -7.920   7.052  68.938  1.00  0.00    -0.120 C  
HETATM   15  C   UNL     1      -7.697   5.786  69.733  1.00  0.00    -0.084 C  
HETATM   16  O   UNL     1      -5.571   6.672  69.214  1.00  0.00    -0.013 OA 
HETATM   17  C   UNL     1      -6.277   5.938  70.220  1.00  0.00    -0.031 C  
HETATM   18  C   UNL     1      -6.532   7.323  68.370  1.00  0.00    -0.044 C  
ENDBRANCH  13  14
ENDBRANCH  10  13
ENDBRANCH   8   9
BRANCH   8  19
HETATM   19  C   UNL     1     -11.029   9.772  70.759  1.00  0.00    -0.406 C  
BRANCH  19  20
HETATM   20  C   UNL     1     -11.043   8.477  71.526  1.00  0.00    -0.343 A  
HETATM   21  C   UNL     1     -12.076   6.346  72.051  1.00  0.00    -0.353 A  
HETATM   22  C   UNL     1     -10.255   7.169  73.407  1.00  0.00    -0.367 A  
HETATM   23  C   UNL     1     -10.167   8.304  72.604  1.00  0.00    -0.368 A  
HETATM   24  C   UNL     1     -11.995   7.486  71.250  1.00  0.00    -0.333 A  
HETATM   25  C   UNL     1     -11.211   6.193  73.133  1.00  0.00    -0.146 A  
ENDBRANCH  19  20
ENDBRANCH   8  19
ENDBRANCH   7   8
BRANCH   7  26
HETATM   26  O   UNL     1      -9.148  11.732  68.749  1.00  0.00    -0.110 OA 
HETATM   27  O   UNL     1      -6.755  11.288  66.552  1.00  0.00    -0.137 OA 
HETATM   28  O   UNL     1      -8.421  12.855  66.862  1.00  0.00    -0.174 OA 
HETATM   29  O   UNL     1      -8.743  10.430  66.725  1.00  0.00    -0.127 OA 
HETATM   30  P   UNL     1      -7.886  11.498  67.589  1.00  0.00    -0.143 P  
ENDBRANCH   7  26
ENDBRANCH   6   7
ENDBRANCH   5   6
BRANCH   5  31
HETATM   31  S   UNL     1     -11.097  14.723  68.651  1.00  0.00    -0.277 S  
HETATM   32  O   UNL     1      -9.673  14.983  68.689  1.00  0.00    -0.204 OA 
HETATM   33  O   UNL     1     -12.001  15.772  69.077  1.00  0.00    -0.385 OA 
BRANCH  31  34
HETATM   34  C   UNL     1     -11.468  14.405  66.965  1.00  0.00    -0.361 A  
HETATM   35  N   UNL     1     -12.386  13.942  62.912  1.00  0.00    -0.843 NA 
HETATM   36  C   UNL     1     -12.587  13.655  66.606  1.00  0.00    -0.156 A  
HETATM   37  H1  UNL     1     -11.787  14.354  62.196  1.00  0.00     0.000 HD 
HETATM   38  H2  UNL     1     -13.334  14.294  62.775  1.00  0.00     0.000 HD 
HETATM   39  C   UNL     1     -10.747  15.109  65.998  1.00  0.00    -0.333 A  
HETATM   40  C   UNL     1     -11.048  14.941  64.655  1.00  0.00    -0.335 A  
HETATM   41  C   UNL     1     -12.886  13.501  65.250  1.00  0.00    -0.410 A  
HETATM   42  C   UNL     1     -12.063  14.066  64.267  1.00  0.00    -0.445 A  
ENDBRANCH  31  34
ENDBRANCH   5  31
ENDBRANCH   4   5
TORSDOF 12
ENDMDL
MODEL      134
REMARK 921   NORMALIZED FREE ENERGY PREDICTED BY IDOCK:   -5.32 KCAL/MOL
REMARK 922        TOTAL FREE ENERGY PREDICTED BY IDOCK:  -11.85 KCAL/MOL
REMARK 923 INTER-LIGAND FREE ENERGY PREDICTED BY IDOCK:   -9.52 KCAL/MOL
REMARK 924 INTRA-LIGAND FREE ENERGY PREDICTED BY IDOCK:   -2.32 KCAL/MOL
REMARK 927      BINDING AFFINITY PREDICTED BY RF-SCORE:    0.00 PKD
ROOT
HETATM    1  C   UNL     1     -13.426   9.365  72.569  1.00  0.00    -0.437 C  
HETATM    2  C   UNL     1     -13.254  10.268  71.358  1.00  0.00    -0.464 C  
HETATM    3  C   UNL     1     -12.917  11.720  71.705  1.00  0.00    -0.466 C  
HETATM    4  C   UNL     1     -12.507   9.833  70.092  1.00  0.00     0.237 C  
ENDROOT
BRANCH   4   5
HETATM    5  N   UNL     1     -11.328   8.924  69.979  1.00  0.00    -0.115 N  
BRANCH   5   6
HETATM    6  C   UNL     1     -10.085   9.754  70.420  1.00  0.00    -0.252 C  
BRANCH   6   7
HETATM    7  C   UNL     1      -9.161  10.320  69.247  1.00  0.00    -0.202 C  
BRANCH   7   8
HETATM    8  C   UNL     1      -9.978  10.434  67.866  1.00  0.00    -0.167 C  
BRANCH   8   9
HETATM    9  N   UNL     1      -9.900  11.777  67.264  1.00  0.00    -0.185 N  
HETATM   10  C   UNL     1     -11.018  12.402  66.774  1.00  0.00    -0.263 C  
HETATM   11  H   UNL     1      -8.998  12.250  67.212  1.00  0.00     0.000 HD 
HETATM   12  O   UNL     1     -12.158  11.973  66.829  1.00  0.00    -0.613 OA 
BRANCH  10  13
HETATM   13  O   UNL     1     -10.673  13.600  66.229  1.00  0.00    -0.282 OA 
BRANCH  13  14
HETATM   14  C   UNL     1     -10.285  14.610  67.177  1.00  0.00    -0.256 C  
HETATM   15  C   UNL     1      -9.725  15.863  66.543  1.00  0.00    -0.286 C  
HETATM   16  O   UNL     1     -11.311  16.543  68.155  1.00  0.00    -0.308 OA 
HETATM   17  C   UNL     1     -10.078  16.936  67.544  1.00  0.00    -0.282 C  
HETATM   18  C   UNL     1     -11.512  15.143  67.909  1.00  0.00    -0.332 C  
ENDBRANCH  13  14
ENDBRANCH  10  13
ENDBRANCH   8   9
BRANCH   8  19
HETATM   19  C   UNL     1      -9.737   9.338  66.801  1.00  0.00    -0.260 C  
BRANCH  19  20
HETATM   20  C   UNL     1      -9.023   9.734  65.537  1.00  0.00    -0.214 A  
HETATM   21  C   UNL     1      -9.055  10.250  63.167  1.00  0.00    -0.287 A  
HETATM   22  C   UNL     1      -6.947   9.957  64.308  1.00  0.00    -0.128 A  
HETATM   23  C   UNL     1      -7.624   9.723  65.504  1.00  0.00    -0.118 A  
HETATM   24  C   UNL     1      -9.735  10.007  64.361  1.00  0.00    -0.277 A  
HETATM   25  C   UNL     1      -7.661  10.217  63.141  1.00  0.00    -0.151 A  
ENDBRANCH  19  20
ENDBRANCH   8  19
ENDBRANCH   7   8
BRANCH   7  26
HETATM   26  O   UNL     1      -7.852   9.644  69.182  1.00  0.00    -0.081 OA 
HETATM   27  O   UNL     1      -5.169  11.530  69.174  1.00  0.00    -0.044 OA 
HETATM   28  O   UNL     1      -6.444  10.506  70.803  1.00  0.00    -0.323 OA 
HETATM   29  O   UNL     1      -7.283  12.015  69.064  1.00  0.00    -0.108 OA 
HETATM   30  P   UNL     1      -6.436  10.639  69.178  1.00  0.00    -0.073 P  
ENDBRANCH   7  26
ENDBRANCH   6   7
ENDBRANCH   5   6
BRANCH   5  31
HETATM   31  S   UNL     1     -11.197   7.320  70.553  1.00  0.00    -0.279 S  
HETATM   32  O   UNL     1     -12.508   6.843  70.942  1.00  0.00    -0.378 OA 
HETATM   33  O   UNL     1     -10.132   7.287  71.535  1.00  0.00    -0.186 OA 
BRANCH  31  34
HETATM   34  C   UNL     1     -10.690   6.273  69.239  1.00  0.00    -0.305 A  
HETATM   35  N   UNL     1      -9.768   3.751  66.033  1.00  0.00    -0.342 NA 
HETATM   36  C   UNL     1     -10.056   5.058  69.493  1.00  0.00    -0.301 A  
HETATM   37  H1  UNL     1      -9.985   4.032  65.076  1.00  0.00     0.000 HD 
HETATM   38  H2  UNL     1     -10.223   2.856  66.213  1.00  0.00     0.000 HD 
HETATM   39  C   UNL     1     -11.138   6.581  67.953  1.00  0.00    -0.352 A  
HETATM   40  C   UNL     1     -10.819   5.748  66.892  1.00  0.00    -0.337 A  
HETATM   41  C   UNL     1      -9.747   4.222  68.418  1.00  0.00    -0.165 A  
HETATM   42  C   UNL     1     -10.044   4.607  67.104  1.00  0.00    -0.143 A  
ENDBRANCH  31  34
ENDBRANCH   5  31
ENDBRANCH   4   5
TORSDOF 12
ENDMDL
MODEL      135
REMARK 921   NORMALIZED FREE ENERGY PREDICTED BY IDOCK:   -5.30 KCAL/MOL
REMARK 922        TOTAL FREE ENERGY PREDICTED BY IDOCK:  -11.82 KCAL/MOL
REMARK 923 INTER-LIGAND FREE ENERGY PREDICTED BY IDOCK:  -11.80 KCAL/MOL
REMARK 924 INTRA-LIGAND FREE ENERGY PREDICTED BY IDOCK:   -0.02 KCAL/MOL
REMARK 927      BINDING AFFINITY PREDICTED BY RF-SCORE:    0.00 PKD
ROOT
HETATM    1  C   UNL     1      -9.410   9.056  68.878  1.00  0.00    -0.143 C  
HETATM    2  C   UNL     1      -9.491  10.041  67.724  1.00  0.00    -0.157 C  
HETATM    3  C   UNL     1     -10.381   9.575  66.569  1.00  0.00    -0.263 C  
HETATM    4  C   UNL     1      -9.624  11.554  67.926  1.00  0.00    -0.177 C  
ENDROOT
BRANCH   4   5
HETATM    5  N   UNL     1     -10.338  12.284  69.014  1.00  0.00    -0.044 N  
BRANCH   5   6
HETATM    6  C   UNL     1     -10.555  13.740  68.503  1.00  0.00    -0.253 C  
BRANCH   6   7
HETATM    7  C   UNL     1     -10.235  14.003  66.961  1.00  0.00    -0.261 C  
BRANCH   7   8
HETATM    8  C   UNL     1      -9.027  15.051  66.788  1.00  0.00    -0.265 C  
BRANCH   8   9
HETATM    9  N   UNL     1      -9.395  16.217  65.965  1.00  0.00    -0.334 N  
HETATM   10  C   UNL     1     -10.311  17.137  66.407  1.00  0.00    -0.307 C  
HETATM   11  H   UNL     1      -8.960  16.342  65.051  1.00  0.00     0.000 HD 
HETATM   12  O   UNL     1     -10.856  17.136  67.498  1.00  0.00    -0.309 OA 
BRANCH  10  13
HETATM   13  O   UNL     1     -10.513  18.081  65.448  1.00  0.00    -0.621 OA 
BRANCH  13  14
HETATM   14  C   UNL     1     -10.234  19.432  65.858  1.00  0.00    -0.391 C  
HETATM   15  C   UNL     1     -10.616  19.728  67.291  1.00  0.00    -0.565 C  
HETATM   16  O   UNL     1      -8.433  20.564  66.961  1.00  0.00    -0.307 OA 
HETATM   17  C   UNL     1      -9.643  20.812  67.684  1.00  0.00    -0.238 C  
HETATM   18  C   UNL     1      -8.730  19.679  65.871  1.00  0.00    -0.114 C  
ENDBRANCH  13  14
ENDBRANCH  10  13
ENDBRANCH   8   9
BRANCH   8  19
HETATM   19  C   UNL     1      -8.276  15.493  68.066  1.00  0.00    -0.146 C  
BRANCH  19  20
HETATM   20  C   UNL     1      -7.264  16.599  67.937  1.00  0.00    -0.152 A  
HETATM   21  C   UNL     1      -6.428  18.782  68.587  1.00  0.00    -0.258 A  
HETATM   22  C   UNL     1      -5.495  17.658  66.664  1.00  0.00    -0.206 A  
HETATM   23  C   UNL     1      -6.351  16.579  66.877  1.00  0.00    -0.166 A  
HETATM   24  C   UNL     1      -7.292  17.706  68.797  1.00  0.00    -0.261 A  
HETATM   25  C   UNL     1      -5.536  18.760  67.516  1.00  0.00    -0.161 A  
ENDBRANCH  19  20
ENDBRANCH   8  19
ENDBRANCH   7   8
BRANCH   7  26
HETATM   26  O   UNL     1     -11.450  14.264  66.167  1.00  0.00    -0.338 OA 
HETATM   27  O   UNL     1     -11.865  12.536  63.412  1.00  0.00    -0.491 OA 
HETATM   28  O   UNL     1     -12.474  12.263  65.621  1.00  0.00    -0.591 OA 
HETATM   29  O   UNL     1     -10.202  12.673  64.801  1.00  0.00    -0.302 OA 
HETATM   30  P   UNL     1     -11.669  13.352  64.713  1.00  0.00    -0.407 P  
ENDBRANCH   7  26
ENDBRANCH   6   7
ENDBRANCH   5   6
BRANCH   5  31
HETATM   31  S   UNL     1     -11.708  11.759  69.889  1.00  0.00    -0.298 S  
HETATM   32  O   UNL     1     -11.324  10.682  70.778  1.00  0.00    -0.301 OA 
HETATM   33  O   UNL     1     -12.776  11.520  68.938  1.00  0.00    -0.017 OA 
BRANCH  31  34
HETATM   34  C   UNL     1     -12.261  13.054  70.936  1.00  0.00    -0.220 A  
HETATM   35  N   UNL     1     -13.840  16.126  73.294  1.00  0.00    -0.728 NA 
HETATM   36  C   UNL     1     -11.672  14.317  70.886  1.00  0.00    -0.242 A  
HETATM   37  H1  UNL     1     -14.631  15.947  73.913  1.00  0.00     0.000 HD 
HETATM   38  H2  UNL     1     -14.092  16.889  72.665  1.00  0.00     0.000 HD 
HETATM   39  C   UNL     1     -13.444  12.852  71.650  1.00  0.00    -0.261 A  
HETATM   40  C   UNL     1     -13.955  13.870  72.440  1.00  0.00    -0.633 A  
HETATM   41  C   UNL     1     -12.201  15.338  71.679  1.00  0.00    -0.433 A  
HETATM   42  C   UNL     1     -13.288  15.093  72.529  1.00  0.00    -0.441 A  
ENDBRANCH  31  34
ENDBRANCH   5  31
ENDBRANCH   4   5
TORSDOF 12
ENDMDL
MODEL      136
REMARK 921   NORMALIZED FREE ENERGY PREDICTED BY IDOCK:   -5.30 KCAL/MOL
REMARK 922        TOTAL FREE ENERGY PREDICTED BY IDOCK:  -11.82 KCAL/MOL
REMARK 923 INTER-LIGAND FREE ENERGY PREDICTED BY IDOCK:   -9.85 KCAL/MOL
REMARK 924 INTRA-LIGAND FREE ENERGY PREDICTED BY IDOCK:   -1.97 KCAL/MOL
REMARK 927      BINDING AFFINITY PREDICTED BY RF-SCORE:    0.00 PKD
ROOT
HETATM    1  C   UNL     1      -8.346   8.278  66.682  1.00  0.00    -0.111 C  
HETATM    2  C   UNL     1      -8.233   9.255  65.523  1.00  0.00    -0.125 C  
HETATM    3  C   UNL     1      -9.432   9.235  64.572  1.00  0.00     0.179 C  
HETATM    4  C   UNL     1      -7.700  10.683  65.684  1.00  0.00    -0.109 C  
ENDROOT
BRANCH   4   5
HETATM    5  N   UNL     1      -7.842  11.597  66.855  1.00  0.00    -0.162 N  
BRANCH   5   6
HETATM    6  C   UNL     1      -9.344  11.561  67.266  1.00  0.00    -0.166 C  
BRANCH   6   7
HETATM    7  C   UNL     1     -10.256  12.753  66.721  1.00  0.00    -0.239 C  
BRANCH   7   8
HETATM    8  C   UNL     1     -10.423  13.910  67.826  1.00  0.00    -0.243 C  
BRANCH   8   9
HETATM    9  N   UNL     1      -9.698  15.144  67.476  1.00  0.00    -0.205 N  
HETATM   10  C   UNL     1      -8.988  15.842  68.419  1.00  0.00    -0.189 C  
HETATM   11  H   UNL     1      -9.726  15.486  66.515  1.00  0.00     0.000 HD 
HETATM   12  O   UNL     1      -8.827  15.513  69.582  1.00  0.00    -0.259 OA 
BRANCH  10  13
HETATM   13  O   UNL     1      -8.459  16.964  67.858  1.00  0.00    -0.196 OA 
BRANCH  13  14
HETATM   14  C   UNL     1      -9.360  17.702  67.013  1.00  0.00    -0.257 C  
HETATM   15  C   UNL     1     -10.471  18.399  67.765  1.00  0.00    -0.433 C  
HETATM   16  O   UNL     1      -9.551  19.969  66.259  1.00  0.00    -0.399 OA 
HETATM   17  C   UNL     1     -10.780  19.587  66.887  1.00  0.00    -0.464 C  
HETATM   18  C   UNL     1      -8.631  18.872  66.362  1.00  0.00    -0.294 C  
ENDBRANCH  13  14
ENDBRANCH  10  13
ENDBRANCH   8   9
BRANCH   8  19
HETATM   19  C   UNL     1     -11.856  14.231  68.313  1.00  0.00    -0.370 C  
BRANCH  19  20
HETATM   20  C   UNL     1     -12.084  14.342  69.796  1.00  0.00    -0.401 A  
HETATM   21  C   UNL     1     -12.800  13.370  71.901  1.00  0.00    -0.354 A  
HETATM   22  C   UNL     1     -12.356  15.740  71.756  1.00  0.00    -0.523 A  
HETATM   23  C   UNL     1     -12.019  15.597  70.412  1.00  0.00    -0.405 A  
HETATM   24  C   UNL     1     -12.470  13.226  70.553  1.00  0.00    -0.332 A  
HETATM   25  C   UNL     1     -12.750  14.628  72.499  1.00  0.00    -0.448 A  
ENDBRANCH  19  20
ENDBRANCH   8  19
ENDBRANCH   7   8
BRANCH   7  26
HETATM   26  O   UNL     1     -11.494  12.271  66.081  1.00  0.00    -0.338 OA 
HETATM   27  O   UNL     1     -12.470  13.777  63.337  1.00  0.00    -0.817 OA 
HETATM   28  O   UNL     1     -11.135  11.956  63.818  1.00  0.00    -0.365 OA 
HETATM   29  O   UNL     1     -10.870  14.211  64.739  1.00  0.00    -0.387 OA 
HETATM   30  P   UNL     1     -12.009  13.065  64.633  1.00  0.00    -0.452 P  
ENDBRANCH   7  26
ENDBRANCH   6   7
ENDBRANCH   5   6
BRANCH   5  31
HETATM   31  S   UNL     1      -6.853  11.660  68.247  1.00  0.00    -0.072 S  
HETATM   32  O   UNL     1      -7.152  12.866  68.991  1.00  0.00    -0.093 OA 
HETATM   33  O   UNL     1      -5.485  11.428  67.829  1.00  0.00    -0.043 OA 
BRANCH  31  34
HETATM   34  C   UNL     1      -7.274  10.335  69.318  1.00  0.00    -0.093 A  
HETATM   35  N   UNL     1      -8.207   6.990  71.649  1.00  0.00    -0.104 NA 
HETATM   36  C   UNL     1      -8.573  10.187  69.802  1.00  0.00    -0.148 A  
HETATM   37  H1  UNL     1      -7.489   6.303  71.878  1.00  0.00     0.000 HD 
HETATM   38  H2  UNL     1      -8.976   6.505  71.186  1.00  0.00     0.000 HD 
HETATM   39  C   UNL     1      -6.336   9.314  69.487  1.00  0.00    -0.043 A  
HETATM   40  C   UNL     1      -6.647   8.214  70.271  1.00  0.00    -0.036 A  
HETATM   41  C   UNL     1      -8.878   9.071  70.583  1.00  0.00    -0.259 A  
HETATM   42  C   UNL     1      -7.891   8.127  70.898  1.00  0.00    -0.091 A  
ENDBRANCH  31  34
ENDBRANCH   5  31
ENDBRANCH   4   5
TORSDOF 12
ENDMDL
MODEL      137
REMARK 921   NORMALIZED FREE ENERGY PREDICTED BY IDOCK:   -5.30 KCAL/MOL
REMARK 922        TOTAL FREE ENERGY PREDICTED BY IDOCK:  -11.82 KCAL/MOL
REMARK 923 INTER-LIGAND FREE ENERGY PREDICTED BY IDOCK:  -10.23 KCAL/MOL
REMARK 924 INTRA-LIGAND FREE ENERGY PREDICTED BY IDOCK:   -1.59 KCAL/MOL
REMARK 927      BINDING AFFINITY PREDICTED BY RF-SCORE:    0.00 PKD
ROOT
HETATM    1  C   UNL     1     -10.615   5.709  67.379  1.00  0.00    -0.312 C  
HETATM    2  C   UNL     1     -10.940   6.170  68.790  1.00  0.00    -0.421 C  
HETATM    3  C   UNL     1     -10.591   5.149  69.875  1.00  0.00    -0.196 C  
HETATM    4  C   UNL     1     -10.665   7.594  69.287  1.00  0.00    -0.161 C  
ENDROOT
BRANCH   4   5
HETATM    5  N   UNL     1      -9.551   8.509  68.905  1.00  0.00    -0.158 N  
BRANCH   5   6
HETATM    6  C   UNL     1      -9.711   9.791  69.777  1.00  0.00    -0.229 C  
BRANCH   6   7
HETATM    7  C   UNL     1     -11.196  10.147  70.243  1.00  0.00    -0.318 C  
BRANCH   7   8
HETATM    8  C   UNL     1     -11.701  11.522  69.577  1.00  0.00    -0.346 C  
BRANCH   8   9
HETATM    9  N   UNL     1     -11.908  11.410  68.122  1.00  0.00    -0.266 N  
HETATM   10  C   UNL     1     -11.024  11.968  67.234  1.00  0.00    -0.262 C  
HETATM   11  H   UNL     1     -12.723  10.908  67.770  1.00  0.00     0.000 HD 
HETATM   12  O   UNL     1      -9.986  12.540  67.522  1.00  0.00    -0.197 OA 
BRANCH  10  13
HETATM   13  O   UNL     1     -11.466  11.772  65.962  1.00  0.00    -0.322 OA 
BRANCH  13  14
HETATM   14  C   UNL     1     -12.320  12.810  65.449  1.00  0.00    -0.470 C  
HETATM   15  C   UNL     1     -11.656  14.167  65.374  1.00  0.00    -0.334 C  
HETATM   16  O   UNL     1     -12.737  13.800  63.307  1.00  0.00    -0.783 OA 
HETATM   17  C   UNL     1     -12.379  14.834  64.229  1.00  0.00    -0.320 C  
HETATM   18  C   UNL     1     -12.659  12.539  63.987  1.00  0.00    -0.387 C  
ENDBRANCH  13  14
ENDBRANCH  10  13
ENDBRANCH   8   9
BRANCH   8  19
HETATM   19  C   UNL     1     -12.891  12.246  70.249  1.00  0.00     0.265 C  
BRANCH  19  20
HETATM   20  C   UNL     1     -12.580  13.366  71.206  1.00  0.00    -0.411 A  
HETATM   21  C   UNL     1     -13.034  14.576  73.259  1.00  0.00    -0.500 A  
HETATM   22  C   UNL     1     -11.504  15.495  71.631  1.00  0.00    -0.496 A  
HETATM   23  C   UNL     1     -11.702  14.383  70.814  1.00  0.00    -0.296 A  
HETATM   24  C   UNL     1     -13.240  13.466  72.438  1.00  0.00    -0.564 A  
HETATM   25  C   UNL     1     -12.172  15.593  72.850  1.00  0.00    -0.563 A  
ENDBRANCH  19  20
ENDBRANCH   8  19
ENDBRANCH   7   8
BRANCH   7  26
HETATM   26  O   UNL     1     -11.378  10.018  71.701  1.00  0.00    -0.233 OA 
HETATM   27  O   UNL     1     -14.184   8.703  72.771  1.00  0.00    -0.460 OA 
HETATM   28  O   UNL     1     -12.101   7.881  72.213  1.00  0.00    -0.321 OA 
HETATM   29  O   UNL     1     -13.517   9.281  70.787  1.00  0.00    -0.027 OA 
HETATM   30  P   UNL     1     -12.858   9.323  72.265  1.00  0.00    -0.307 P  
ENDBRANCH   7  26
ENDBRANCH   6   7
ENDBRANCH   5   6
BRANCH   5  31
HETATM   31  S   UNL     1      -7.896   8.116  68.739  1.00  0.00    -0.115 S  
HETATM   32  O   UNL     1      -7.504   7.235  69.819  1.00  0.00    -0.088 OA 
HETATM   33  O   UNL     1      -7.163   9.352  68.556  1.00  0.00    -0.070 OA 
BRANCH  31  34
HETATM   34  C   UNL     1      -7.666   7.183  67.270  1.00  0.00    -0.109 A  
HETATM   35  N   UNL     1      -6.833   4.931  63.846  1.00  0.00    -0.046 NA 
HETATM   36  C   UNL     1      -7.856   7.762  66.015  1.00  0.00    -0.100 A  
HETATM   37  H1  UNL     1      -6.516   3.965  63.928  1.00  0.00     0.000 HD 
HETATM   38  H2  UNL     1      -6.139   5.449  63.305  1.00  0.00     0.000 HD 
HETATM   39  C   UNL     1      -7.073   5.924  67.386  1.00  0.00    -0.074 A  
HETATM   40  C   UNL     1      -6.811   5.177  66.248  1.00  0.00    -0.058 A  
HETATM   41  C   UNL     1      -7.580   7.003  64.876  1.00  0.00    -0.106 A  
HETATM   42  C   UNL     1      -7.145   5.676  64.988  1.00  0.00    -0.064 A  
ENDBRANCH  31  34
ENDBRANCH   5  31
ENDBRANCH   4   5
TORSDOF 12
ENDMDL
MODEL      138
REMARK 921   NORMALIZED FREE ENERGY PREDICTED BY IDOCK:   -5.30 KCAL/MOL
REMARK 922        TOTAL FREE ENERGY PREDICTED BY IDOCK:  -11.82 KCAL/MOL
REMARK 923 INTER-LIGAND FREE ENERGY PREDICTED BY IDOCK:   -8.54 KCAL/MOL
REMARK 924 INTRA-LIGAND FREE ENERGY PREDICTED BY IDOCK:   -3.28 KCAL/MOL
REMARK 927      BINDING AFFINITY PREDICTED BY RF-SCORE:    0.00 PKD
ROOT
HETATM    1  C   UNL     1     -11.943  10.967  69.062  1.00  0.00    -0.364 C  
HETATM    2  C   UNL     1     -11.407  10.523  70.413  1.00  0.00    -0.411 C  
HETATM    3  C   UNL     1     -12.485  10.353  71.486  1.00  0.00    -0.508 C  
HETATM    4  C   UNL     1     -10.323   9.451  70.569  1.00  0.00    -0.281 C  
ENDROOT
BRANCH   4   5
HETATM    5  N   UNL     1     -10.083   8.246  69.722  1.00  0.00    -0.193 N  
BRANCH   5   6
HETATM    6  C   UNL     1      -8.572   8.263  69.345  1.00  0.00    -0.134 C  
BRANCH   6   7
HETATM    7  C   UNL     1      -8.105   9.416  68.345  1.00  0.00    -0.109 C  
BRANCH   7   8
HETATM    8  C   UNL     1      -8.410   9.018  66.816  1.00  0.00    -0.115 C  
BRANCH   8   9
HETATM    9  N   UNL     1      -7.910   7.677  66.464  1.00  0.00    -0.103 N  
HETATM   10  C   UNL     1      -7.028   7.497  65.429  1.00  0.00    -0.059 C  
HETATM   11  H   UNL     1      -8.225   6.869  67.000  1.00  0.00     0.000 HD 
HETATM   12  O   UNL     1      -6.532   8.381  64.751  1.00  0.00    -0.063 OA 
BRANCH  10  13
HETATM   13  O   UNL     1      -6.765   6.171  65.275  1.00  0.00    -0.045 OA 
BRANCH  13  14
HETATM   14  C   UNL     1      -6.865   5.684  63.925  1.00  0.00    -0.049 C  
HETATM   15  C   UNL     1      -6.590   4.204  63.786  1.00  0.00    -0.042 C  
HETATM   16  O   UNL     1      -8.568   4.665  62.581  1.00  0.00    -0.098 OA 
HETATM   17  C   UNL     1      -7.414   3.818  62.582  1.00  0.00    -0.053 C  
HETATM   18  C   UNL     1      -8.305   5.790  63.433  1.00  0.00    -0.020 C  
ENDBRANCH  13  14
ENDBRANCH  10  13
ENDBRANCH   8   9
BRANCH   8  19
HETATM   19  C   UNL     1      -9.853   9.222  66.299  1.00  0.00    -0.361 C  
BRANCH  19  20
HETATM   20  C   UNL     1     -10.115  10.397  65.396  1.00  0.00    -0.354 A  
HETATM   21  C   UNL     1     -11.222  12.508  64.945  1.00  0.00    -0.344 A  
HETATM   22  C   UNL     1     -10.027  11.373  63.180  1.00  0.00    -0.402 A  
HETATM   23  C   UNL     1      -9.679  10.355  64.066  1.00  0.00    -0.373 A  
HETATM   24  C   UNL     1     -10.883  11.485  65.832  1.00  0.00    -0.316 A  
HETATM   25  C   UNL     1     -10.800  12.446  63.618  1.00  0.00    -0.509 A  
ENDBRANCH  19  20
ENDBRANCH   8  19
ENDBRANCH   7   8
BRANCH   7  26
HETATM   26  O   UNL     1      -6.745   9.904  68.639  1.00  0.00    -0.050 OA 
HETATM   27  O   UNL     1      -6.416  13.045  69.522  1.00  0.00    -0.116 OA 
HETATM   28  O   UNL     1      -6.742  11.055  70.646  1.00  0.00    -0.219 OA 
HETATM   29  O   UNL     1      -8.126  11.909  68.813  1.00  0.00    -0.117 OA 
HETATM   30  P   UNL     1      -6.572  11.561  69.105  1.00  0.00    -0.118 P  
ENDBRANCH   7  26
ENDBRANCH   6   7
ENDBRANCH   5   6
BRANCH   5  31
HETATM   31  S   UNL     1     -10.594   6.645  70.030  1.00  0.00    -0.242 S  
HETATM   32  O   UNL     1     -12.035   6.623  70.178  1.00  0.00    -0.367 OA 
HETATM   33  O   UNL     1      -9.782   6.120  71.110  1.00  0.00    -0.174 OA 
BRANCH  31  34
HETATM   34  C   UNL     1     -10.254   5.647  68.627  1.00  0.00    -0.200 A  
HETATM   35  N   UNL     1      -9.737   3.245  65.243  1.00  0.00    -0.345 NA 
HETATM   36  C   UNL     1      -9.594   4.426  68.757  1.00  0.00    -0.224 A  
HETATM   37  H1  UNL     1     -10.070   3.559  64.331  1.00  0.00     0.000 HD 
HETATM   38  H2  UNL     1     -10.166   2.342  65.446  1.00  0.00     0.000 HD 
HETATM   39  C   UNL     1     -10.858   5.999  67.418  1.00  0.00    -0.394 A  
HETATM   40  C   UNL     1     -10.673   5.206  66.296  1.00  0.00    -0.272 A  
HETATM   41  C   UNL     1      -9.421   3.630  67.623  1.00  0.00    -0.234 A  
HETATM   42  C   UNL     1      -9.878   4.060  66.370  1.00  0.00    -0.157 A  
ENDBRANCH  31  34
ENDBRANCH   5  31
ENDBRANCH   4   5
TORSDOF 12
ENDMDL
MODEL      139
REMARK 921   NORMALIZED FREE ENERGY PREDICTED BY IDOCK:   -5.27 KCAL/MOL
REMARK 922        TOTAL FREE ENERGY PREDICTED BY IDOCK:  -11.78 KCAL/MOL
REMARK 923 INTER-LIGAND FREE ENERGY PREDICTED BY IDOCK:   -9.92 KCAL/MOL
REMARK 924 INTRA-LIGAND FREE ENERGY PREDICTED BY IDOCK:   -1.85 KCAL/MOL
REMARK 927      BINDING AFFINITY PREDICTED BY RF-SCORE:    0.00 PKD
ROOT
HETATM    1  C   UNL     1      -5.213  11.740  67.951  1.00  0.00    -0.051 C  
HETATM    2  C   UNL     1      -6.140  12.843  68.437  1.00  0.00    -0.074 C  
HETATM    3  C   UNL     1      -5.944  14.182  67.724  1.00  0.00    -0.111 C  
HETATM    4  C   UNL     1      -7.624  12.611  68.744  1.00  0.00    -0.022 C  
ENDROOT
BRANCH   4   5
HETATM    5  N   UNL     1      -8.572  11.675  68.073  1.00  0.00    -0.146 N  
BRANCH   5   6
HETATM    6  C   UNL     1      -8.772  12.210  66.623  1.00  0.00    -0.153 C  
BRANCH   6   7
HETATM    7  C   UNL     1     -10.031  13.164  66.388  1.00  0.00    -0.282 C  
BRANCH   7   8
HETATM    8  C   UNL     1      -9.996  14.428  67.382  1.00  0.00    -0.242 C  
BRANCH   8   9
HETATM    9  N   UNL     1      -9.098  15.499  66.913  1.00  0.00    -0.224 N  
HETATM   10  C   UNL     1      -9.493  16.380  65.938  1.00  0.00    -0.254 C  
HETATM   11  H   UNL     1      -8.168  15.587  67.320  1.00  0.00     0.000 HD 
HETATM   12  O   UNL     1     -10.593  16.421  65.414  1.00  0.00    -0.480 OA 
BRANCH  10  13
HETATM   13  O   UNL     1      -8.472  17.232  65.649  1.00  0.00    -0.475 OA 
BRANCH  13  14
HETATM   14  C   UNL     1      -7.667  17.620  66.777  1.00  0.00    -0.226 C  
HETATM   15  C   UNL     1      -6.198  17.774  66.456  1.00  0.00    -0.226 C  
HETATM   16  O   UNL     1      -6.850  19.681  67.687  1.00  0.00    -0.229 OA 
HETATM   17  C   UNL     1      -5.740  18.808  67.456  1.00  0.00    -0.157 C  
HETATM   18  C   UNL     1      -8.044  19.025  67.235  1.00  0.00    -0.262 C  
ENDBRANCH  13  14
ENDBRANCH  10  13
ENDBRANCH   8   9
BRANCH   8  19
HETATM   19  C   UNL     1     -11.352  15.010  67.846  1.00  0.00    -0.344 C  
BRANCH  19  20
HETATM   20  C   UNL     1     -11.842  14.635  69.219  1.00  0.00    -0.357 A  
HETATM   21  C   UNL     1     -12.443  15.252  71.487  1.00  0.00    -0.430 A  
HETATM   22  C   UNL     1     -12.251  12.922  70.882  1.00  0.00    -0.290 A  
HETATM   23  C   UNL     1     -11.927  13.285  69.576  1.00  0.00    -0.366 A  
HETATM   24  C   UNL     1     -12.110  15.618  70.182  1.00  0.00    -0.400 A  
HETATM   25  C   UNL     1     -12.505  13.904  71.837  1.00  0.00    -0.249 A  
ENDBRANCH  19  20
ENDBRANCH   8  19
ENDBRANCH   7   8
BRANCH   7  26
HETATM   26  O   UNL     1     -11.301  12.417  66.319  1.00  0.00    -0.303 OA 
HETATM   27  O   UNL     1     -12.811  12.256  63.413  1.00  0.00    -0.754 OA 
HETATM   28  O   UNL     1     -11.256  10.960  64.522  1.00  0.00    -0.025 OA 
HETATM   29  O   UNL     1     -11.066  13.363  64.081  1.00  0.00    -0.378 OA 
HETATM   30  P   UNL     1     -12.097  12.332  64.785  1.00  0.00    -0.245 P  
ENDBRANCH   7  26
ENDBRANCH   6   7
ENDBRANCH   5   6
BRANCH   5  31
HETATM   31  S   UNL     1      -8.513   9.967  68.066  1.00  0.00    -0.118 S  
HETATM   32  O   UNL     1      -7.130   9.537  68.061  1.00  0.00    -0.078 OA 
HETATM   33  O   UNL     1      -9.385   9.498  67.007  1.00  0.00    -0.142 OA 
BRANCH  31  34
HETATM   34  C   UNL     1      -9.186   9.357  69.567  1.00  0.00    -0.176 A  
HETATM   35  N   UNL     1     -10.868   7.656  72.997  1.00  0.00    -0.385 NA 
HETATM   36  C   UNL     1     -10.253  10.003  70.190  1.00  0.00    -0.297 A  
HETATM   37  H1  UNL     1     -10.489   6.791  73.384  1.00  0.00     0.000 HD 
HETATM   38  H2  UNL     1     -11.860   7.511  72.807  1.00  0.00     0.000 HD 
HETATM   39  C   UNL     1      -8.777   8.092  69.995  1.00  0.00    -0.135 A  
HETATM   40  C   UNL     1      -9.330   7.539  71.140  1.00  0.00    -0.155 A  
HETATM   41  C   UNL     1     -10.808   9.432  71.338  1.00  0.00    -0.430 A  
HETATM   42  C   UNL     1     -10.287   8.245  71.870  1.00  0.00    -0.255 A  
ENDBRANCH  31  34
ENDBRANCH   5  31
ENDBRANCH   4   5
TORSDOF 12
ENDMDL
MODEL      140
REMARK 921   NORMALIZED FREE ENERGY PREDICTED BY IDOCK:   -5.25 KCAL/MOL
REMARK 922        TOTAL FREE ENERGY PREDICTED BY IDOCK:  -11.74 KCAL/MOL
REMARK 923 INTER-LIGAND FREE ENERGY PREDICTED BY IDOCK:  -10.30 KCAL/MOL
REMARK 924 INTRA-LIGAND FREE ENERGY PREDICTED BY IDOCK:   -1.43 KCAL/MOL
REMARK 927      BINDING AFFINITY PREDICTED BY RF-SCORE:    0.00 PKD
ROOT
HETATM    1  C   UNL     1     -11.896  16.024  72.062  1.00  0.00    -0.623 C  
HETATM    2  C   UNL     1     -12.427  14.600  72.028  1.00  0.00    -0.407 C  
HETATM    3  C   UNL     1     -13.932  14.490  72.278  1.00  0.00    -0.600 C  
HETATM    4  C   UNL     1     -11.980  13.568  70.987  1.00  0.00     0.008 C  
ENDROOT
BRANCH   4   5
HETATM    5  N   UNL     1     -11.595  13.795  69.563  1.00  0.00    -0.285 N  
BRANCH   5   6
HETATM    6  C   UNL     1     -12.160  12.591  68.753  1.00  0.00    -0.110 C  
BRANCH   6   7
HETATM    7  C   UNL     1     -11.731  11.137  69.255  1.00  0.00    -0.331 C  
BRANCH   7   8
HETATM    8  C   UNL     1     -10.706  10.445  68.227  1.00  0.00    -0.235 C  
BRANCH   8   9
HETATM    9  N   UNL     1     -10.685  11.105  66.910  1.00  0.00    -0.262 N  
HETATM   10  C   UNL     1     -10.330  10.418  65.777  1.00  0.00    -0.187 C  
HETATM   11  H   UNL     1     -10.939  12.090  66.839  1.00  0.00     0.000 HD 
HETATM   12  O   UNL     1     -10.063   9.230  65.716  1.00  0.00    -0.268 OA 
BRANCH  10  13
HETATM   13  O   UNL     1     -10.339  11.260  64.708  1.00  0.00    -0.270 OA 
BRANCH  13  14
HETATM   14  C   UNL     1     -11.311  12.318  64.777  1.00  0.00    -0.323 C  
HETATM   15  C   UNL     1     -10.741  13.692  64.507  1.00  0.00    -0.420 C  
HETATM   16  O   UNL     1     -12.706  13.484  63.215  1.00  0.00    -0.726 OA 
HETATM   17  C   UNL     1     -11.918  14.440  63.931  1.00  0.00    -0.124 C  
HETATM   18  C   UNL     1     -12.332  12.169  63.653  1.00  0.00    -0.568 C  
ENDBRANCH  13  14
ENDBRANCH  10  13
ENDBRANCH   8   9
BRANCH   8  19
HETATM   19  C   UNL     1      -9.269  10.168  68.729  1.00  0.00    -0.164 C  
BRANCH  19  20
HETATM   20  C   UNL     1      -8.820   8.734  68.812  1.00  0.00    -0.134 A  
HETATM   21  C   UNL     1      -7.068   7.061  68.684  1.00  0.00    -0.092 A  
HETATM   22  C   UNL     1      -9.382   6.378  68.802  1.00  0.00    -0.125 A  
HETATM   23  C   UNL     1      -9.776   7.714  68.858  1.00  0.00    -0.156 A  
HETATM   24  C   UNL     1      -7.461   8.399  68.732  1.00  0.00    -0.092 A  
HETATM   25  C   UNL     1      -8.030   6.052  68.711  1.00  0.00    -0.104 A  
ENDBRANCH  19  20
ENDBRANCH   8  19
ENDBRANCH   7   8
BRANCH   7  26
HETATM   26  O   UNL     1     -12.885  10.323  69.682  1.00  0.00     0.010 OA 
HETATM   27  O   UNL     1     -12.689   8.817  72.589  1.00  0.00    -0.375 OA 
HETATM   28  O   UNL     1     -13.465  10.864  71.855  1.00  0.00    -0.345 OA 
HETATM   29  O   UNL     1     -11.233   9.944  71.438  1.00  0.00    -0.348 OA 
HETATM   30  P   UNL     1     -12.781   9.529  71.216  1.00  0.00    -0.300 P  
ENDBRANCH   7  26
ENDBRANCH   6   7
ENDBRANCH   5   6
BRANCH   5  31
HETATM   31  S   UNL     1     -11.759  15.238  68.662  1.00  0.00    -0.319 S  
HETATM   32  O   UNL     1     -12.690  16.119  69.337  1.00  0.00     0.154 OA 
HETATM   33  O   UNL     1     -12.030  14.872  67.286  1.00  0.00    -0.316 OA 
BRANCH  31  34
HETATM   34  C   UNL     1     -10.228  16.095  68.653  1.00  0.00    -0.244 A  
HETATM   35  N   UNL     1      -6.554  18.075  68.921  1.00  0.00    -0.233 NA 
HETATM   36  C   UNL     1     -10.169  17.457  68.360  1.00  0.00    -0.362 A  
HETATM   37  H1  UNL     1      -5.709  17.563  69.177  1.00  0.00     0.000 HD 
HETATM   38  H2  UNL     1      -6.673  18.843  69.581  1.00  0.00     0.000 HD 
HETATM   39  C   UNL     1      -9.110  15.432  69.165  1.00  0.00    -0.243 A  
HETATM   40  C   UNL     1      -7.892  16.090  69.240  1.00  0.00    -0.222 A  
HETATM   41  C   UNL     1      -8.939  18.111  68.447  1.00  0.00    -0.305 A  
HETATM   42  C   UNL     1      -7.778  17.409  68.798  1.00  0.00    -0.258 A  
ENDBRANCH  31  34
ENDBRANCH   5  31
ENDBRANCH   4   5
TORSDOF 12
ENDMDL
MODEL      141
REMARK 921   NORMALIZED FREE ENERGY PREDICTED BY IDOCK:   -5.25 KCAL/MOL
REMARK 922        TOTAL FREE ENERGY PREDICTED BY IDOCK:  -11.73 KCAL/MOL
REMARK 923 INTER-LIGAND FREE ENERGY PREDICTED BY IDOCK:   -9.51 KCAL/MOL
REMARK 924 INTRA-LIGAND FREE ENERGY PREDICTED BY IDOCK:   -2.23 KCAL/MOL
REMARK 927      BINDING AFFINITY PREDICTED BY RF-SCORE:    0.00 PKD
ROOT
HETATM    1  C   UNL     1      -7.634   8.957  65.957  1.00  0.00    -0.094 C  
HETATM    2  C   UNL     1      -6.587   9.822  66.642  1.00  0.00    -0.071 C  
HETATM    3  C   UNL     1      -5.981  10.898  65.739  1.00  0.00    -0.094 C  
HETATM    4  C   UNL     1      -6.747  10.349  68.072  1.00  0.00    -0.065 C  
ENDROOT
BRANCH   4   5
HETATM    5  N   UNL     1      -7.999  10.752  68.776  1.00  0.00    -0.128 N  
BRANCH   5   6
HETATM    6  C   UNL     1      -8.838  11.574  67.752  1.00  0.00    -0.153 C  
BRANCH   6   7
HETATM    7  C   UNL     1      -8.894  13.152  67.989  1.00  0.00    -0.191 C  
BRANCH   7   8
HETATM    8  C   UNL     1     -10.412  13.674  68.081  1.00  0.00    -0.247 C  
BRANCH   8   9
HETATM    9  N   UNL     1     -10.577  15.047  67.570  1.00  0.00    -0.261 N  
HETATM   10  C   UNL     1     -11.193  16.015  68.321  1.00  0.00    -0.350 C  
HETATM   11  H   UNL     1     -10.227  15.281  66.641  1.00  0.00     0.000 HD 
HETATM   12  O   UNL     1     -11.601  15.882  69.463  1.00  0.00    -0.325 OA 
BRANCH  10  13
HETATM   13  O   UNL     1     -11.266  17.172  67.609  1.00  0.00    -0.132 OA 
BRANCH  13  14
HETATM   14  C   UNL     1     -10.549  18.282  68.179  1.00  0.00    -0.282 C  
HETATM   15  C   UNL     1      -9.047  18.168  68.057  1.00  0.00    -0.289 C  
HETATM   16  O   UNL     1      -9.642  20.348  67.372  1.00  0.00    -0.405 OA 
HETATM   17  C   UNL     1      -8.600  19.609  68.018  1.00  0.00    -0.312 C  
HETATM   18  C   UNL     1     -10.839  19.556  67.393  1.00  0.00    -0.414 C  
ENDBRANCH  13  14
ENDBRANCH  10  13
ENDBRANCH   8   9
BRANCH   8  19
HETATM   19  C   UNL     1     -11.521  12.745  67.532  1.00  0.00    -0.390 C  
BRANCH  19  20
HETATM   20  C   UNL     1     -11.775  12.757  66.049  1.00  0.00    -0.470 A  
HETATM   21  C   UNL     1     -11.423  11.819  63.839  1.00  0.00    -0.481 A  
HETATM   22  C   UNL     1     -12.535  13.949  64.081  1.00  0.00    -0.286 A  
HETATM   23  C   UNL     1     -12.410  13.859  65.467  1.00  0.00    -0.506 A  
HETATM   24  C   UNL     1     -11.288  11.732  65.225  1.00  0.00    -0.284 A  
HETATM   25  C   UNL     1     -12.039  12.931  63.269  1.00  0.00    -0.520 A  
ENDBRANCH  19  20
ENDBRANCH   8  19
ENDBRANCH   7   8
BRANCH   7  26
HETATM   26  O   UNL     1      -7.998  13.892  67.080  1.00  0.00    -0.101 OA 
HETATM   27  O   UNL     1      -5.752  15.862  68.431  1.00  0.00    -0.100 OA 
HETATM   28  O   UNL     1      -5.804  13.650  67.773  1.00  0.00    -0.162 OA 
HETATM   29  O   UNL     1      -7.395  14.731  69.290  1.00  0.00    -0.151 OA 
HETATM   30  P   UNL     1      -6.813  14.931  67.793  1.00  0.00    -0.174 P  
ENDBRANCH   7  26
ENDBRANCH   6   7
ENDBRANCH   5   6
BRANCH   5  31
HETATM   31  S   UNL     1      -9.025   9.760  69.715  1.00  0.00    -0.221 S  
HETATM   32  O   UNL     1     -10.201  10.515  70.096  1.00  0.00    -0.110 OA 
HETATM   33  O   UNL     1      -8.224   9.158  70.761  1.00  0.00    -0.164 OA 
BRANCH  31  34
HETATM   34  C   UNL     1      -9.620   8.439  68.725  1.00  0.00    -0.149 A  
HETATM   35  N   UNL     1     -10.764   5.267  66.252  1.00  0.00    -0.599 NA 
HETATM   36  C   UNL     1     -10.621   8.646  67.777  1.00  0.00    -0.249 A  
HETATM   37  H1  UNL     1     -10.332   4.349  66.356  1.00  0.00     0.000 HD 
HETATM   38  H2  UNL     1     -10.632   5.574  65.287  1.00  0.00     0.000 HD 
HETATM   39  C   UNL     1      -8.912   7.236  68.755  1.00  0.00    -0.129 A  
HETATM   40  C   UNL     1      -9.304   6.184  67.941  1.00  0.00    -0.113 A  
HETATM   41  C   UNL     1     -11.001   7.582  66.956  1.00  0.00    -0.106 A  
HETATM   42  C   UNL     1     -10.408   6.321  67.100  1.00  0.00    -0.229 A  
ENDBRANCH  31  34
ENDBRANCH   5  31
ENDBRANCH   4   5
TORSDOF 12
ENDMDL
MODEL      142
REMARK 921   NORMALIZED FREE ENERGY PREDICTED BY IDOCK:   -5.25 KCAL/MOL
REMARK 922        TOTAL FREE ENERGY PREDICTED BY IDOCK:  -11.73 KCAL/MOL
REMARK 923 INTER-LIGAND FREE ENERGY PREDICTED BY IDOCK:   -9.76 KCAL/MOL
REMARK 924 INTRA-LIGAND FREE ENERGY PREDICTED BY IDOCK:   -1.97 KCAL/MOL
REMARK 927      BINDING AFFINITY PREDICTED BY RF-SCORE:    0.00 PKD
ROOT
HETATM    1  C   UNL     1     -11.084   6.308  69.782  1.00  0.00    -0.473 C  
HETATM    2  C   UNL     1     -11.658   7.481  70.560  1.00  0.00    -0.224 C  
HETATM    3  C   UNL     1     -11.652   7.285  72.078  1.00  0.00    -0.311 C  
HETATM    4  C   UNL     1     -11.360   8.942  70.207  1.00  0.00    -0.159 C  
ENDROOT
BRANCH   4   5
HETATM    5  N   UNL     1     -10.105   9.521  69.643  1.00  0.00    -0.198 N  
BRANCH   5   6
HETATM    6  C   UNL     1     -10.410  11.016  69.327  1.00  0.00    -0.154 C  
BRANCH   6   7
HETATM    7  C   UNL     1      -9.954  11.541  67.890  1.00  0.00    -0.183 C  
BRANCH   7   8
HETATM    8  C   UNL     1      -9.729  13.134  67.897  1.00  0.00    -0.221 C  
BRANCH   8   9
HETATM    9  N   UNL     1      -9.997  13.743  69.212  1.00  0.00    -0.395 N  
HETATM   10  C   UNL     1     -11.004  14.660  69.379  1.00  0.00    -0.257 C  
HETATM   11  H   UNL     1      -9.423  13.478  70.013  1.00  0.00     0.000 HD 
HETATM   12  O   UNL     1     -11.794  15.016  68.521  1.00  0.00    -0.331 OA 
BRANCH  10  13
HETATM   13  O   UNL     1     -11.010  15.107  70.664  1.00  0.00    -0.279 OA 
BRANCH  13  14
HETATM   14  C   UNL     1     -12.257  15.673  71.103  1.00  0.00    -0.413 C  
HETATM   15  C   UNL     1     -13.395  14.679  71.159  1.00  0.00    -0.433 C  
HETATM   16  O   UNL     1     -13.417  15.883  73.190  1.00  0.00    -0.575 OA 
HETATM   17  C   UNL     1     -14.279  15.236  72.247  1.00  0.00    -0.547 C  
HETATM   18  C   UNL     1     -12.150  16.118  72.558  1.00  0.00    -0.550 C  
ENDBRANCH  13  14
ENDBRANCH  10  13
ENDBRANCH   8   9
BRANCH   8  19
HETATM   19  C   UNL     1      -8.407  13.671  67.299  1.00  0.00    -0.182 C  
BRANCH  19  20
HETATM   20  C   UNL     1      -8.260  15.161  67.150  1.00  0.00    -0.251 A  
HETATM   21  C   UNL     1      -7.228  17.257  67.805  1.00  0.00    -0.169 A  
HETATM   22  C   UNL     1      -9.149  17.265  66.341  1.00  0.00    -0.281 A  
HETATM   23  C   UNL     1      -9.190  15.873  66.384  1.00  0.00    -0.344 A  
HETATM   24  C   UNL     1      -7.273  15.863  67.856  1.00  0.00    -0.151 A  
HETATM   25  C   UNL     1      -8.171  17.956  67.054  1.00  0.00    -0.241 A  
ENDBRANCH  19  20
ENDBRANCH   8  19
ENDBRANCH   7   8
BRANCH   7  26
HETATM   26  O   UNL     1     -10.787  11.000  66.799  1.00  0.00    -0.267 OA 
HETATM   27  O   UNL     1      -9.252   9.522  64.307  1.00  0.00    -0.229 OA 
HETATM   28  O   UNL     1     -10.140   8.830  66.323  1.00  0.00    -0.291 OA 
HETATM   29  O   UNL     1      -8.505  10.630  66.019  1.00  0.00    -0.153 OA 
HETATM   30  P   UNL     1      -9.977  10.220  65.485  1.00  0.00    -0.254 P  
ENDBRANCH   7  26
ENDBRANCH   6   7
ENDBRANCH   5   6
BRANCH   5  31
HETATM   31  S   UNL     1      -8.521   9.363  70.263  1.00  0.00    -0.222 S  
HETATM   32  O   UNL     1      -8.582   9.228  71.704  1.00  0.00    -0.309 OA 
HETATM   33  O   UNL     1      -7.718  10.432  69.704  1.00  0.00    -0.153 OA 
BRANCH  31  34
HETATM   34  C   UNL     1      -7.817   7.863  69.684  1.00  0.00    -0.105 A  
HETATM   35  N   UNL     1      -6.412   4.213  68.203  1.00  0.00    -0.037 NA 
HETATM   36  C   UNL     1      -7.267   6.938  70.571  1.00  0.00    -0.072 A  
HETATM   37  H1  UNL     1      -6.451   4.012  67.204  1.00  0.00     0.000 HD 
HETATM   38  H2  UNL     1      -6.912   3.474  68.697  1.00  0.00     0.000 HD 
HETATM   39  C   UNL     1      -8.027   7.521  68.346  1.00  0.00    -0.123 A  
HETATM   40  C   UNL     1      -7.548   6.315  67.858  1.00  0.00    -0.102 A  
HETATM   41  C   UNL     1      -6.796   5.723  70.070  1.00  0.00    -0.060 A  
HETATM   42  C   UNL     1      -6.850   5.446  68.697  1.00  0.00    -0.059 A  
ENDBRANCH  31  34
ENDBRANCH   5  31
ENDBRANCH   4   5
TORSDOF 12
ENDMDL
MODEL      143
REMARK 921   NORMALIZED FREE ENERGY PREDICTED BY IDOCK:   -5.24 KCAL/MOL
REMARK 922        TOTAL FREE ENERGY PREDICTED BY IDOCK:  -11.72 KCAL/MOL
REMARK 923 INTER-LIGAND FREE ENERGY PREDICTED BY IDOCK:   -9.53 KCAL/MOL
REMARK 924 INTRA-LIGAND FREE ENERGY PREDICTED BY IDOCK:   -2.19 KCAL/MOL
REMARK 927      BINDING AFFINITY PREDICTED BY RF-SCORE:    0.00 PKD
ROOT
HETATM    1  C   UNL     1      -6.956  13.531  67.609  1.00  0.00    -0.176 C  
HETATM    2  C   UNL     1      -7.023  12.073  67.182  1.00  0.00    -0.134 C  
HETATM    3  C   UNL     1      -6.205  11.127  68.063  1.00  0.00    -0.049 C  
HETATM    4  C   UNL     1      -8.321  11.395  66.729  1.00  0.00    -0.163 C  
ENDROOT
BRANCH   4   5
HETATM    5  N   UNL     1      -9.713  11.650  67.204  1.00  0.00    -0.181 N  
BRANCH   5   6
HETATM    6  C   UNL     1      -9.662  11.625  68.761  1.00  0.00    -0.095 C  
BRANCH   6   7
HETATM    7  C   UNL     1     -10.413  10.409  69.473  1.00  0.00    -0.247 C  
BRANCH   7   8
HETATM    8  C   UNL     1      -9.922   8.996  68.885  1.00  0.00    -0.189 C  
BRANCH   8   9
HETATM    9  N   UNL     1      -9.743   7.972  69.930  1.00  0.00    -0.179 N  
HETATM   10  C   UNL     1      -8.513   7.731  70.486  1.00  0.00    -0.127 C  
HETATM   11  H   UNL     1     -10.550   7.433  70.245  1.00  0.00     0.000 HD 
HETATM   12  O   UNL     1      -7.486   8.342  70.240  1.00  0.00    -0.060 OA 
BRANCH  10  13
HETATM   13  O   UNL     1      -8.605   6.711  71.381  1.00  0.00    -0.125 OA 
BRANCH  13  14
HETATM   14  C   UNL     1      -9.920   6.497  71.924  1.00  0.00    -0.177 C  
HETATM   15  C   UNL     1     -10.269   5.040  72.126  1.00  0.00    -0.259 C  
HETATM   16  O   UNL     1     -10.854   6.182  74.108  1.00  0.00    -0.076 OA 
HETATM   17  C   UNL     1     -11.242   5.082  73.279  1.00  0.00    -0.338 C  
HETATM   18  C   UNL     1      -9.998   7.045  73.345  1.00  0.00    -0.259 C  
ENDBRANCH  13  14
ENDBRANCH  10  13
ENDBRANCH   8   9
BRANCH   8  19
HETATM   19  C   UNL     1     -10.694   8.419  67.674  1.00  0.00    -0.191 C  
BRANCH  19  20
HETATM   20  C   UNL     1     -10.144   7.182  67.017  1.00  0.00    -0.308 A  
HETATM   21  C   UNL     1     -10.280   4.808  66.537  1.00  0.00    -0.294 A  
HETATM   22  C   UNL     1      -8.278   6.037  65.978  1.00  0.00    -0.125 A  
HETATM   23  C   UNL     1      -8.855   7.206  66.471  1.00  0.00    -0.154 A  
HETATM   24  C   UNL     1     -10.857   5.975  67.040  1.00  0.00    -0.413 A  
HETATM   25  C   UNL     1      -8.989   4.839  66.014  1.00  0.00    -0.126 A  
ENDBRANCH  19  20
ENDBRANCH   8  19
ENDBRANCH   7   8
BRANCH   7  26
HETATM   26  O   UNL     1     -11.872  10.616  69.556  1.00  0.00    -0.286 OA 
HETATM   27  O   UNL     1     -13.347   9.913  72.398  1.00  0.00    -0.392 OA 
HETATM   28  O   UNL     1     -12.387  11.799  71.476  1.00  0.00    -0.156 OA 
HETATM   29  O   UNL     1     -11.310   9.610  71.707  1.00  0.00    -0.347 OA 
HETATM   30  P   UNL     1     -12.650  10.245  71.056  1.00  0.00    -0.434 P  
ENDBRANCH   7  26
ENDBRANCH   6   7
ENDBRANCH   5   6
BRANCH   5  31
HETATM   31  S   UNL     1     -10.783  12.871  66.671  1.00  0.00    -0.268 S  
HETATM   32  O   UNL     1     -12.081  12.286  66.405  1.00  0.00    -0.623 OA 
HETATM   33  O   UNL     1     -10.125  13.603  65.607  1.00  0.00    -0.293 OA 
BRANCH  31  34
HETATM   34  C   UNL     1     -11.046  14.020  67.971  1.00  0.00    -0.263 A  
HETATM   35  N   UNL     1     -11.416  16.668  71.187  1.00  0.00    -0.486 NA 
HETATM   36  C   UNL     1     -12.136  13.892  68.832  1.00  0.00    -0.355 A  
HETATM   37  H1  UNL     1     -10.731  17.410  71.326  1.00  0.00     0.000 HD 
HETATM   38  H2  UNL     1     -11.455  16.106  72.037  1.00  0.00     0.000 HD 
HETATM   39  C   UNL     1     -10.021  14.923  68.257  1.00  0.00    -0.222 A  
HETATM   40  C   UNL     1     -10.155  15.807  69.317  1.00  0.00    -0.255 A  
HETATM   41  C   UNL     1     -12.256  14.782  69.902  1.00  0.00    -0.358 A  
HETATM   42  C   UNL     1     -11.315  15.802  70.093  1.00  0.00    -0.355 A  
ENDBRANCH  31  34
ENDBRANCH   5  31
ENDBRANCH   4   5
TORSDOF 12
ENDMDL
MODEL      144
REMARK 921   NORMALIZED FREE ENERGY PREDICTED BY IDOCK:   -5.22 KCAL/MOL
REMARK 922        TOTAL FREE ENERGY PREDICTED BY IDOCK:  -11.69 KCAL/MOL
REMARK 923 INTER-LIGAND FREE ENERGY PREDICTED BY IDOCK:  -10.33 KCAL/MOL
REMARK 924 INTRA-LIGAND FREE ENERGY PREDICTED BY IDOCK:   -1.37 KCAL/MOL
REMARK 927      BINDING AFFINITY PREDICTED BY RF-SCORE:    0.00 PKD
ROOT
HETATM    1  C   UNL     1     -12.906  12.504  64.293  1.00  0.00    -0.350 C  
HETATM    2  C   UNL     1     -11.859  13.582  64.066  1.00  0.00    -0.476 C  
HETATM    3  C   UNL     1     -12.399  15.009  64.181  1.00  0.00    -0.167 C  
HETATM    4  C   UNL     1     -10.439  13.499  64.636  1.00  0.00    -0.421 C  
ENDROOT
BRANCH   4   5
HETATM    5  N   UNL     1      -9.991  12.891  65.923  1.00  0.00    -0.275 N  
BRANCH   5   6
HETATM    6  C   UNL     1     -10.920  13.470  67.033  1.00  0.00    -0.288 C  
BRANCH   6   7
HETATM    7  C   UNL     1     -10.300  14.628  67.940  1.00  0.00    -0.237 C  
BRANCH   7   8
HETATM    8  C   UNL     1      -8.889  15.133  67.356  1.00  0.00    -0.186 C  
BRANCH   8   9
HETATM    9  N   UNL     1      -7.903  14.045  67.224  1.00  0.00    -0.318 N  
HETATM   10  C   UNL     1      -6.592  14.228  67.584  1.00  0.00    -0.153 C  
HETATM   11  H   UNL     1      -8.201  13.141  66.858  1.00  0.00     0.000 HD 
HETATM   12  O   UNL     1      -6.122  15.235  68.086  1.00  0.00    -0.111 OA 
BRANCH  10  13
HETATM   13  O   UNL     1      -5.881  13.099  67.317  1.00  0.00    -0.343 OA 
BRANCH  13  14
HETATM   14  C   UNL     1      -5.413  12.388  68.478  1.00  0.00    -0.055 C  
HETATM   15  C   UNL     1      -6.442  12.270  69.579  1.00  0.00    -0.094 C  
HETATM   16  O   UNL     1      -5.499  10.127  69.268  1.00  0.00    -0.038 OA 
HETATM   17  C   UNL     1      -6.051  10.986  70.270  1.00  0.00    -0.144 C  
HETATM   18  C   UNL     1      -5.147  10.928  68.129  1.00  0.00    -0.036 C  
ENDBRANCH  13  14
ENDBRANCH  10  13
ENDBRANCH   8   9
BRANCH   8  19
HETATM   19  C   UNL     1      -8.916  16.010  66.083  1.00  0.00    -0.381 C  
BRANCH  19  20
HETATM   20  C   UNL     1      -9.187  17.481  66.251  1.00  0.00    -0.228 A  
HETATM   21  C   UNL     1      -8.596  19.644  67.179  1.00  0.00    -0.357 A  
HETATM   22  C   UNL     1     -10.734  19.339  66.097  1.00  0.00    -0.478 A  
HETATM   23  C   UNL     1     -10.412  18.010  65.830  1.00  0.00    -0.268 A  
HETATM   24  C   UNL     1      -8.276  18.310  66.921  1.00  0.00    -0.260 A  
HETATM   25  C   UNL     1      -9.829  20.154  66.773  1.00  0.00    -0.591 A  
ENDBRANCH  19  20
ENDBRANCH   8  19
ENDBRANCH   7   8
BRANCH   7  26
HETATM   26  O   UNL     1     -10.337  14.301  69.378  1.00  0.00    -0.121 OA 
HETATM   27  O   UNL     1     -12.446  15.963  71.260  1.00  0.00    -0.442 OA 
HETATM   28  O   UNL     1     -12.528  13.995  70.056  1.00  0.00    -0.335 OA 
HETATM   29  O   UNL     1     -11.873  16.187  69.177  1.00  0.00    -0.309 OA 
HETATM   30  P   UNL     1     -11.450  15.178  70.371  1.00  0.00    -0.324 P  
ENDBRANCH   7  26
ENDBRANCH   6   7
ENDBRANCH   5   6
BRANCH   5  31
HETATM   31  S   UNL     1      -9.663  11.243  66.232  1.00  0.00    -0.225 S  
HETATM   32  O   UNL     1      -8.230  11.043  66.283  1.00  0.00    -0.161 OA 
HETATM   33  O   UNL     1     -10.437  10.454  65.295  1.00  0.00    -0.249 OA 
BRANCH  31  34
HETATM   34  C   UNL     1     -10.250  10.825  67.833  1.00  0.00    -0.176 A  
HETATM   35  N   UNL     1     -11.551   9.550  71.597  1.00  0.00    -0.393 NA 
HETATM   36  C   UNL     1     -11.607  10.903  68.143  1.00  0.00    -0.317 A  
HETATM   37  H1  UNL     1     -10.881   9.208  72.286  1.00  0.00     0.000 HD 
HETATM   38  H2  UNL     1     -12.251   8.824  71.444  1.00  0.00     0.000 HD 
HETATM   39  C   UNL     1      -9.359  10.200  68.708  1.00  0.00    -0.168 A  
HETATM   40  C   UNL     1      -9.793   9.791  69.959  1.00  0.00    -0.295 A  
HETATM   41  C   UNL     1     -12.035  10.480  69.403  1.00  0.00    -0.230 A  
HETATM   42  C   UNL     1     -11.115  10.009  70.350  1.00  0.00    -0.327 A  
ENDBRANCH  31  34
ENDBRANCH   5  31
ENDBRANCH   4   5
TORSDOF 12
ENDMDL
MODEL      145
REMARK 921   NORMALIZED FREE ENERGY PREDICTED BY IDOCK:   -5.22 KCAL/MOL
REMARK 922        TOTAL FREE ENERGY PREDICTED BY IDOCK:  -11.69 KCAL/MOL
REMARK 923 INTER-LIGAND FREE ENERGY PREDICTED BY IDOCK:   -9.77 KCAL/MOL
REMARK 924 INTRA-LIGAND FREE ENERGY PREDICTED BY IDOCK:   -1.91 KCAL/MOL
REMARK 927      BINDING AFFINITY PREDICTED BY RF-SCORE:    0.00 PKD
ROOT
HETATM    1  C   UNL     1     -11.910  15.701  68.765  1.00  0.00    -0.336 C  
HETATM    2  C   UNL     1     -11.135  14.512  69.309  1.00  0.00    -0.296 C  
HETATM    3  C   UNL     1     -11.938  13.632  70.270  1.00  0.00    -0.397 C  
HETATM    4  C   UNL     1     -10.209  13.652  68.442  1.00  0.00    -0.245 C  
ENDROOT
BRANCH   4   5
HETATM    5  N   UNL     1     -10.353  13.301  66.999  1.00  0.00    -0.245 N  
BRANCH   5   6
HETATM    6  C   UNL     1     -11.259  12.035  66.940  1.00  0.00    -0.320 C  
BRANCH   6   7
HETATM    7  C   UNL     1     -10.511  10.626  67.005  1.00  0.00    -0.243 C  
BRANCH   7   8
HETATM    8  C   UNL     1     -11.006   9.762  68.268  1.00  0.00    -0.164 C  
BRANCH   8   9
HETATM    9  N   UNL     1     -10.788   8.315  68.092  1.00  0.00    -0.453 N  
HETATM   10  C   UNL     1      -9.550   7.755  68.282  1.00  0.00    -0.155 C  
HETATM   11  H   UNL     1     -11.572   7.719  67.824  1.00  0.00     0.000 HD 
HETATM   12  O   UNL     1      -8.550   8.342  68.657  1.00  0.00    -0.130 OA 
BRANCH  10  13
HETATM   13  O   UNL     1      -9.602   6.423  68.008  1.00  0.00    -0.120 OA 
BRANCH  13  14
HETATM   14  C   UNL     1      -9.713   6.094  66.611  1.00  0.00    -0.160 C  
HETATM   15  C   UNL     1      -8.388   5.807  65.943  1.00  0.00    -0.130 C  
HETATM   16  O   UNL     1      -9.875   4.083  65.319  1.00  0.00    -0.182 OA 
HETATM   17  C   UNL     1      -8.766   4.849  64.840  1.00  0.00    -0.150 C  
HETATM   18  C   UNL     1     -10.452   4.772  66.438  1.00  0.00    -0.239 C  
ENDBRANCH  13  14
ENDBRANCH  10  13
ENDBRANCH   8   9
BRANCH   8  19
HETATM   19  C   UNL     1     -10.546  10.222  69.672  1.00  0.00    -0.288 C  
BRANCH  19  20
HETATM   20  C   UNL     1     -11.347   9.757  70.859  1.00  0.00    -0.439 A  
HETATM   21  C   UNL     1     -11.608   8.324  72.798  1.00  0.00    -0.326 A  
HETATM   22  C   UNL     1     -13.477   9.634  72.007  1.00  0.00    -0.514 A  
HETATM   23  C   UNL     1     -12.681  10.158  70.990  1.00  0.00    -0.481 A  
HETATM   24  C   UNL     1     -10.813   8.841  71.775  1.00  0.00    -0.416 A  
HETATM   25  C   UNL     1     -12.942   8.715  72.908  1.00  0.00     0.054 A  
ENDBRANCH  19  20
ENDBRANCH   8  19
ENDBRANCH   7   8
BRANCH   7  26
HETATM   26  O   UNL     1      -9.052  10.751  66.825  1.00  0.00    -0.151 OA 
HETATM   27  O   UNL     1      -7.696   9.184  64.284  1.00  0.00    -0.111 OA 
HETATM   28  O   UNL     1      -8.578  11.290  64.626  1.00  0.00     0.114 OA 
HETATM   29  O   UNL     1      -9.713   9.168  65.089  1.00  0.00    -0.089 OA 
HETATM   30  P   UNL     1      -8.337   9.925  65.484  1.00  0.00    -0.156 P  
ENDBRANCH   7  26
ENDBRANCH   6   7
ENDBRANCH   5   6
BRANCH   5  31
HETATM   31  S   UNL     1     -10.731  14.355  65.709  1.00  0.00    -0.323 S  
HETATM   32  O   UNL     1     -12.134  14.707  65.775  1.00  0.00    -0.304 OA 
HETATM   33  O   UNL     1     -10.227  13.759  64.488  1.00  0.00    -0.414 OA 
BRANCH  31  34
HETATM   34  C   UNL     1      -9.861  15.864  65.918  1.00  0.00    -0.351 A  
HETATM   35  N   UNL     1      -7.703  19.364  66.684  1.00  0.00    -0.255 NA 
HETATM   36  C   UNL     1     -10.535  17.084  65.940  1.00  0.00    -0.282 A  
HETATM   37  H1  UNL     1      -6.695  19.327  66.831  1.00  0.00     0.000 HD 
HETATM   38  H2  UNL     1      -8.128  19.808  67.499  1.00  0.00     0.000 HD 
HETATM   39  C   UNL     1      -8.515  15.792  66.285  1.00  0.00    -0.245 A  
HETATM   40  C   UNL     1      -7.802  16.957  66.526  1.00  0.00    -0.330 A  
HETATM   41  C   UNL     1      -9.808  18.250  66.192  1.00  0.00    -0.264 A  
HETATM   42  C   UNL     1      -8.423  18.200  66.394  1.00  0.00    -0.238 A  
ENDBRANCH  31  34
ENDBRANCH   5  31
ENDBRANCH   4   5
TORSDOF 12
ENDMDL
MODEL      146
REMARK 921   NORMALIZED FREE ENERGY PREDICTED BY IDOCK:   -5.22 KCAL/MOL
REMARK 922        TOTAL FREE ENERGY PREDICTED BY IDOCK:  -11.68 KCAL/MOL
REMARK 923 INTER-LIGAND FREE ENERGY PREDICTED BY IDOCK:   -8.51 KCAL/MOL
REMARK 924 INTRA-LIGAND FREE ENERGY PREDICTED BY IDOCK:   -3.17 KCAL/MOL
REMARK 927      BINDING AFFINITY PREDICTED BY RF-SCORE:    0.00 PKD
ROOT
HETATM    1  C   UNL     1      -9.385   7.758  73.707  1.00  0.00    -0.286 C  
HETATM    2  C   UNL     1      -9.213   6.422  73.002  1.00  0.00    -0.137 C  
HETATM    3  C   UNL     1     -10.289   5.391  73.350  1.00  0.00    -0.244 C  
HETATM    4  C   UNL     1      -8.812   6.302  71.528  1.00  0.00    -0.138 C  
ENDROOT
BRANCH   4   5
HETATM    5  N   UNL     1      -9.157   7.214  70.398  1.00  0.00    -0.155 N  
BRANCH   5   6
HETATM    6  C   UNL     1      -8.100   6.956  69.282  1.00  0.00    -0.120 C  
BRANCH   6   7
HETATM    7  C   UNL     1      -7.335   8.240  68.723  1.00  0.00    -0.088 C  
BRANCH   7   8
HETATM    8  C   UNL     1      -7.168   8.168  67.125  1.00  0.00    -0.084 C  
BRANCH   8   9
HETATM    9  N   UNL     1      -8.171   7.298  66.484  1.00  0.00    -0.113 N  
HETATM   10  C   UNL     1      -7.795   6.287  65.636  1.00  0.00    -0.098 C  
HETATM   11  H   UNL     1      -9.161   7.450  66.675  1.00  0.00     0.000 HD 
HETATM   12  O   UNL     1      -6.649   5.964  65.372  1.00  0.00    -0.041 OA 
BRANCH  10  13
HETATM   13  O   UNL     1      -8.901   5.669  65.139  1.00  0.00    -0.138 OA 
BRANCH  13  14
HETATM   14  C   UNL     1      -8.661   4.383  64.540  1.00  0.00    -0.135 C  
HETATM   15  C   UNL     1      -8.838   3.222  65.492  1.00  0.00    -0.136 C  
HETATM   16  O   UNL     1      -9.998   2.684  63.507  1.00  0.00    -0.126 OA 
HETATM   17  C   UNL     1      -9.253   2.095  64.577  1.00  0.00    -0.132 C  
HETATM   18  C   UNL     1      -9.716   4.092  63.479  1.00  0.00    -0.143 C  
ENDBRANCH  13  14
ENDBRANCH  10  13
ENDBRANCH   8   9
BRANCH   8  19
HETATM   19  C   UNL     1      -7.030   9.505  66.360  1.00  0.00    -0.088 C  
BRANCH  19  20
HETATM   20  C   UNL     1      -8.290  10.161  65.861  1.00  0.00    -0.137 A  
HETATM   21  C   UNL     1     -10.414  11.252  66.290  1.00  0.00    -0.308 A  
HETATM   22  C   UNL     1      -9.845  10.562  64.047  1.00  0.00    -0.387 A  
HETATM   23  C   UNL     1      -8.621  10.077  64.504  1.00  0.00    -0.197 A  
HETATM   24  C   UNL     1      -9.192  10.760  66.752  1.00  0.00    -0.174 A  
HETATM   25  C   UNL     1     -10.742  11.145  64.939  1.00  0.00    -0.318 A  
ENDBRANCH  19  20
ENDBRANCH   8  19
ENDBRANCH   7   8
BRANCH   7  26
HETATM   26  O   UNL     1      -6.120   8.558  69.497  1.00  0.00    -0.035 OA 
HETATM   27  O   UNL     1      -6.066  11.391  71.145  1.00  0.00    -0.324 OA 
HETATM   28  O   UNL     1      -6.705   9.228  71.633  1.00  0.00    -0.267 OA 
HETATM   29  O   UNL     1      -7.493  10.561  69.734  1.00  0.00    -0.154 OA 
HETATM   30  P   UNL     1      -6.092  10.053  70.367  1.00  0.00    -0.116 P  
ENDBRANCH   7  26
ENDBRANCH   6   7
ENDBRANCH   5   6
BRANCH   5  31
HETATM   31  S   UNL     1     -10.697   7.465  69.701  1.00  0.00    -0.213 S  
HETATM   32  O   UNL     1     -11.549   6.334  70.005  1.00  0.00    -0.425 OA 
HETATM   33  O   UNL     1     -10.501   7.826  68.311  1.00  0.00    -0.201 OA 
BRANCH  31  34
HETATM   34  C   UNL     1     -11.463   8.845  70.467  1.00  0.00    -0.200 A  
HETATM   35  N   UNL     1     -13.550  12.005  72.242  1.00  0.00    -0.504 NA 
HETATM   36  C   UNL     1     -11.351  10.123  69.921  1.00  0.00    -0.335 A  
HETATM   37  H1  UNL     1     -14.116  11.847  73.076  1.00  0.00     0.000 HD 
HETATM   38  H2  UNL     1     -14.149  12.413  71.523  1.00  0.00     0.000 HD 
HETATM   39  C   UNL     1     -12.367   8.595  71.502  1.00  0.00    -0.370 A  
HETATM   40  C   UNL     1     -13.047   9.648  72.094  1.00  0.00    -0.520 A  
HETATM   41  C   UNL     1     -12.047  11.175  70.520  1.00  0.00    -0.474 A  
HETATM   42  C   UNL     1     -12.824  10.958  71.666  1.00  0.00    -0.449 A  
ENDBRANCH  31  34
ENDBRANCH   5  31
ENDBRANCH   4   5
TORSDOF 12
ENDMDL
MODEL      147
REMARK 921   NORMALIZED FREE ENERGY PREDICTED BY IDOCK:   -5.22 KCAL/MOL
REMARK 922        TOTAL FREE ENERGY PREDICTED BY IDOCK:  -11.68 KCAL/MOL
REMARK 923 INTER-LIGAND FREE ENERGY PREDICTED BY IDOCK:   -8.72 KCAL/MOL
REMARK 924 INTRA-LIGAND FREE ENERGY PREDICTED BY IDOCK:   -2.96 KCAL/MOL
REMARK 927      BINDING AFFINITY PREDICTED BY RF-SCORE:    0.00 PKD
ROOT
HETATM    1  C   UNL     1      -6.832  11.504  66.833  1.00  0.00    -0.138 C  
HETATM    2  C   UNL     1      -7.438  11.789  68.197  1.00  0.00    -0.098 C  
HETATM    3  C   UNL     1      -7.059  13.155  68.774  1.00  0.00    -0.098 C  
HETATM    4  C   UNL     1      -8.885  11.438  68.558  1.00  0.00    -0.151 C  
ENDROOT
BRANCH   4   5
HETATM    5  N   UNL     1     -10.087  11.440  67.673  1.00  0.00    -0.178 N  
BRANCH   5   6
HETATM    6  C   UNL     1     -11.058  10.362  68.241  1.00  0.00    -0.281 C  
BRANCH   6   7
HETATM    7  C   UNL     1     -10.379   9.084  68.914  1.00  0.00    -0.215 C  
BRANCH   7   8
HETATM    8  C   UNL     1      -9.600   8.196  67.823  1.00  0.00    -0.151 C  
BRANCH   8   9
HETATM    9  N   UNL     1      -9.491   6.778  68.212  1.00  0.00    -0.126 N  
HETATM   10  C   UNL     1      -8.294   6.241  68.613  1.00  0.00    -0.112 C  
HETATM   11  H   UNL     1     -10.321   6.186  68.182  1.00  0.00     0.000 HD 
HETATM   12  O   UNL     1      -7.247   6.851  68.748  1.00  0.00    -0.086 OA 
BRANCH  10  13
HETATM   13  O   UNL     1      -8.449   4.913  68.864  1.00  0.00    -0.083 OA 
BRANCH  13  14
HETATM   14  C   UNL     1      -9.117   4.172  67.827  1.00  0.00    -0.136 C  
HETATM   15  C   UNL     1      -8.313   4.043  66.553  1.00  0.00    -0.104 C  
HETATM   16  O   UNL     1      -9.147   1.896  67.077  1.00  0.00    -0.127 OA 
HETATM   17  C   UNL     1      -8.807   2.740  65.972  1.00  0.00    -0.136 C  
HETATM   18  C   UNL     1      -9.289   2.717  68.247  1.00  0.00    -0.201 C  
ENDBRANCH  13  14
ENDBRANCH  10  13
ENDBRANCH   8   9
BRANCH   8  19
HETATM   19  C   UNL     1     -10.040   8.331  66.346  1.00  0.00    -0.222 C  
BRANCH  19  20
HETATM   20  C   UNL     1      -9.064   8.941  65.377  1.00  0.00    -0.222 A  
HETATM   21  C   UNL     1      -8.576  10.452  63.543  1.00  0.00    -0.188 A  
HETATM   22  C   UNL     1      -6.913   8.856  64.265  1.00  0.00    -0.089 A  
HETATM   23  C   UNL     1      -7.784   8.391  65.249  1.00  0.00    -0.098 A  
HETATM   24  C   UNL     1      -9.453   9.981  64.521  1.00  0.00    -0.359 A  
HETATM   25  C   UNL     1      -7.310   9.883  63.411  1.00  0.00    -0.134 A  
ENDBRANCH  19  20
ENDBRANCH   8  19
ENDBRANCH   7   8
BRANCH   7  26
HETATM   26  O   UNL     1     -11.299   8.363  69.814  1.00  0.00    -0.050 OA 
HETATM   27  O   UNL     1     -10.471   8.145  72.979  1.00  0.00    -0.325 OA 
HETATM   28  O   UNL     1     -11.698   9.630  71.707  1.00  0.00    -0.388 OA 
HETATM   29  O   UNL     1      -9.402   8.908  71.249  1.00  0.00    -0.223 OA 
HETATM   30  P   UNL     1     -10.862   8.248  71.484  1.00  0.00    -0.287 P  
ENDBRANCH   7  26
ENDBRANCH   6   7
ENDBRANCH   5   6
BRANCH   5  31
HETATM   31  S   UNL     1     -10.970  12.798  67.127  1.00  0.00    -0.272 S  
HETATM   32  O   UNL     1     -12.263  12.363  66.643  1.00  0.00    -0.562 OA 
HETATM   33  O   UNL     1     -10.116  13.552  66.232  1.00  0.00    -0.283 OA 
BRANCH  31  34
HETATM   34  C   UNL     1     -11.312  13.853  68.488  1.00  0.00    -0.280 A  
HETATM   35  N   UNL     1     -11.835  16.368  71.788  1.00  0.00    -0.662 NA 
HETATM   36  C   UNL     1     -12.100  13.418  69.553  1.00  0.00    -0.334 A  
HETATM   37  H1  UNL     1     -11.410  17.295  71.803  1.00  0.00     0.000 HD 
HETATM   38  H2  UNL     1     -11.515  15.856  72.610  1.00  0.00     0.000 HD 
HETATM   39  C   UNL     1     -10.593  15.046  68.580  1.00  0.00    -0.237 A  
HETATM   40  C   UNL     1     -10.781  15.882  69.671  1.00  0.00    -0.304 A  
HETATM   41  C   UNL     1     -12.274  14.264  70.650  1.00  0.00    -0.427 A  
HETATM   42  C   UNL     1     -11.691  15.537  70.671  1.00  0.00    -0.357 A  
ENDBRANCH  31  34
ENDBRANCH   5  31
ENDBRANCH   4   5
TORSDOF 12
ENDMDL
MODEL      148
REMARK 921   NORMALIZED FREE ENERGY PREDICTED BY IDOCK:   -5.21 KCAL/MOL
REMARK 922        TOTAL FREE ENERGY PREDICTED BY IDOCK:  -11.67 KCAL/MOL
REMARK 923 INTER-LIGAND FREE ENERGY PREDICTED BY IDOCK:   -9.22 KCAL/MOL
REMARK 924 INTRA-LIGAND FREE ENERGY PREDICTED BY IDOCK:   -2.44 KCAL/MOL
REMARK 927      BINDING AFFINITY PREDICTED BY RF-SCORE:    0.00 PKD
ROOT
HETATM    1  C   UNL     1     -12.103  13.269  68.693  1.00  0.00    -0.257 C  
HETATM    2  C   UNL     1     -11.144  12.175  69.134  1.00  0.00    -0.263 C  
HETATM    3  C   UNL     1     -11.790  11.089  69.996  1.00  0.00    -0.435 C  
HETATM    4  C   UNL     1     -10.091  11.564  68.203  1.00  0.00    -0.193 C  
ENDROOT
BRANCH   4   5
HETATM    5  N   UNL     1     -10.179  11.333  66.731  1.00  0.00    -0.218 N  
BRANCH   5   6
HETATM    6  C   UNL     1     -10.592   9.843  66.540  1.00  0.00    -0.086 C  
BRANCH   6   7
HETATM    7  C   UNL     1      -9.401   8.781  66.483  1.00  0.00    -0.203 C  
BRANCH   7   8
HETATM    8  C   UNL     1      -9.563   7.662  67.627  1.00  0.00    -0.145 C  
BRANCH   8   9
HETATM    9  N   UNL     1      -9.029   6.349  67.223  1.00  0.00    -0.107 N  
HETATM   10  C   UNL     1      -9.844   5.388  66.681  1.00  0.00    -0.174 C  
HETATM   11  H   UNL     1      -8.037   6.152  67.348  1.00  0.00     0.000 HD 
HETATM   12  O   UNL     1     -11.030   5.516  66.426  1.00  0.00    -0.232 OA 
BRANCH  10  13
HETATM   13  O   UNL     1      -9.125   4.257  66.444  1.00  0.00    -0.119 OA 
BRANCH  13  14
HETATM   14  C   UNL     1      -9.460   3.570  65.225  1.00  0.00    -0.154 C  
HETATM   15  C   UNL     1      -8.828   4.171  63.991  1.00  0.00    -0.126 C  
HETATM   16  O   UNL     1      -8.473   1.839  63.894  1.00  0.00    -0.076 OA 
HETATM   17  C   UNL     1      -8.695   2.986  63.066  1.00  0.00    -0.085 C  
HETATM   18  C   UNL     1      -8.870   2.164  65.234  1.00  0.00    -0.123 C  
ENDBRANCH  13  14
ENDBRANCH  10  13
ENDBRANCH   8   9
BRANCH   8  19
HETATM   19  C   UNL     1      -9.098   8.030  69.056  1.00  0.00    -0.144 C  
BRANCH  19  20
HETATM   20  C   UNL     1     -10.064   7.800  70.188  1.00  0.00    -0.197 A  
HETATM   21  C   UNL     1     -12.168   6.929  71.024  1.00  0.00    -0.427 A  
HETATM   22  C   UNL     1     -10.815   8.360  72.422  1.00  0.00    -0.416 A  
HETATM   23  C   UNL     1      -9.863   8.454  71.409  1.00  0.00    -0.259 A  
HETATM   24  C   UNL     1     -11.220   7.030  70.005  1.00  0.00    -0.310 A  
HETATM   25  C   UNL     1     -11.968   7.601  72.229  1.00  0.00    -0.329 A  
ENDBRANCH  19  20
ENDBRANCH   8  19
ENDBRANCH   7   8
BRANCH   7  26
HETATM   26  O   UNL     1      -8.076   9.421  66.373  1.00  0.00    -0.107 OA 
HETATM   27  O   UNL     1      -6.149   8.505  63.884  1.00  0.00    -0.070 OA 
HETATM   28  O   UNL     1      -7.737  10.150  64.204  1.00  0.00    -0.145 OA 
HETATM   29  O   UNL     1      -8.058   7.752  64.593  1.00  0.00    -0.145 OA 
HETATM   30  P   UNL     1      -7.060   8.938  65.059  1.00  0.00    -0.085 P  
ENDBRANCH   7  26
ENDBRANCH   6   7
ENDBRANCH   5   6
BRANCH   5  31
HETATM   31  S   UNL     1     -10.964  12.313  65.573  1.00  0.00    -0.309 S  
HETATM   32  O   UNL     1     -12.391  12.297  65.822  1.00  0.00    -0.622 OA 
HETATM   33  O   UNL     1     -10.489  11.917  64.262  1.00  0.00    -0.280 OA 
BRANCH  31  34
HETATM   34  C   UNL     1     -10.470  13.982  65.793  1.00  0.00    -0.309 A  
HETATM   35  N   UNL     1      -9.294  17.989  66.024  1.00  0.00    -0.521 NA 
HETATM   36  C   UNL     1      -9.248  14.297  66.386  1.00  0.00    -0.226 A  
HETATM   37  H1  UNL     1      -9.904  18.727  65.671  1.00  0.00     0.000 HD 
HETATM   38  H2  UNL     1      -8.393  18.066  65.552  1.00  0.00     0.000 HD 
HETATM   39  C   UNL     1     -11.225  14.972  65.160  1.00  0.00    -0.391 A  
HETATM   40  C   UNL     1     -10.836  16.300  65.250  1.00  0.00    -0.310 A  
HETATM   41  C   UNL     1      -8.863  15.637  66.464  1.00  0.00    -0.345 A  
HETATM   42  C   UNL     1      -9.699  16.651  65.979  1.00  0.00    -0.278 A  
ENDBRANCH  31  34
ENDBRANCH   5  31
ENDBRANCH   4   5
TORSDOF 12
ENDMDL
MODEL      149
REMARK 921   NORMALIZED FREE ENERGY PREDICTED BY IDOCK:   -5.19 KCAL/MOL
REMARK 922        TOTAL FREE ENERGY PREDICTED BY IDOCK:  -11.64 KCAL/MOL
REMARK 923 INTER-LIGAND FREE ENERGY PREDICTED BY IDOCK:   -8.08 KCAL/MOL
REMARK 924 INTRA-LIGAND FREE ENERGY PREDICTED BY IDOCK:   -3.55 KCAL/MOL
REMARK 927      BINDING AFFINITY PREDICTED BY RF-SCORE:    0.00 PKD
ROOT
HETATM    1  C   UNL     1     -13.154   9.720  70.354  1.00  0.00     0.168 C  
HETATM    2  C   UNL     1     -12.209  10.879  70.630  1.00  0.00    -0.472 C  
HETATM    3  C   UNL     1     -12.340  11.468  72.036  1.00  0.00     0.606 C  
HETATM    4  C   UNL     1     -10.744  10.886  70.181  1.00  0.00     0.122 C  
ENDROOT
BRANCH   4   5
HETATM    5  N   UNL     1      -9.805   9.732  70.068  1.00  0.00    -0.241 N  
BRANCH   5   6
HETATM    6  C   UNL     1      -8.530  10.267  69.349  1.00  0.00    -0.160 C  
BRANCH   6   7
HETATM    7  C   UNL     1      -8.775  11.265  68.127  1.00  0.00    -0.155 C  
BRANCH   7   8
HETATM    8  C   UNL     1      -9.525  10.525  66.912  1.00  0.00    -0.165 C  
BRANCH   8   9
HETATM    9  N   UNL     1     -10.058  11.465  65.910  1.00  0.00    -0.233 N  
HETATM   10  C   UNL     1     -11.253  12.109  66.106  1.00  0.00    -0.338 C  
HETATM   11  H   UNL     1      -9.528  11.641  65.057  1.00  0.00     0.000 HD 
HETATM   12  O   UNL     1     -11.952  12.032  67.103  1.00  0.00    -0.601 OA 
BRANCH  10  13
HETATM   13  O   UNL     1     -11.545  12.876  65.021  1.00  0.00    -0.310 OA 
BRANCH  13  14
HETATM   14  C   UNL     1     -11.655  14.286  65.286  1.00  0.00    -0.348 C  
HETATM   15  C   UNL     1     -10.344  15.031  65.185  1.00  0.00    -0.422 C  
HETATM   16  O   UNL     1     -11.949  16.270  63.975  1.00  0.00    -0.955 OA 
HETATM   17  C   UNL     1     -10.774  16.420  64.779  1.00  0.00    -0.076 C  
HETATM   18  C   UNL     1     -12.491  14.961  64.204  1.00  0.00    -0.065 C  
ENDBRANCH  13  14
ENDBRANCH  10  13
ENDBRANCH   8   9
BRANCH   8  19
HETATM   19  C   UNL     1      -8.786   9.350  66.226  1.00  0.00    -0.172 C  
BRANCH  19  20
HETATM   20  C   UNL     1      -9.410   7.983  66.314  1.00  0.00    -0.246 A  
HETATM   21  C   UNL     1     -11.143   6.503  67.146  1.00  0.00    -0.434 A  
HETATM   22  C   UNL     1      -9.206   5.586  66.033  1.00  0.00    -0.168 A  
HETATM   23  C   UNL     1      -8.704   6.872  65.841  1.00  0.00    -0.146 A  
HETATM   24  C   UNL     1     -10.638   7.791  66.963  1.00  0.00    -0.396 A  
HETATM   25  C   UNL     1     -10.422   5.402  66.688  1.00  0.00    -0.356 A  
ENDBRANCH  19  20
ENDBRANCH   8  19
ENDBRANCH   7   8
BRANCH   7  26
HETATM   26  O   UNL     1      -7.569  12.041  67.780  1.00  0.00    -0.111 OA 
HETATM   27  O   UNL     1      -7.715  15.300  68.108  1.00  0.00    -0.111 OA 
HETATM   28  O   UNL     1      -7.093  13.545  69.472  1.00  0.00     0.030 OA 
HETATM   29  O   UNL     1      -9.230  13.755  68.292  1.00  0.00    -0.198 OA 
HETATM   30  P   UNL     1      -7.646  13.761  67.954  1.00  0.00    -0.196 P  
ENDBRANCH   7  26
ENDBRANCH   6   7
ENDBRANCH   5   6
BRANCH   5  31
HETATM   31  S   UNL     1      -9.366   8.629  71.297  1.00  0.00    -0.248 S  
HETATM   32  O   UNL     1     -10.365   8.658  72.344  1.00  0.00    -0.319 OA 
HETATM   33  O   UNL     1      -7.985   8.888  71.653  1.00  0.00    -0.278 OA 
BRANCH  31  34
HETATM   34  C   UNL     1      -9.412   6.996  70.654  1.00  0.00    -0.165 A  
HETATM   35  N   UNL     1      -9.531   3.007  69.403  1.00  0.00    -0.148 NA 
HETATM   36  C   UNL     1      -8.346   6.486  69.914  1.00  0.00    -0.131 A  
HETATM   37  H1  UNL     1     -10.339   2.423  69.618  1.00  0.00     0.000 HD 
HETATM   38  H2  UNL     1      -8.698   2.550  69.774  1.00  0.00     0.000 HD 
HETATM   39  C   UNL     1     -10.435   6.154  71.093  1.00  0.00    -0.281 A  
HETATM   40  C   UNL     1     -10.476   4.836  70.665  1.00  0.00    -0.087 A  
HETATM   41  C   UNL     1      -8.393   5.154  69.495  1.00  0.00    -0.093 A  
HETATM   42  C   UNL     1      -9.503   4.351  69.790  1.00  0.00    -0.184 A  
ENDBRANCH  31  34
ENDBRANCH   5  31
ENDBRANCH   4   5
TORSDOF 12
ENDMDL
MODEL      150
REMARK 921   NORMALIZED FREE ENERGY PREDICTED BY IDOCK:   -5.18 KCAL/MOL
REMARK 922        TOTAL FREE ENERGY PREDICTED BY IDOCK:  -11.63 KCAL/MOL
REMARK 923 INTER-LIGAND FREE ENERGY PREDICTED BY IDOCK:   -9.37 KCAL/MOL
REMARK 924 INTRA-LIGAND FREE ENERGY PREDICTED BY IDOCK:   -2.25 KCAL/MOL
REMARK 927      BINDING AFFINITY PREDICTED BY RF-SCORE:    0.00 PKD
ROOT
HETATM    1  C   UNL     1     -12.074   8.464  70.838  1.00  0.00    -0.152 C  
HETATM    2  C   UNL     1     -10.901   8.940  71.679  1.00  0.00    -0.420 C  
HETATM    3  C   UNL     1     -10.495   7.967  72.789  1.00  0.00    -0.415 C  
HETATM    4  C   UNL     1      -9.663   9.614  71.079  1.00  0.00     0.019 C  
ENDROOT
BRANCH   4   5
HETATM    5  N   UNL     1      -9.021   9.362  69.756  1.00  0.00    -0.172 N  
BRANCH   5   6
HETATM    6  C   UNL     1      -8.228  10.653  69.395  1.00  0.00    -0.078 C  
BRANCH   6   7
HETATM    7  C   UNL     1      -9.008  11.743  68.527  1.00  0.00    -0.132 C  
BRANCH   7   8
HETATM    8  C   UNL     1     -10.480  11.228  68.134  1.00  0.00    -0.189 C  
BRANCH   8   9
HETATM    9  N   UNL     1     -11.515  11.675  69.083  1.00  0.00    -0.273 N  
HETATM   10  C   UNL     1     -12.134  12.891  68.939  1.00  0.00    -0.142 C  
HETATM   11  H   UNL     1     -11.777  11.069  69.861  1.00  0.00     0.000 HD 
HETATM   12  O   UNL     1     -11.956  13.679  68.026  1.00  0.00    -0.360 OA 
BRANCH  10  13
HETATM   13  O   UNL     1     -13.005  13.088  69.966  1.00  0.00     0.296 OA 
BRANCH  13  14
HETATM   14  C   UNL     1     -12.465  13.806  71.090  1.00  0.00    -0.370 C  
HETATM   15  C   UNL     1     -12.619  15.306  70.988  1.00  0.00    -0.469 C  
HETATM   16  O   UNL     1     -13.319  14.676  73.154  1.00  0.00    -0.560 OA 
HETATM   17  C   UNL     1     -12.687  15.738  72.433  1.00  0.00    -0.453 C  
HETATM   18  C   UNL     1     -13.262  13.487  72.351  1.00  0.00    -0.477 C  
ENDBRANCH  13  14
ENDBRANCH  10  13
ENDBRANCH   8   9
BRANCH   8  19
HETATM   19  C   UNL     1     -10.944  11.440  66.673  1.00  0.00    -0.341 C  
BRANCH  19  20
HETATM   20  C   UNL     1     -10.265  10.634  65.599  1.00  0.00    -0.319 A  
HETATM   21  C   UNL     1      -8.654   8.951  64.922  1.00  0.00    -0.198 A  
HETATM   22  C   UNL     1      -9.721  10.337  63.257  1.00  0.00    -0.230 A  
HETATM   23  C   UNL     1     -10.443  10.986  64.256  1.00  0.00    -0.427 A  
HETATM   24  C   UNL     1      -9.370   9.605  65.925  1.00  0.00    -0.275 A  
HETATM   25  C   UNL     1      -8.824   9.323  63.589  1.00  0.00    -0.146 A  
ENDBRANCH  19  20
ENDBRANCH   8  19
ENDBRANCH   7   8
BRANCH   7  26
HETATM   26  O   UNL     1      -8.187  12.287  67.430  1.00  0.00    -0.159 OA 
HETATM   27  O   UNL     1      -7.406  15.469  67.550  1.00  0.00    -0.152 OA 
HETATM   28  O   UNL     1      -6.431  13.517  68.301  1.00  0.00    -0.082 OA 
HETATM   29  O   UNL     1      -8.719  14.251  68.777  1.00  0.00    -0.167 OA 
HETATM   30  P   UNL     1      -7.775  13.966  67.494  1.00  0.00    -0.122 P  
ENDBRANCH   7  26
ENDBRANCH   6   7
ENDBRANCH   5   6
BRANCH   5  31
HETATM   31  S   UNL     1      -8.139   7.978  69.279  1.00  0.00    -0.120 S  
HETATM   32  O   UNL     1      -7.872   7.157  70.441  1.00  0.00    -0.097 OA 
HETATM   33  O   UNL     1      -7.018   8.423  68.475  1.00  0.00    -0.066 OA 
BRANCH  31  34
HETATM   34  C   UNL     1      -9.137   6.988  68.228  1.00  0.00    -0.126 A  
HETATM   35  N   UNL     1     -11.332   4.699  65.501  1.00  0.00    -0.932 NA 
HETATM   36  C   UNL     1     -10.472   7.312  67.991  1.00  0.00    -0.249 A  
HETATM   37  H1  UNL     1     -10.902   3.902  65.033  1.00  0.00     0.000 HD 
HETATM   38  H2  UNL     1     -11.684   5.337  64.787  1.00  0.00     0.000 HD 
HETATM   39  C   UNL     1      -8.502   6.006  67.465  1.00  0.00    -0.107 A  
HETATM   40  C   UNL     1      -9.237   5.243  66.571  1.00  0.00    -0.139 A  
HETATM   41  C   UNL     1     -11.201   6.542  67.082  1.00  0.00    -0.313 A  
HETATM   42  C   UNL     1     -10.611   5.446  66.439  1.00  0.00    -0.260 A  
ENDBRANCH  31  34
ENDBRANCH   5  31
ENDBRANCH   4   5
TORSDOF 12
ENDMDL
MODEL      151
REMARK 921   NORMALIZED FREE ENERGY PREDICTED BY IDOCK:   -5.18 KCAL/MOL
REMARK 922        TOTAL FREE ENERGY PREDICTED BY IDOCK:  -11.61 KCAL/MOL
REMARK 923 INTER-LIGAND FREE ENERGY PREDICTED BY IDOCK:   -9.87 KCAL/MOL
REMARK 924 INTRA-LIGAND FREE ENERGY PREDICTED BY IDOCK:   -1.74 KCAL/MOL
REMARK 927      BINDING AFFINITY PREDICTED BY RF-SCORE:    0.00 PKD
ROOT
HETATM    1  C   UNL     1      -7.473   7.827  67.292  1.00  0.00    -0.093 C  
HETATM    2  C   UNL     1      -8.848   7.188  67.393  1.00  0.00    -0.119 C  
HETATM    3  C   UNL     1      -8.850   5.817  68.071  1.00  0.00    -0.109 C  
HETATM    4  C   UNL     1     -10.108   7.975  67.772  1.00  0.00    -0.195 C  
ENDROOT
BRANCH   4   5
HETATM    5  N   UNL     1     -10.229   9.136  68.702  1.00  0.00    -0.199 N  
BRANCH   5   6
HETATM    6  C   UNL     1     -10.940  10.270  67.905  1.00  0.00    -0.292 C  
BRANCH   6   7
HETATM    7  C   UNL     1      -9.993  11.255  67.079  1.00  0.00    -0.198 C  
BRANCH   7   8
HETATM    8  C   UNL     1      -9.996  12.733  67.713  1.00  0.00    -0.219 C  
BRANCH   8   9
HETATM    9  N   UNL     1     -10.736  12.808  68.986  1.00  0.00    -0.415 N  
HETATM   10  C   UNL     1     -11.505  13.900  69.297  1.00  0.00    -0.297 C  
HETATM   11  H   UNL     1     -10.676  12.033  69.646  1.00  0.00     0.000 HD 
HETATM   12  O   UNL     1     -11.706  14.862  68.574  1.00  0.00    -0.306 OA 
BRANCH  10  13
HETATM   13  O   UNL     1     -12.037  13.748  70.540  1.00  0.00    -0.330 OA 
BRANCH  13  14
HETATM   14  C   UNL     1     -12.449  14.970  71.178  1.00  0.00    -0.334 C  
HETATM   15  C   UNL     1     -13.591  14.797  72.153  1.00  0.00    -0.518 C  
HETATM   16  O   UNL     1     -11.943  16.102  73.228  1.00  0.00    -0.465 OA 
HETATM   17  C   UNL     1     -13.359  15.909  73.147  1.00  0.00    -0.587 C  
HETATM   18  C   UNL     1     -11.336  15.496  72.078  1.00  0.00    -0.358 C  
ENDBRANCH  13  14
ENDBRANCH  10  13
ENDBRANCH   8   9
BRANCH   8  19
HETATM   19  C   UNL     1      -8.638  13.466  67.821  1.00  0.00    -0.194 C  
BRANCH  19  20
HETATM   20  C   UNL     1      -7.403  12.630  68.022  1.00  0.00    -0.114 A  
HETATM   21  C   UNL     1      -5.738  11.086  67.168  1.00  0.00    -0.059 A  
HETATM   22  C   UNL     1      -5.847  11.554  69.535  1.00  0.00    -0.077 A  
HETATM   23  C   UNL     1      -6.908  12.431  69.315  1.00  0.00    -0.028 A  
HETATM   24  C   UNL     1      -6.806  11.956  66.947  1.00  0.00    -0.075 A  
HETATM   25  C   UNL     1      -5.265  10.880  68.464  1.00  0.00    -0.040 A  
ENDBRANCH  19  20
ENDBRANCH   8  19
ENDBRANCH   7   8
BRANCH   7  26
HETATM   26  O   UNL     1     -10.213  11.163  65.623  1.00  0.00    -0.239 OA 
HETATM   27  O   UNL     1     -12.839  12.686  64.385  1.00  0.00    -0.712 OA 
HETATM   28  O   UNL     1     -10.637  13.268  64.762  1.00  0.00    -0.341 OA 
HETATM   29  O   UNL     1     -12.183  12.356  66.429  1.00  0.00    -0.604 OA 
HETATM   30  P   UNL     1     -11.598  11.967  64.970  1.00  0.00    -0.154 P  
ENDBRANCH   7  26
ENDBRANCH   6   7
ENDBRANCH   5   6
BRANCH   5  31
HETATM   31  S   UNL     1     -10.786   9.116  70.318  1.00  0.00    -0.244 S  
HETATM   32  O   UNL     1     -11.776   8.071  70.469  1.00  0.00    -0.206 OA 
HETATM   33  O   UNL     1     -11.153  10.472  70.676  1.00  0.00    -0.292 OA 
BRANCH  31  34
HETATM   34  C   UNL     1      -9.465   8.665  71.381  1.00  0.00    -0.237 A  
HETATM   35  N   UNL     1      -6.420   7.790  74.111  1.00  0.00    -0.090 NA 
HETATM   36  C   UNL     1      -8.138   8.872  71.006  1.00  0.00    -0.205 A  
HETATM   37  H1  UNL     1      -6.644   7.409  75.030  1.00  0.00     0.000 HD 
HETATM   38  H2  UNL     1      -5.878   8.644  74.243  1.00  0.00     0.000 HD 
HETATM   39  C   UNL     1      -9.781   8.307  72.694  1.00  0.00    -0.357 A  
HETATM   40  C   UNL     1      -8.767   8.006  73.590  1.00  0.00    -0.332 A  
HETATM   41  C   UNL     1      -7.125   8.574  71.920  1.00  0.00    -0.106 A  
HETATM   42  C   UNL     1      -7.433   8.052  73.183  1.00  0.00    -0.133 A  
ENDBRANCH  31  34
ENDBRANCH   5  31
ENDBRANCH   4   5
TORSDOF 12
ENDMDL
MODEL      152
REMARK 921   NORMALIZED FREE ENERGY PREDICTED BY IDOCK:   -5.17 KCAL/MOL
REMARK 922        TOTAL FREE ENERGY PREDICTED BY IDOCK:  -11.60 KCAL/MOL
REMARK 923 INTER-LIGAND FREE ENERGY PREDICTED BY IDOCK:   -9.02 KCAL/MOL
REMARK 924 INTRA-LIGAND FREE ENERGY PREDICTED BY IDOCK:   -2.58 KCAL/MOL
REMARK 927      BINDING AFFINITY PREDICTED BY RF-SCORE:    0.00 PKD
ROOT
HETATM    1  C   UNL     1     -12.553  13.966  65.511  1.00  0.00    -0.560 C  
HETATM    2  C   UNL     1     -12.264  12.489  65.729  1.00  0.00    -0.361 C  
HETATM    3  C   UNL     1     -11.694  11.778  64.500  1.00  0.00    -0.269 C  
HETATM    4  C   UNL     1     -11.621  11.945  67.009  1.00  0.00    -0.291 C  
ENDROOT
BRANCH   4   5
HETATM    5  N   UNL     1     -10.604  12.598  67.884  1.00  0.00    -0.215 N  
BRANCH   5   6
HETATM    6  C   UNL     1     -10.222  11.553  68.975  1.00  0.00    -0.088 C  
BRANCH   6   7
HETATM    7  C   UNL     1     -10.189  10.026  68.510  1.00  0.00    -0.175 C  
BRANCH   7   8
HETATM    8  C   UNL     1     -10.882   9.071  69.603  1.00  0.00    -0.186 C  
BRANCH   8   9
HETATM    9  N   UNL     1     -10.590   7.643  69.382  1.00  0.00    -0.237 N  
HETATM   10  C   UNL     1     -11.423   6.665  69.862  1.00  0.00    -0.354 C  
HETATM   11  H   UNL     1      -9.752   7.378  68.863  1.00  0.00     0.000 HD 
HETATM   12  O   UNL     1     -12.479   6.847  70.443  1.00  0.00    -0.201 OA 
BRANCH  10  13
HETATM   13  O   UNL     1     -10.906   5.439  69.573  1.00  0.00    -0.269 OA 
BRANCH  13  14
HETATM   14  C   UNL     1      -9.731   5.084  70.323  1.00  0.00    -0.215 C  
HETATM   15  C   UNL     1     -10.029   4.461  71.668  1.00  0.00    -0.256 C  
HETATM   16  O   UNL     1      -8.400   3.113  70.615  1.00  0.00    -0.055 OA 
HETATM   17  C   UNL     1      -8.832   3.571  71.901  1.00  0.00    -0.095 C  
HETATM   18  C   UNL     1      -8.970   3.969  69.614  1.00  0.00    -0.101 C  
ENDBRANCH  13  14
ENDBRANCH  10  13
ENDBRANCH   8   9
BRANCH   8  19
HETATM   19  C   UNL     1     -10.707   9.445  71.093  1.00  0.00    -0.417 C  
BRANCH  19  20
HETATM   20  C   UNL     1      -9.724   8.646  71.906  1.00  0.00    -0.383 A  
HETATM   21  C   UNL     1      -9.203   7.280  73.842  1.00  0.00    -0.290 A  
HETATM   22  C   UNL     1      -7.423   8.096  72.428  1.00  0.00    -0.144 A  
HETATM   23  C   UNL     1      -8.359   8.722  71.607  1.00  0.00    -0.190 A  
HETATM   24  C   UNL     1     -10.141   7.913  73.026  1.00  0.00    -0.384 A  
HETATM   25  C   UNL     1      -7.844   7.378  73.546  1.00  0.00    -0.135 A  
ENDBRANCH  19  20
ENDBRANCH   8  19
ENDBRANCH   7   8
BRANCH   7  26
HETATM   26  O   UNL     1      -8.861   9.611  68.022  1.00  0.00    -0.120 OA 
HETATM   27  O   UNL     1      -8.728   7.977  65.183  1.00  0.00    -0.104 OA 
HETATM   28  O   UNL     1      -8.624  10.199  65.798  1.00  0.00    -0.139 OA 
HETATM   29  O   UNL     1     -10.401   8.625  66.406  1.00  0.00    -0.262 OA 
HETATM   30  P   UNL     1      -8.791   8.749  66.524  1.00  0.00    -0.148 P  
ENDBRANCH   7  26
ENDBRANCH   6   7
ENDBRANCH   5   6
BRANCH   5  31
HETATM   31  S   UNL     1      -9.219  13.468  67.393  1.00  0.00    -0.234 S  
HETATM   32  O   UNL     1      -9.070  13.359  65.957  1.00  0.00     0.017 OA 
HETATM   33  O   UNL     1      -8.114  13.054  68.234  1.00  0.00    -0.143 OA 
BRANCH  31  34
HETATM   34  C   UNL     1      -9.464  15.178  67.708  1.00  0.00    -0.194 A  
HETATM   35  N   UNL     1     -10.337  19.210  68.392  1.00  0.00    -0.421 NA 
HETATM   36  C   UNL     1      -8.837  16.148  66.928  1.00  0.00    -0.246 A  
HETATM   37  H1  UNL     1     -10.984  19.479  69.134  1.00  0.00     0.000 HD 
HETATM   38  H2  UNL     1     -10.681  19.597  67.513  1.00  0.00     0.000 HD 
HETATM   39  C   UNL     1     -10.473  15.534  68.605  1.00  0.00    -0.237 A  
HETATM   40  C   UNL     1     -10.749  16.873  68.837  1.00  0.00    -0.321 A  
HETATM   41  C   UNL     1      -9.130  17.493  67.164  1.00  0.00    -0.247 A  
HETATM   42  C   UNL     1     -10.017  17.864  68.183  1.00  0.00    -0.350 A  
ENDBRANCH  31  34
ENDBRANCH   5  31
ENDBRANCH   4   5
TORSDOF 12
ENDMDL
MODEL      153
REMARK 921   NORMALIZED FREE ENERGY PREDICTED BY IDOCK:   -5.15 KCAL/MOL
REMARK 922        TOTAL FREE ENERGY PREDICTED BY IDOCK:  -11.58 KCAL/MOL
REMARK 923 INTER-LIGAND FREE ENERGY PREDICTED BY IDOCK:   -9.16 KCAL/MOL
REMARK 924 INTRA-LIGAND FREE ENERGY PREDICTED BY IDOCK:   -2.41 KCAL/MOL
REMARK 927      BINDING AFFINITY PREDICTED BY RF-SCORE:    0.00 PKD
ROOT
HETATM    1  C   UNL     1      -9.830  14.707  65.489  1.00  0.00    -0.327 C  
HETATM    2  C   UNL     1      -9.355  14.777  66.931  1.00  0.00    -0.256 C  
HETATM    3  C   UNL     1     -10.064  15.843  67.770  1.00  0.00    -0.244 C  
HETATM    4  C   UNL     1      -9.070  13.532  67.778  1.00  0.00    -0.207 C  
ENDROOT
BRANCH   4   5
HETATM    5  N   UNL     1      -9.755  12.207  67.736  1.00  0.00    -0.192 N  
BRANCH   5   6
HETATM    6  C   UNL     1      -9.010  11.290  68.750  1.00  0.00    -0.111 C  
BRANCH   6   7
HETATM    7  C   UNL     1      -8.346   9.966  68.152  1.00  0.00    -0.110 C  
BRANCH   7   8
HETATM    8  C   UNL     1      -8.850   8.657  68.938  1.00  0.00    -0.138 C  
BRANCH   8   9
HETATM    9  N   UNL     1      -9.819   8.967  70.004  1.00  0.00    -0.169 N  
HETATM   10  C   UNL     1      -9.527   8.721  71.322  1.00  0.00    -0.250 C  
HETATM   11  H   UNL     1     -10.722   9.371  69.758  1.00  0.00     0.000 HD 
HETATM   12  O   UNL     1      -8.468   8.298  71.753  1.00  0.00    -0.130 OA 
BRANCH  10  13
HETATM   13  O   UNL     1     -10.599   9.043  72.097  1.00  0.00    -0.324 OA 
BRANCH  13  14
HETATM   14  C   UNL     1     -11.376   7.922  72.555  1.00  0.00    -0.390 C  
HETATM   15  C   UNL     1     -11.630   6.879  71.490  1.00  0.00    -0.329 C  
HETATM   16  O   UNL     1     -10.907   5.740  73.428  1.00  0.00    -0.259 OA 
HETATM   17  C   UNL     1     -11.764   5.606  72.289  1.00  0.00    -0.138 C  
HETATM   18  C   UNL     1     -10.594   7.131  73.598  1.00  0.00    -0.333 C  
ENDBRANCH  13  14
ENDBRANCH  10  13
ENDBRANCH   8   9
BRANCH   8  19
HETATM   19  C   UNL     1      -9.329   7.455  68.089  1.00  0.00    -0.135 C  
BRANCH  19  20
HETATM   20  C   UNL     1      -8.931   6.075  68.540  1.00  0.00    -0.114 A  
HETATM   21  C   UNL     1      -7.348   4.577  69.604  1.00  0.00    -0.051 A  
HETATM   22  C   UNL     1      -9.238   3.676  68.400  1.00  0.00    -0.219 A  
HETATM   23  C   UNL     1      -9.667   4.968  68.103  1.00  0.00    -0.199 A  
HETATM   24  C   UNL     1      -7.771   5.871  69.300  1.00  0.00    -0.094 A  
HETATM   25  C   UNL     1      -8.077   3.481  69.147  1.00  0.00    -0.067 A  
ENDBRANCH  19  20
ENDBRANCH   8  19
ENDBRANCH   7   8
BRANCH   7  26
HETATM   26  O   UNL     1      -6.889  10.100  67.962  1.00  0.00    -0.069 OA 
HETATM   27  O   UNL     1      -5.767  10.267  64.886  1.00  0.00    -0.105 OA 
HETATM   28  O   UNL     1      -6.448  11.807  66.465  1.00  0.00    -0.065 OA 
HETATM   29  O   UNL     1      -7.748   9.882  65.689  1.00  0.00    -0.111 OA 
HETATM   30  P   UNL     1      -6.298  10.189  66.339  1.00  0.00    -0.090 P  
ENDBRANCH   7  26
ENDBRANCH   6   7
ENDBRANCH   5   6
BRANCH   5  31
HETATM   31  S   UNL     1     -11.436  11.907  67.798  1.00  0.00    -0.317 S  
HETATM   32  O   UNL     1     -11.665  10.478  67.841  1.00  0.00    -0.453 OA 
HETATM   33  O   UNL     1     -12.063  12.675  66.741  1.00  0.00    -0.504 OA 
BRANCH  31  34
HETATM   34  C   UNL     1     -12.081  12.528  69.308  1.00  0.00    -0.161 A  
HETATM   35  N   UNL     1     -13.378  14.183  72.923  1.00  0.00    -0.644 NA 
HETATM   36  C   UNL     1     -12.255  11.693  70.412  1.00  0.00    -0.434 A  
HETATM   37  H1  UNL     1     -13.585  15.179  72.990  1.00  0.00     0.000 HD 
HETATM   38  H2  UNL     1     -12.676  13.954  73.628  1.00  0.00     0.000 HD 
HETATM   39  C   UNL     1     -12.200  13.913  69.443  1.00  0.00    -0.338 A  
HETATM   40  C   UNL     1     -12.642  14.454  70.640  1.00  0.00    -0.424 A  
HETATM   41  C   UNL     1     -12.692  12.251  71.615  1.00  0.00    -0.309 A  
HETATM   42  C   UNL     1     -12.977  13.620  71.707  1.00  0.00    -0.353 A  
ENDBRANCH  31  34
ENDBRANCH   5  31
ENDBRANCH   4   5
TORSDOF 12
ENDMDL
MODEL      154
REMARK 921   NORMALIZED FREE ENERGY PREDICTED BY IDOCK:   -5.15 KCAL/MOL
REMARK 922        TOTAL FREE ENERGY PREDICTED BY IDOCK:  -11.57 KCAL/MOL
REMARK 923 INTER-LIGAND FREE ENERGY PREDICTED BY IDOCK:   -9.30 KCAL/MOL
REMARK 924 INTRA-LIGAND FREE ENERGY PREDICTED BY IDOCK:   -2.27 KCAL/MOL
REMARK 927      BINDING AFFINITY PREDICTED BY RF-SCORE:    0.00 PKD
ROOT
HETATM    1  C   UNL     1     -12.188  14.668  68.479  1.00  0.00    -0.135 C  
HETATM    2  C   UNL     1     -11.257  13.589  69.009  1.00  0.00    -0.314 C  
HETATM    3  C   UNL     1     -11.947  12.548  69.892  1.00  0.00    -0.371 C  
HETATM    4  C   UNL     1     -10.171  12.930  68.151  1.00  0.00    -0.239 C  
ENDROOT
BRANCH   4   5
HETATM    5  N   UNL     1     -10.200  12.632  66.689  1.00  0.00    -0.233 N  
BRANCH   5   6
HETATM    6  C   UNL     1     -10.866  11.233  66.534  1.00  0.00    -0.265 C  
BRANCH   6   7
HETATM    7  C   UNL     1      -9.917   9.969  66.762  1.00  0.00    -0.210 C  
BRANCH   7   8
HETATM    8  C   UNL     1     -10.324   9.169  68.097  1.00  0.00    -0.216 C  
BRANCH   8   9
HETATM    9  N   UNL     1      -9.714   7.829  68.168  1.00  0.00    -0.151 N  
HETATM   10  C   UNL     1     -10.331   6.737  67.613  1.00  0.00    -0.203 C  
HETATM   11  H   UNL     1      -8.817   7.712  68.640  1.00  0.00     0.000 HD 
HETATM   12  O   UNL     1     -11.370   6.751  66.975  1.00  0.00    -0.337 OA 
BRANCH  10  13
HETATM   13  O   UNL     1      -9.595   5.619  67.859  1.00  0.00    -0.114 OA 
BRANCH  13  14
HETATM   14  C   UNL     1      -9.113   5.496  69.209  1.00  0.00    -0.112 C  
HETATM   15  C   UNL     1     -10.135   4.940  70.175  1.00  0.00    -0.332 C  
HETATM   16  O   UNL     1      -8.119   3.765  70.535  1.00  0.00    -0.053 OA 
HETATM   17  C   UNL     1      -9.281   4.253  71.213  1.00  0.00    -0.135 C  
HETATM   18  C   UNL     1      -8.005   4.451  69.280  1.00  0.00    -0.061 C  
ENDBRANCH  13  14
ENDBRANCH  10  13
ENDBRANCH   8   9
BRANCH   8  19
HETATM   19  C   UNL     1     -10.182   9.912  69.446  1.00  0.00    -0.231 C  
BRANCH  19  20
HETATM   20  C   UNL     1     -10.405   9.122  70.708  1.00  0.00    -0.323 A  
HETATM   21  C   UNL     1      -9.556   8.114  72.744  1.00  0.00    -0.353 A  
HETATM   22  C   UNL     1     -11.798   7.616  71.996  1.00  0.00    -0.342 A  
HETATM   23  C   UNL     1     -11.622   8.458  70.900  1.00  0.00    -0.288 A  
HETATM   24  C   UNL     1      -9.375   8.950  71.642  1.00  0.00    -0.328 A  
HETATM   25  C   UNL     1     -10.766   7.441  72.915  1.00  0.00    -0.387 A  
ENDBRANCH  19  20
ENDBRANCH   8  19
ENDBRANCH   7   8
BRANCH   7  26
HETATM   26  O   UNL     1      -8.488  10.298  66.602  1.00  0.00    -0.123 OA 
HETATM   27  O   UNL     1      -6.767   8.571  64.410  1.00  0.00    -0.066 OA 
HETATM   28  O   UNL     1      -7.984  10.532  64.357  1.00  0.00    -0.121 OA 
HETATM   29  O   UNL     1      -8.798   8.361  65.151  1.00  0.00    -0.143 OA 
HETATM   30  P   UNL     1      -7.581   9.387  65.445  1.00  0.00    -0.106 P  
ENDBRANCH   7  26
ENDBRANCH   6   7
ENDBRANCH   5   6
BRANCH   5  31
HETATM   31  S   UNL     1     -10.711  13.668  65.430  1.00  0.00    -0.323 S  
HETATM   32  O   UNL     1     -12.154  13.787  65.465  1.00  0.00    -0.364 OA 
HETATM   33  O   UNL     1     -10.086  13.217  64.203  1.00  0.00    -0.347 OA 
BRANCH  31  34
HETATM   34  C   UNL     1     -10.103  15.288  65.727  1.00  0.00    -0.356 A  
HETATM   35  N   UNL     1      -8.627  19.072  66.723  1.00  0.00    -0.292 NA 
HETATM   36  C   UNL     1     -10.905  16.407  65.507  1.00  0.00    -0.224 A  
HETATM   37  H1  UNL     1      -7.685  19.175  67.101  1.00  0.00     0.000 HD 
HETATM   38  H2  UNL     1      -9.284  19.487  67.384  1.00  0.00     0.000 HD 
HETATM   39  C   UNL     1      -8.885  15.411  66.400  1.00  0.00    -0.340 A  
HETATM   40  C   UNL     1      -8.396  16.668  66.716  1.00  0.00    -0.270 A  
HETATM   41  C   UNL     1     -10.405  17.668  65.838  1.00  0.00    -0.261 A  
HETATM   42  C   UNL     1      -9.111  17.811  66.357  1.00  0.00    -0.234 A  
ENDBRANCH  31  34
ENDBRANCH   5  31
ENDBRANCH   4   5
TORSDOF 12
ENDMDL
MODEL      155
REMARK 921   NORMALIZED FREE ENERGY PREDICTED BY IDOCK:   -5.15 KCAL/MOL
REMARK 922        TOTAL FREE ENERGY PREDICTED BY IDOCK:  -11.57 KCAL/MOL
REMARK 923 INTER-LIGAND FREE ENERGY PREDICTED BY IDOCK:   -8.91 KCAL/MOL
REMARK 924 INTRA-LIGAND FREE ENERGY PREDICTED BY IDOCK:   -2.66 KCAL/MOL
REMARK 927      BINDING AFFINITY PREDICTED BY RF-SCORE:    0.00 PKD
ROOT
HETATM    1  C   UNL     1      -7.285  11.646  66.754  1.00  0.00    -0.082 C  
HETATM    2  C   UNL     1      -7.791  12.090  68.117  1.00  0.00    -0.145 C  
HETATM    3  C   UNL     1      -7.441  13.537  68.470  1.00  0.00    -0.122 C  
HETATM    4  C   UNL     1      -9.183  11.731  68.647  1.00  0.00    -0.083 C  
ENDROOT
BRANCH   4   5
HETATM    5  N   UNL     1     -10.452  11.561  67.880  1.00  0.00    -0.179 N  
BRANCH   5   6
HETATM    6  C   UNL     1     -11.135  10.274  68.431  1.00  0.00    -0.247 C  
BRANCH   6   7
HETATM    7  C   UNL     1     -10.160   9.140  68.990  1.00  0.00    -0.191 C  
BRANCH   7   8
HETATM    8  C   UNL     1      -9.331   8.447  67.798  1.00  0.00    -0.134 C  
BRANCH   8   9
HETATM    9  N   UNL     1      -8.790   7.128  68.170  1.00  0.00    -0.127 N  
HETATM   10  C   UNL     1      -9.546   5.990  68.048  1.00  0.00    -0.117 C  
HETATM   11  H   UNL     1      -7.835   7.060  68.524  1.00  0.00     0.000 HD 
HETATM   12  O   UNL     1     -10.673   5.926  67.587  1.00  0.00    -0.252 OA 
BRANCH  10  13
HETATM   13  O   UNL     1      -8.840   4.919  68.503  1.00  0.00    -0.100 OA 
BRANCH  13  14
HETATM   14  C   UNL     1      -9.636   3.874  69.091  1.00  0.00    -0.148 C  
HETATM   15  C   UNL     1      -8.986   2.509  69.042  1.00  0.00    -0.170 C  
HETATM   16  O   UNL     1      -9.790   2.824  71.240  1.00  0.00    -0.155 OA 
HETATM   17  C   UNL     1      -9.566   1.815  70.250  1.00  0.00    -0.026 C  
HETATM   18  C   UNL     1      -9.783   4.104  70.591  1.00  0.00    -0.203 C  
ENDBRANCH  13  14
ENDBRANCH  10  13
ENDBRANCH   8   9
BRANCH   8  19
HETATM   19  C   UNL     1      -9.995   8.397  66.402  1.00  0.00    -0.291 C  
BRANCH  19  20
HETATM   20  C   UNL     1      -9.308   9.118  65.273  1.00  0.00    -0.224 A  
HETATM   21  C   UNL     1      -9.322  10.797  63.522  1.00  0.00    -0.304 A  
HETATM   22  C   UNL     1      -7.521   9.192  63.638  1.00  0.00    -0.106 A  
HETATM   23  C   UNL     1      -8.103   8.617  64.767  1.00  0.00    -0.149 A  
HETATM   24  C   UNL     1      -9.911  10.218  64.647  1.00  0.00    -0.396 A  
HETATM   25  C   UNL     1      -8.132  10.278  63.015  1.00  0.00    -0.157 A  
ENDBRANCH  19  20
ENDBRANCH   8  19
ENDBRANCH   7   8
BRANCH   7  26
HETATM   26  O   UNL     1     -10.833   8.231  69.937  1.00  0.00    -0.247 OA 
HETATM   27  O   UNL     1      -9.770   8.214  73.039  1.00  0.00    -0.275 OA 
HETATM   28  O   UNL     1     -11.381   9.381  71.869  1.00  0.00    -0.370 OA 
HETATM   29  O   UNL     1      -9.017   9.194  71.253  1.00  0.00    -0.237 OA 
HETATM   30  P   UNL     1     -10.272   8.223  71.574  1.00  0.00    -0.256 P  
ENDBRANCH   7  26
ENDBRANCH   6   7
ENDBRANCH   5   6
BRANCH   5  31
HETATM   31  S   UNL     1     -11.629  12.754  67.546  1.00  0.00    -0.367 S  
HETATM   32  O   UNL     1     -12.367  13.049  68.756  1.00  0.00    -0.111 OA 
HETATM   33  O   UNL     1     -12.368  12.331  66.373  1.00  0.00    -0.531 OA 
BRANCH  31  34
HETATM   34  C   UNL     1     -10.828  14.254  67.111  1.00  0.00    -0.296 A  
HETATM   35  N   UNL     1      -9.189  17.955  66.059  1.00  0.00    -0.525 NA 
HETATM   36  C   UNL     1     -10.088  14.357  65.934  1.00  0.00    -0.344 A  
HETATM   37  H1  UNL     1      -9.311  18.765  66.666  1.00  0.00     0.000 HD 
HETATM   38  H2  UNL     1      -9.549  18.192  65.134  1.00  0.00     0.000 HD 
HETATM   39  C   UNL     1     -11.139  15.395  67.854  1.00  0.00    -0.323 A  
HETATM   40  C   UNL     1     -10.582  16.617  67.507  1.00  0.00    -0.311 A  
HETATM   41  C   UNL     1      -9.539  15.595  65.590  1.00  0.00    -0.319 A  
HETATM   42  C   UNL     1      -9.707  16.708  66.424  1.00  0.00    -0.286 A  
ENDBRANCH  31  34
ENDBRANCH   5  31
ENDBRANCH   4   5
TORSDOF 12
ENDMDL
MODEL      156
REMARK 921   NORMALIZED FREE ENERGY PREDICTED BY IDOCK:   -5.14 KCAL/MOL
REMARK 922        TOTAL FREE ENERGY PREDICTED BY IDOCK:  -11.55 KCAL/MOL
REMARK 923 INTER-LIGAND FREE ENERGY PREDICTED BY IDOCK:  -10.16 KCAL/MOL
REMARK 924 INTRA-LIGAND FREE ENERGY PREDICTED BY IDOCK:   -1.38 KCAL/MOL
REMARK 927      BINDING AFFINITY PREDICTED BY RF-SCORE:    0.00 PKD
ROOT
HETATM    1  C   UNL     1     -11.888  15.362  72.318  1.00  0.00    -0.551 C  
HETATM    2  C   UNL     1     -12.875  14.515  71.531  1.00  0.00    -0.407 C  
HETATM    3  C   UNL     1     -14.064  15.299  70.973  1.00  0.00    -0.320 C  
HETATM    4  C   UNL     1     -12.438  13.429  70.541  1.00  0.00    -0.279 C  
ENDROOT
BRANCH   4   5
HETATM    5  N   UNL     1     -11.232  13.408  69.662  1.00  0.00    -0.117 N  
BRANCH   5   6
HETATM    6  C   UNL     1     -11.311  12.092  68.833  1.00  0.00    -0.278 C  
BRANCH   6   7
HETATM    7  C   UNL     1     -11.209  10.729  69.658  1.00  0.00    -0.291 C  
BRANCH   7   8
HETATM    8  C   UNL     1     -10.093   9.753  69.034  1.00  0.00    -0.187 C  
BRANCH   8   9
HETATM    9  N   UNL     1      -9.928   9.930  67.580  1.00  0.00    -0.176 N  
HETATM   10  C   UNL     1      -9.833   8.849  66.739  1.00  0.00    -0.241 C  
HETATM   11  H   UNL     1      -9.883  10.872  67.191  1.00  0.00     0.000 HD 
HETATM   12  O   UNL     1      -9.930   7.679  67.066  1.00  0.00    -0.194 OA 
BRANCH  10  13
HETATM   13  O   UNL     1      -9.634   9.277  65.463  1.00  0.00    -0.269 OA 
BRANCH  13  14
HETATM   14  C   UNL     1      -8.337   8.976  64.917  1.00  0.00    -0.169 C  
HETATM   15  C   UNL     1      -8.340   8.750  63.422  1.00  0.00    -0.157 C  
HETATM   16  O   UNL     1      -6.559  10.224  63.906  1.00  0.00    -0.130 OA 
HETATM   17  C   UNL     1      -6.950   9.175  63.014  1.00  0.00    -0.092 C  
HETATM   18  C   UNL     1      -7.415  10.182  65.058  1.00  0.00    -0.140 C  
ENDBRANCH  13  14
ENDBRANCH  10  13
ENDBRANCH   8   9
BRANCH   8  19
HETATM   19  C   UNL     1      -8.718   9.695  69.741  1.00  0.00    -0.221 C  
BRANCH  19  20
HETATM   20  C   UNL     1      -8.086   8.342  69.934  1.00  0.00    -0.119 A  
HETATM   21  C   UNL     1      -6.319   6.751  69.455  1.00  0.00    -0.042 A  
HETATM   22  C   UNL     1      -8.290   6.039  70.656  1.00  0.00    -0.125 A  
HETATM   23  C   UNL     1      -8.803   7.332  70.585  1.00  0.00    -0.148 A  
HETATM   24  C   UNL     1      -6.836   8.045  69.375  1.00  0.00    -0.047 A  
HETATM   25  C   UNL     1      -7.051   5.747  70.089  1.00  0.00    -0.067 A  
ENDBRANCH  19  20
ENDBRANCH   8  19
ENDBRANCH   7   8
BRANCH   7  26
HETATM   26  O   UNL     1     -12.529  10.130  69.927  1.00  0.00    -0.064 OA 
HETATM   27  O   UNL     1     -12.974   8.677  72.833  1.00  0.00    -0.279 OA 
HETATM   28  O   UNL     1     -13.288  10.808  72.005  1.00  0.00    -0.447 OA 
HETATM   29  O   UNL     1     -11.209   9.517  71.886  1.00  0.00    -0.310 OA 
HETATM   30  P   UNL     1     -12.764   9.363  71.461  1.00  0.00    -0.394 P  
ENDBRANCH   7  26
ENDBRANCH   6   7
ENDBRANCH   5   6
BRANCH   5  31
HETATM   31  S   UNL     1     -10.635  14.680  68.690  1.00  0.00    -0.259 S  
HETATM   32  O   UNL     1      -9.188  14.653  68.703  1.00  0.00    -0.189 OA 
HETATM   33  O   UNL     1     -11.306  15.899  69.095  1.00  0.00    -0.317 OA 
BRANCH  31  34
HETATM   34  C   UNL     1     -11.092  14.397  67.019  1.00  0.00    -0.313 A  
HETATM   35  N   UNL     1     -12.336  13.488  63.131  1.00  0.00    -1.024 NA 
HETATM   36  C   UNL     1     -10.133  14.094  66.054  1.00  0.00    -0.330 A  
HETATM   37  H1  UNL     1     -13.327  13.508  62.888  1.00  0.00     0.000 HD 
HETATM   38  H2  UNL     1     -11.972  12.561  62.907  1.00  0.00     0.000 HD 
HETATM   39  C   UNL     1     -12.452  14.261  66.732  1.00  0.00    -0.136 A  
HETATM   40  C   UNL     1     -12.859  13.971  65.438  1.00  0.00    -0.442 A  
HETATM   41  C   UNL     1     -10.554  13.795  64.757  1.00  0.00    -0.444 A  
HETATM   42  C   UNL     1     -11.914  13.824  64.422  1.00  0.00    -0.445 A  
ENDBRANCH  31  34
ENDBRANCH   5  31
ENDBRANCH   4   5
TORSDOF 12
ENDMDL
MODEL      157
REMARK 921   NORMALIZED FREE ENERGY PREDICTED BY IDOCK:   -5.13 KCAL/MOL
REMARK 922        TOTAL FREE ENERGY PREDICTED BY IDOCK:  -11.53 KCAL/MOL
REMARK 923 INTER-LIGAND FREE ENERGY PREDICTED BY IDOCK:   -8.54 KCAL/MOL
REMARK 924 INTRA-LIGAND FREE ENERGY PREDICTED BY IDOCK:   -2.99 KCAL/MOL
REMARK 927      BINDING AFFINITY PREDICTED BY RF-SCORE:    0.00 PKD
ROOT
HETATM    1  C   UNL     1      -7.683   5.774  69.591  1.00  0.00    -0.091 C  
HETATM    2  C   UNL     1      -7.149   6.028  68.191  1.00  0.00    -0.078 C  
HETATM    3  C   UNL     1      -7.485   4.925  67.186  1.00  0.00    -0.086 C  
HETATM    4  C   UNL     1      -7.200   7.403  67.515  1.00  0.00    -0.094 C  
ENDROOT
BRANCH   4   5
HETATM    5  N   UNL     1      -8.240   8.464  67.654  1.00  0.00    -0.124 N  
BRANCH   5   6
HETATM    6  C   UNL     1      -7.705   9.711  66.887  1.00  0.00    -0.098 C  
BRANCH   6   7
HETATM    7  C   UNL     1      -7.726  11.094  67.685  1.00  0.00    -0.113 C  
BRANCH   7   8
HETATM    8  C   UNL     1      -8.599  12.200  66.909  1.00  0.00    -0.191 C  
BRANCH   8   9
HETATM    9  N   UNL     1      -8.084  13.568  67.095  1.00  0.00    -0.356 N  
HETATM   10  C   UNL     1      -8.577  14.385  68.080  1.00  0.00    -0.166 C  
HETATM   11  H   UNL     1      -7.348  13.914  66.479  1.00  0.00     0.000 HD 
HETATM   12  O   UNL     1      -9.412  14.075  68.914  1.00  0.00    -0.124 OA 
BRANCH  10  13
HETATM   13  O   UNL     1      -7.979  15.605  68.008  1.00  0.00    -0.129 OA 
BRANCH  13  14
HETATM   14  C   UNL     1      -8.883  16.722  67.945  1.00  0.00    -0.218 C  
HETATM   15  C   UNL     1      -8.233  18.011  67.497  1.00  0.00    -0.235 C  
HETATM   16  O   UNL     1     -10.225  17.763  66.255  1.00  0.00    -0.350 OA 
HETATM   17  C   UNL     1      -9.370  18.752  66.836  1.00  0.00    -0.300 C  
HETATM   18  C   UNL     1      -9.926  16.495  66.857  1.00  0.00    -0.271 C  
ENDBRANCH  13  14
ENDBRANCH  10  13
ENDBRANCH   8   9
BRANCH   8  19
HETATM   19  C   UNL     1      -8.932  11.933  65.422  1.00  0.00     0.230 C  
BRANCH  19  20
HETATM   20  C   UNL     1     -10.350  12.157  64.970  1.00  0.00    -0.320 A  
HETATM   21  C   UNL     1     -12.121  11.844  63.342  1.00  0.00    -0.539 A  
HETATM   22  C   UNL     1     -12.417  13.407  65.160  1.00  0.00    -0.509 A  
HETATM   23  C   UNL     1     -11.149  13.089  65.643  1.00  0.00    -0.301 A  
HETATM   24  C   UNL     1     -10.848  11.530  63.819  1.00  0.00    -0.486 A  
HETATM   25  C   UNL     1     -12.901  12.788  64.009  1.00  0.00    -0.186 A  
ENDBRANCH  19  20
ENDBRANCH   8  19
ENDBRANCH   7   8
BRANCH   7  26
HETATM   26  O   UNL     1      -6.382  11.511  68.130  1.00  0.00    -0.046 OA 
HETATM   27  O   UNL     1      -5.655  11.149  71.306  1.00  0.00    -0.322 OA 
HETATM   28  O   UNL     1      -5.431   9.841  69.418  1.00  0.00    -0.035 OA 
HETATM   29  O   UNL     1      -7.506  10.881  70.203  1.00  0.00    -0.004 OA 
HETATM   30  P   UNL     1      -5.999  11.320  69.806  1.00  0.00    -0.134 P  
ENDBRANCH   7  26
ENDBRANCH   6   7
ENDBRANCH   5   6
BRANCH   5  31
HETATM   31  S   UNL     1      -9.924   8.305  67.412  1.00  0.00    -0.232 S  
HETATM   32  O   UNL     1     -10.323   6.946  67.715  1.00  0.00    -0.171 OA 
HETATM   33  O   UNL     1     -10.236   8.840  66.102  1.00  0.00    -0.233 OA 
BRANCH  31  34
HETATM   34  C   UNL     1     -10.774   9.310  68.572  1.00  0.00    -0.142 A  
HETATM   35  N   UNL     1     -12.633  11.935  71.246  1.00  0.00    -0.335 NA 
HETATM   36  C   UNL     1     -10.693   9.054  69.940  1.00  0.00    -0.240 A  
HETATM   37  H1  UNL     1     -13.156  12.739  70.900  1.00  0.00     0.000 HD 
HETATM   38  H2  UNL     1     -11.913  12.273  71.886  1.00  0.00     0.000 HD 
HETATM   39  C   UNL     1     -11.343  10.498  68.108  1.00  0.00    -0.324 A  
HETATM   40  C   UNL     1     -11.969  11.358  68.998  1.00  0.00    -0.387 A  
HETATM   41  C   UNL     1     -11.319   9.931  70.828  1.00  0.00    -0.430 A  
HETATM   42  C   UNL     1     -12.039  11.036  70.354  1.00  0.00    -0.373 A  
ENDBRANCH  31  34
ENDBRANCH   5  31
ENDBRANCH   4   5
TORSDOF 12
ENDMDL
MODEL      158
REMARK 921   NORMALIZED FREE ENERGY PREDICTED BY IDOCK:   -5.12 KCAL/MOL
REMARK 922        TOTAL FREE ENERGY PREDICTED BY IDOCK:  -11.52 KCAL/MOL
REMARK 923 INTER-LIGAND FREE ENERGY PREDICTED BY IDOCK:   -9.21 KCAL/MOL
REMARK 924 INTRA-LIGAND FREE ENERGY PREDICTED BY IDOCK:   -2.32 KCAL/MOL
REMARK 927      BINDING AFFINITY PREDICTED BY RF-SCORE:    0.00 PKD
ROOT
HETATM    1  C   UNL     1     -10.992   7.425  73.005  1.00  0.00    -0.422 C  
HETATM    2  C   UNL     1     -12.031   7.771  71.951  1.00  0.00    -0.340 C  
HETATM    3  C   UNL     1     -12.763   9.091  72.206  1.00  0.00    -0.457 C  
HETATM    4  C   UNL     1     -11.796   7.571  70.450  1.00  0.00    -0.036 C  
ENDROOT
BRANCH   4   5
HETATM    5  N   UNL     1     -10.520   7.697  69.687  1.00  0.00    -0.231 N  
BRANCH   5   6
HETATM    6  C   UNL     1      -9.969   9.125  69.979  1.00  0.00    -0.199 C  
BRANCH   6   7
HETATM    7  C   UNL     1     -10.187  10.214  68.833  1.00  0.00    -0.199 C  
BRANCH   7   8
HETATM    8  C   UNL     1      -9.395   9.815  67.491  1.00  0.00    -0.133 C  
BRANCH   8   9
HETATM    9  N   UNL     1      -9.788  10.633  66.330  1.00  0.00    -0.206 N  
HETATM   10  C   UNL     1      -9.588  10.188  65.048  1.00  0.00    -0.299 C  
HETATM   11  H   UNL     1     -10.216  11.546  66.482  1.00  0.00     0.000 HD 
HETATM   12  O   UNL     1      -9.142   9.098  64.731  1.00  0.00    -0.200 OA 
BRANCH  10  13
HETATM   13  O   UNL     1      -9.984  11.143  64.163  1.00  0.00    -0.261 OA 
BRANCH  13  14
HETATM   14  C   UNL     1     -10.981  12.054  64.661  1.00  0.00    -0.317 C  
HETATM   15  C   UNL     1     -10.513  13.490  64.738  1.00  0.00    -0.430 C  
HETATM   16  O   UNL     1     -12.633  13.499  63.697  1.00  0.00    -0.722 OA 
HETATM   17  C   UNL     1     -11.791  14.272  64.559  1.00  0.00    -0.442 C  
HETATM   18  C   UNL     1     -12.144  12.149  63.679  1.00  0.00    -0.551 C  
ENDBRANCH  13  14
ENDBRANCH  10  13
ENDBRANCH   8   9
BRANCH   8  19
HETATM   19  C   UNL     1      -7.856   9.689  67.581  1.00  0.00    -0.095 C  
BRANCH  19  20
HETATM   20  C   UNL     1      -7.086  10.871  68.107  1.00  0.00    -0.077 A  
HETATM   21  C   UNL     1      -6.031  12.057  69.941  1.00  0.00    -0.149 A  
HETATM   22  C   UNL     1      -6.320  13.150  67.807  1.00  0.00    -0.156 A  
HETATM   23  C   UNL     1      -6.913  11.997  67.295  1.00  0.00    -0.146 A  
HETATM   24  C   UNL     1      -6.633  10.905  69.433  1.00  0.00    -0.095 A  
HETATM   25  C   UNL     1      -5.882  13.180  69.130  1.00  0.00    -0.080 A  
ENDBRANCH  19  20
ENDBRANCH   8  19
ENDBRANCH   7   8
BRANCH   7  26
HETATM   26  O   UNL     1     -10.000  11.594  69.320  1.00  0.00     0.037 OA 
HETATM   27  O   UNL     1     -12.273  13.813  68.508  1.00  0.00    -0.348 OA 
HETATM   28  O   UNL     1     -11.963  12.360  70.275  1.00  0.00    -0.349 OA 
HETATM   29  O   UNL     1     -11.980  11.748  67.902  1.00  0.00    -0.575 OA 
HETATM   30  P   UNL     1     -11.200  12.765  68.892  1.00  0.00    -0.273 P  
ENDBRANCH   7  26
ENDBRANCH   6   7
ENDBRANCH   5   6
BRANCH   5  31
HETATM   31  S   UNL     1      -9.234   6.573  69.625  1.00  0.00    -0.143 S  
HETATM   32  O   UNL     1      -9.507   5.483  70.539  1.00  0.00    -0.155 OA 
HETATM   33  O   UNL     1      -7.995   7.308  69.779  1.00  0.00    -0.117 OA 
BRANCH  31  34
HETATM   34  C   UNL     1      -9.179   5.842  68.030  1.00  0.00    -0.109 A  
HETATM   35  N   UNL     1      -9.078   4.372  64.116  1.00  0.00    -0.150 NA 
HETATM   36  C   UNL     1     -10.163   4.944  67.618  1.00  0.00    -0.135 A  
HETATM   37  H1  UNL     1      -8.332   4.650  63.480  1.00  0.00     0.000 HD 
HETATM   38  H2  UNL     1      -9.972   4.608  63.683  1.00  0.00     0.000 HD 
HETATM   39  C   UNL     1      -8.258   6.353  67.113  1.00  0.00    -0.113 A  
HETATM   40  C   UNL     1      -8.222   5.852  65.821  1.00  0.00    -0.130 A  
HETATM   41  C   UNL     1     -10.122   4.454  66.311  1.00  0.00    -0.249 A  
HETATM   42  C   UNL     1      -9.096   4.835  65.436  1.00  0.00    -0.154 A  
ENDBRANCH  31  34
ENDBRANCH   5  31
ENDBRANCH   4   5
TORSDOF 12
ENDMDL
MODEL      159
REMARK 921   NORMALIZED FREE ENERGY PREDICTED BY IDOCK:   -5.09 KCAL/MOL
REMARK 922        TOTAL FREE ENERGY PREDICTED BY IDOCK:  -11.46 KCAL/MOL
REMARK 923 INTER-LIGAND FREE ENERGY PREDICTED BY IDOCK:   -8.94 KCAL/MOL
REMARK 924 INTRA-LIGAND FREE ENERGY PREDICTED BY IDOCK:   -2.52 KCAL/MOL
REMARK 927      BINDING AFFINITY PREDICTED BY RF-SCORE:    0.00 PKD
ROOT
HETATM    1  C   UNL     1     -12.777  10.839  70.466  1.00  0.00    -0.388 C  
HETATM    2  C   UNL     1     -11.287  10.544  70.405  1.00  0.00    -0.411 C  
HETATM    3  C   UNL     1     -10.935   9.069  70.611  1.00  0.00    -0.308 C  
HETATM    4  C   UNL     1     -10.352  11.179  69.370  1.00  0.00    -0.057 C  
ENDROOT
BRANCH   4   5
HETATM    5  N   UNL     1     -10.656  11.562  67.960  1.00  0.00    -0.183 N  
BRANCH   5   6
HETATM    6  C   UNL     1     -11.109  10.260  67.235  1.00  0.00    -0.142 C  
BRANCH   6   7
HETATM    7  C   UNL     1     -10.041   9.585  66.259  1.00  0.00    -0.257 C  
BRANCH   7   8
HETATM    8  C   UNL     1      -9.614   8.125  66.783  1.00  0.00    -0.217 C  
BRANCH   8   9
HETATM    9  N   UNL     1      -8.664   8.176  67.908  1.00  0.00    -0.128 N  
HETATM   10  C   UNL     1      -7.332   7.902  67.725  1.00  0.00    -0.096 C  
HETATM   11  H   UNL     1      -9.002   8.420  68.838  1.00  0.00     0.000 HD 
HETATM   12  O   UNL     1      -6.793   7.655  66.660  1.00  0.00    -0.063 OA 
BRANCH  10  13
HETATM   13  O   UNL     1      -6.683   7.965  68.919  1.00  0.00    -0.047 OA 
BRANCH  13  14
HETATM   14  C   UNL     1      -7.533   8.158  70.064  1.00  0.00    -0.065 C  
HETATM   15  C   UNL     1      -7.531   6.997  71.031  1.00  0.00    -0.081 C  
HETATM   16  O   UNL     1      -7.257   8.967  72.302  1.00  0.00    -0.330 OA 
HETATM   17  C   UNL     1      -7.832   7.658  72.354  1.00  0.00    -0.103 C  
HETATM   18  C   UNL     1      -7.002   9.296  70.929  1.00  0.00    -0.104 C  
ENDBRANCH  13  14
ENDBRANCH  10  13
ENDBRANCH   8   9
BRANCH   8  19
HETATM   19  C   UNL     1     -10.746   7.109  67.063  1.00  0.00    -0.420 C  
BRANCH  19  20
HETATM   20  C   UNL     1     -10.495   6.049  68.103  1.00  0.00    -0.292 A  
HETATM   21  C   UNL     1     -10.754   5.206  70.362  1.00  0.00    -0.129 A  
HETATM   22  C   UNL     1      -9.224   4.123  68.840  1.00  0.00    -0.208 A  
HETATM   23  C   UNL     1      -9.568   5.034  67.843  1.00  0.00    -0.176 A  
HETATM   24  C   UNL     1     -11.093   6.125  69.368  1.00  0.00    -0.479 A  
HETATM   25  C   UNL     1      -9.814   4.211  70.099  1.00  0.00    -0.242 A  
ENDBRANCH  19  20
ENDBRANCH   8  19
ENDBRANCH   7   8
BRANCH   7  26
HETATM   26  O   UNL     1      -8.942  10.502  65.903  1.00  0.00    -0.155 OA 
HETATM   27  O   UNL     1      -7.551  10.133  62.957  1.00  0.00    -0.138 OA 
HETATM   28  O   UNL     1      -9.306  11.378  63.792  1.00  0.00    -0.181 OA 
HETATM   29  O   UNL     1      -9.032   8.954  64.019  1.00  0.00    -0.041 OA 
HETATM   30  P   UNL     1      -8.208  10.308  64.348  1.00  0.00    -0.093 P  
ENDBRANCH   7  26
ENDBRANCH   6   7
ENDBRANCH   5   6
BRANCH   5  31
HETATM   31  S   UNL     1     -11.590  12.888  67.424  1.00  0.00    -0.373 S  
HETATM   32  O   UNL     1     -12.313  13.448  68.547  1.00  0.00    -0.194 OA 
HETATM   33  O   UNL     1     -12.345  12.459  66.264  1.00  0.00    -0.577 OA 
BRANCH  31  34
HETATM   34  C   UNL     1     -10.522  14.166  66.873  1.00  0.00    -0.272 A  
HETATM   35  N   UNL     1      -7.961  17.307  65.840  1.00  0.00    -0.519 NA 
HETATM   36  C   UNL     1     -10.964  15.132  65.969  1.00  0.00    -0.332 A  
HETATM   37  H1  UNL     1      -7.019  17.354  66.227  1.00  0.00     0.000 HD 
HETATM   38  H2  UNL     1      -8.444  18.177  66.068  1.00  0.00     0.000 HD 
HETATM   39  C   UNL     1      -9.300  14.321  67.532  1.00  0.00    -0.199 A  
HETATM   40  C   UNL     1      -8.450  15.357  67.176  1.00  0.00    -0.241 A  
HETATM   41  C   UNL     1     -10.103  16.176  65.625  1.00  0.00    -0.366 A  
HETATM   42  C   UNL     1      -8.808  16.240  66.156  1.00  0.00    -0.327 A  
ENDBRANCH  31  34
ENDBRANCH   5  31
ENDBRANCH   4   5
TORSDOF 12
ENDMDL
MODEL      160
REMARK 921   NORMALIZED FREE ENERGY PREDICTED BY IDOCK:   -5.09 KCAL/MOL
REMARK 922        TOTAL FREE ENERGY PREDICTED BY IDOCK:  -11.46 KCAL/MOL
REMARK 923 INTER-LIGAND FREE ENERGY PREDICTED BY IDOCK:  -10.60 KCAL/MOL
REMARK 924 INTRA-LIGAND FREE ENERGY PREDICTED BY IDOCK:   -0.86 KCAL/MOL
REMARK 927      BINDING AFFINITY PREDICTED BY RF-SCORE:    0.00 PKD
ROOT
HETATM    1  C   UNL     1     -11.677  15.718  64.113  1.00  0.00    -0.070 C  
HETATM    2  C   UNL     1     -12.398  14.409  64.388  1.00  0.00    -0.428 C  
HETATM    3  C   UNL     1     -12.113  13.313  63.358  1.00  0.00    -0.508 C  
HETATM    4  C   UNL     1     -12.526  13.805  65.791  1.00  0.00    -0.485 C  
ENDROOT
BRANCH   4   5
HETATM    5  N   UNL     1     -11.554  13.873  66.921  1.00  0.00    -0.357 N  
BRANCH   5   6
HETATM    6  C   UNL     1     -11.776  12.589  67.774  1.00  0.00    -0.359 C  
BRANCH   6   7
HETATM    7  C   UNL     1     -11.557  12.740  69.349  1.00  0.00    -0.298 C  
BRANCH   7   8
HETATM    8  C   UNL     1     -11.062  11.356  70.003  1.00  0.00     0.027 C  
BRANCH   8   9
HETATM    9  N   UNL     1     -12.148  10.369  70.143  1.00  0.00    -0.401 N  
HETATM   10  C   UNL     1     -13.040  10.438  71.182  1.00  0.00    -0.383 C  
HETATM   11  H   UNL     1     -12.237   9.622  69.454  1.00  0.00     0.000 HD 
HETATM   12  O   UNL     1     -13.079  11.309  72.035  1.00  0.00    -0.495 OA 
BRANCH  10  13
HETATM   13  O   UNL     1     -13.905   9.389  71.115  1.00  0.00    -0.269 OA 
BRANCH  13  14
HETATM   14  C   UNL     1     -13.510   8.228  71.867  1.00  0.00    -0.346 C  
HETATM   15  C   UNL     1     -13.141   7.040  71.007  1.00  0.00    -0.170 C  
HETATM   16  O   UNL     1     -11.442   7.287  72.629  1.00  0.00    -0.294 OA 
HETATM   17  C   UNL     1     -12.142   6.300  71.864  1.00  0.00    -0.255 C  
HETATM   18  C   UNL     1     -12.208   8.501  72.612  1.00  0.00    -0.228 C  
ENDBRANCH  13  14
ENDBRANCH  10  13
ENDBRANCH   8   9
BRANCH   8  19
HETATM   19  C   UNL     1      -9.794  10.699  69.409  1.00  0.00    -0.164 C  
BRANCH  19  20
HETATM   20  C   UNL     1      -9.921   9.308  68.850  1.00  0.00    -0.190 A  
HETATM   21  C   UNL     1     -10.567   7.803  67.060  1.00  0.00    -0.396 A  
HETATM   22  C   UNL     1      -9.976   6.915  69.227  1.00  0.00    -0.164 A  
HETATM   23  C   UNL     1      -9.733   8.206  69.692  1.00  0.00    -0.170 A  
HETATM   24  C   UNL     1     -10.333   9.097  67.527  1.00  0.00    -0.324 A  
HETATM   25  C   UNL     1     -10.396   6.714  67.914  1.00  0.00    -0.227 A  
ENDBRANCH  19  20
ENDBRANCH   8  19
ENDBRANCH   7   8
BRANCH   7  26
HETATM   26  O   UNL     1     -12.687  13.415  70.015  1.00  0.00    -0.094 OA 
HETATM   27  O   UNL     1     -12.017  16.063  71.829  1.00  0.00    -0.447 OA 
HETATM   28  O   UNL     1     -12.580  15.692  69.622  1.00  0.00    -0.189 OA 
HETATM   29  O   UNL     1     -10.731  14.628  70.827  1.00  0.00     0.115 OA 
HETATM   30  P   UNL     1     -12.333  14.812  70.972  1.00  0.00    -0.395 P  
ENDBRANCH   7  26
ENDBRANCH   6   7
ENDBRANCH   5   6
BRANCH   5  31
HETATM   31  S   UNL     1      -9.887  14.240  66.834  1.00  0.00    -0.271 S  
HETATM   32  O   UNL     1      -9.341  13.693  65.609  1.00  0.00     0.030 OA 
HETATM   33  O   UNL     1      -9.282  13.851  68.092  1.00  0.00    -0.190 OA 
BRANCH  31  34
HETATM   34  C   UNL     1      -9.681  15.977  66.702  1.00  0.00    -0.244 A  
HETATM   35  N   UNL     1      -8.934  20.089  66.538  1.00  0.00    -0.445 NA 
HETATM   36  C   UNL     1     -10.587  16.855  67.297  1.00  0.00    -0.270 A  
HETATM   37  H1  UNL     1      -8.112  20.445  66.051  1.00  0.00     0.000 HD 
HETATM   38  H2  UNL     1      -8.908  20.429  67.500  1.00  0.00     0.000 HD 
HETATM   39  C   UNL     1      -8.474  16.451  66.185  1.00  0.00    -0.329 A  
HETATM   40  C   UNL     1      -8.237  17.815  66.121  1.00  0.00    -0.193 A  
HETATM   41  C   UNL     1     -10.334  18.227  67.236  1.00  0.00    -0.407 A  
HETATM   42  C   UNL     1      -9.205  18.717  66.566  1.00  0.00    -0.320 A  
ENDBRANCH  31  34
ENDBRANCH   5  31
ENDBRANCH   4   5
TORSDOF 12
ENDMDL
MODEL      161
REMARK 921   NORMALIZED FREE ENERGY PREDICTED BY IDOCK:   -5.08 KCAL/MOL
REMARK 922        TOTAL FREE ENERGY PREDICTED BY IDOCK:  -11.45 KCAL/MOL
REMARK 923 INTER-LIGAND FREE ENERGY PREDICTED BY IDOCK:  -10.07 KCAL/MOL
REMARK 924 INTRA-LIGAND FREE ENERGY PREDICTED BY IDOCK:   -1.38 KCAL/MOL
REMARK 927      BINDING AFFINITY PREDICTED BY RF-SCORE:    0.00 PKD
ROOT
HETATM    1  C   UNL     1     -11.574  15.783  64.298  1.00  0.00    -0.192 C  
HETATM    2  C   UNL     1     -12.404  14.524  64.487  1.00  0.00    -0.434 C  
HETATM    3  C   UNL     1     -12.329  13.546  63.312  1.00  0.00    -0.150 C  
HETATM    4  C   UNL     1     -12.473  13.761  65.815  1.00  0.00    -0.485 C  
ENDROOT
BRANCH   4   5
HETATM    5  N   UNL     1     -11.404  13.592  66.842  1.00  0.00    -0.315 N  
BRANCH   5   6
HETATM    6  C   UNL     1     -11.883  12.459  67.798  1.00  0.00    -0.298 C  
BRANCH   6   7
HETATM    7  C   UNL     1     -11.498  12.624  69.339  1.00  0.00    -0.266 C  
BRANCH   7   8
HETATM    8  C   UNL     1     -11.078  11.214  69.988  1.00  0.00    -0.098 C  
BRANCH   8   9
HETATM    9  N   UNL     1     -12.225  10.310  70.184  1.00  0.00    -0.467 N  
HETATM   10  C   UNL     1     -13.065  10.451  71.260  1.00  0.00    -0.399 C  
HETATM   11  H   UNL     1     -12.398   9.566  69.508  1.00  0.00     0.000 HD 
HETATM   12  O   UNL     1     -13.004  11.329  72.104  1.00  0.00    -0.393 OA 
BRANCH  10  13
HETATM   13  O   UNL     1     -14.006   9.468  71.240  1.00  0.00    -0.240 OA 
BRANCH  13  14
HETATM   14  C   UNL     1     -13.698   8.317  72.048  1.00  0.00    -0.337 C  
HETATM   15  C   UNL     1     -13.527   7.042  71.255  1.00  0.00    -0.265 C  
HETATM   16  O   UNL     1     -11.706   7.186  72.751  1.00  0.00    -0.196 OA 
HETATM   17  C   UNL     1     -12.565   6.244  72.101  1.00  0.00     0.019 C  
HETATM   18  C   UNL     1     -12.326   8.479  72.694  1.00  0.00    -0.222 C  
ENDBRANCH  13  14
ENDBRANCH  10  13
ENDBRANCH   8   9
BRANCH   8  19
HETATM   19  C   UNL     1      -9.886  10.462  69.351  1.00  0.00    -0.235 C  
BRANCH  19  20
HETATM   20  C   UNL     1     -10.124   9.059  68.861  1.00  0.00    -0.207 A  
HETATM   21  C   UNL     1     -10.832   7.521  67.123  1.00  0.00    -0.298 A  
HETATM   22  C   UNL     1     -10.432   6.708  69.362  1.00  0.00    -0.254 A  
HETATM   23  C   UNL     1     -10.085   7.995  69.770  1.00  0.00    -0.196 A  
HETATM   24  C   UNL     1     -10.493   8.812  67.531  1.00  0.00    -0.340 A  
HETATM   25  C   UNL     1     -10.808   6.472  68.041  1.00  0.00    -0.372 A  
ENDBRANCH  19  20
ENDBRANCH   8  19
ENDBRANCH   7   8
BRANCH   7  26
HETATM   26  O   UNL     1     -12.488  13.423  70.087  1.00  0.00    -0.267 OA 
HETATM   27  O   UNL     1     -11.522  16.331  71.254  1.00  0.00    -0.423 OA 
HETATM   28  O   UNL     1     -12.498  15.597  69.295  1.00  0.00    -0.149 OA 
HETATM   29  O   UNL     1     -10.432  14.724  70.281  1.00  0.00    -0.007 OA 
HETATM   30  P   UNL     1     -11.978  14.958  70.702  1.00  0.00    -0.364 P  
ENDBRANCH   7  26
ENDBRANCH   6   7
ENDBRANCH   5   6
BRANCH   5  31
HETATM   31  S   UNL     1      -9.721  13.462  66.576  1.00  0.00    -0.280 S  
HETATM   32  O   UNL     1      -9.035  13.442  67.851  1.00  0.00    -0.182 OA 
HETATM   33  O   UNL     1      -9.346  14.474  65.607  1.00  0.00    -0.145 OA 
BRANCH  31  34
HETATM   34  C   UNL     1      -9.368  11.912  65.832  1.00  0.00    -0.184 A  
HETATM   35  N   UNL     1      -8.258   8.323  63.996  1.00  0.00    -0.307 NA 
HETATM   36  C   UNL     1     -10.081  11.473  64.717  1.00  0.00    -0.316 A  
HETATM   37  H1  UNL     1      -7.490   7.767  64.372  1.00  0.00     0.000 HD 
HETATM   38  H2  UNL     1      -8.050   8.535  63.020  1.00  0.00     0.000 HD 
HETATM   39  C   UNL     1      -8.215  11.242  66.243  1.00  0.00    -0.126 A  
HETATM   40  C   UNL     1      -7.859  10.046  65.639  1.00  0.00    -0.138 A  
HETATM   41  C   UNL     1      -9.708  10.271  64.111  1.00  0.00    -0.357 A  
HETATM   42  C   UNL     1      -8.654   9.506  64.627  1.00  0.00    -0.187 A  
ENDBRANCH  31  34
ENDBRANCH   5  31
ENDBRANCH   4   5
TORSDOF 12
ENDMDL
MODEL      162
REMARK 921   NORMALIZED FREE ENERGY PREDICTED BY IDOCK:   -5.08 KCAL/MOL
REMARK 922        TOTAL FREE ENERGY PREDICTED BY IDOCK:  -11.45 KCAL/MOL
REMARK 923 INTER-LIGAND FREE ENERGY PREDICTED BY IDOCK:   -8.13 KCAL/MOL
REMARK 924 INTRA-LIGAND FREE ENERGY PREDICTED BY IDOCK:   -3.31 KCAL/MOL
REMARK 927      BINDING AFFINITY PREDICTED BY RF-SCORE:    0.00 PKD
ROOT
HETATM    1  C   UNL     1      -7.858   5.829  67.515  1.00  0.00    -0.101 C  
HETATM    2  C   UNL     1      -8.378   5.786  68.943  1.00  0.00    -0.101 C  
HETATM    3  C   UNL     1      -7.592   4.850  69.864  1.00  0.00    -0.056 C  
HETATM    4  C   UNL     1      -8.826   7.037  69.706  1.00  0.00    -0.142 C  
ENDROOT
BRANCH   4   5
HETATM    5  N   UNL     1      -8.285   8.424  69.609  1.00  0.00    -0.115 N  
BRANCH   5   6
HETATM    6  C   UNL     1      -9.021   9.264  70.695  1.00  0.00    -0.243 C  
BRANCH   6   7
HETATM    7  C   UNL     1     -10.617   9.232  70.652  1.00  0.00    -0.262 C  
BRANCH   7   8
HETATM    8  C   UNL     1     -11.202  10.489  69.837  1.00  0.00    -0.307 C  
BRANCH   8   9
HETATM    9  N   UNL     1     -11.152  10.297  68.377  1.00  0.00    -0.360 N  
HETATM   10  C   UNL     1     -10.401  11.121  67.578  1.00  0.00    -0.196 C  
HETATM   11  H   UNL     1     -11.685   9.538  67.953  1.00  0.00     0.000 HD 
HETATM   12  O   UNL     1      -9.676  12.023  67.962  1.00  0.00    -0.185 OA 
BRANCH  10  13
HETATM   13  O   UNL     1     -10.564  10.770  66.273  1.00  0.00    -0.246 OA 
BRANCH  13  14
HETATM   14  C   UNL     1      -9.409  10.173  65.656  1.00  0.00    -0.199 C  
HETATM   15  C   UNL     1      -9.449   8.662  65.616  1.00  0.00    -0.114 C  
HETATM   16  O   UNL     1      -8.829   9.404  63.462  1.00  0.00    -0.223 OA 
HETATM   17  C   UNL     1      -8.629   8.334  64.392  1.00  0.00     0.091 C  
HETATM   18  C   UNL     1      -9.359  10.531  64.175  1.00  0.00    -0.267 C  
ENDBRANCH  13  14
ENDBRANCH  10  13
ENDBRANCH   8   9
BRANCH   8  19
HETATM   19  C   UNL     1     -12.579  11.044  70.273  1.00  0.00    -0.321 C  
BRANCH  19  20
HETATM   20  C   UNL     1     -12.623  12.432  70.855  1.00  0.00    -0.337 A  
HETATM   21  C   UNL     1     -11.874  14.739  70.870  1.00  0.00    -0.379 A  
HETATM   22  C   UNL     1     -13.214  13.895  72.693  1.00  0.00    -0.592 A  
HETATM   23  C   UNL     1     -13.275  12.648  72.074  1.00  0.00    -0.531 A  
HETATM   24  C   UNL     1     -11.927  13.489  70.252  1.00  0.00    -0.386 A  
HETATM   25  C   UNL     1     -12.511  14.938  72.094  1.00  0.00    -0.416 A  
ENDBRANCH  19  20
ENDBRANCH   8  19
ENDBRANCH   7   8
BRANCH   7  26
HETATM   26  O   UNL     1     -11.214   8.971  71.976  1.00  0.00    -0.361 OA 
HETATM   27  O   UNL     1     -13.031   6.263  72.315  1.00  0.00    -0.081 OA 
HETATM   28  O   UNL     1     -10.801   6.783  72.603  1.00  0.00    -0.227 OA 
HETATM   29  O   UNL     1     -12.116   7.187  70.576  1.00  0.00    -0.268 OA 
HETATM   30  P   UNL     1     -12.172   7.542  72.154  1.00  0.00    -0.159 P  
ENDBRANCH   7  26
ENDBRANCH   6   7
ENDBRANCH   5   6
BRANCH   5  31
HETATM   31  S   UNL     1      -6.644   8.893  69.517  1.00  0.00    -0.044 S  
HETATM   32  O   UNL     1      -5.805   7.719  69.635  1.00  0.00    -0.023 OA 
HETATM   33  O   UNL     1      -6.442   9.983  70.450  1.00  0.00    -0.097 OA 
BRANCH  31  34
HETATM   34  C   UNL     1      -6.315   9.543  67.920  1.00  0.00    -0.054 A  
HETATM   35  N   UNL     1      -5.253  10.989  64.143  1.00  0.00    -0.479 NA 
HETATM   36  C   UNL     1      -6.391  10.913  67.673  1.00  0.00    -0.055 A  
HETATM   37  H1  UNL     1      -4.964  10.346  63.406  1.00  0.00     0.000 HD 
HETATM   38  H2  UNL     1      -4.508  11.673  64.280  1.00  0.00     0.000 HD 
HETATM   39  C   UNL     1      -5.759   8.682  66.971  1.00  0.00    -0.042 A  
HETATM   40  C   UNL     1      -5.421   9.165  65.716  1.00  0.00    -0.041 A  
HETATM   41  C   UNL     1      -6.039  11.389  66.409  1.00  0.00    -0.085 A  
HETATM   42  C   UNL     1      -5.641  10.506  65.397  1.00  0.00    -0.132 A  
ENDBRANCH  31  34
ENDBRANCH   5  31
ENDBRANCH   4   5
TORSDOF 12
ENDMDL
MODEL      163
REMARK 921   NORMALIZED FREE ENERGY PREDICTED BY IDOCK:   -5.05 KCAL/MOL
REMARK 922        TOTAL FREE ENERGY PREDICTED BY IDOCK:  -11.40 KCAL/MOL
REMARK 923 INTER-LIGAND FREE ENERGY PREDICTED BY IDOCK:  -10.07 KCAL/MOL
REMARK 924 INTRA-LIGAND FREE ENERGY PREDICTED BY IDOCK:   -1.33 KCAL/MOL
REMARK 927      BINDING AFFINITY PREDICTED BY RF-SCORE:    0.00 PKD
ROOT
HETATM    1  C   UNL     1      -9.896  15.288  69.228  1.00  0.00    -0.255 C  
HETATM    2  C   UNL     1     -10.995  14.321  69.635  1.00  0.00    -0.159 C  
HETATM    3  C   UNL     1     -12.396  14.746  69.188  1.00  0.00    -0.114 C  
HETATM    4  C   UNL     1     -10.844  12.798  69.545  1.00  0.00     0.217 C  
ENDROOT
BRANCH   4   5
HETATM    5  N   UNL     1     -10.078  12.002  68.542  1.00  0.00    -0.211 N  
BRANCH   5   6
HETATM    6  C   UNL     1      -9.425  10.820  69.319  1.00  0.00    -0.082 C  
BRANCH   6   7
HETATM    7  C   UNL     1     -10.391   9.983  70.275  1.00  0.00    -0.242 C  
BRANCH   7   8
HETATM    8  C   UNL     1      -9.924   8.447  70.373  1.00  0.00    -0.185 C  
BRANCH   8   9
HETATM    9  N   UNL     1     -10.190   7.689  69.137  1.00  0.00    -0.199 N  
HETATM   10  C   UNL     1     -11.132   6.693  69.103  1.00  0.00    -0.275 C  
HETATM   11  H   UNL     1      -9.663   7.909  68.291  1.00  0.00     0.000 HD 
HETATM   12  O   UNL     1     -11.867   6.372  70.022  1.00  0.00    -0.404 OA 
BRANCH  10  13
HETATM   13  O   UNL     1     -11.148   6.118  67.870  1.00  0.00    -0.328 OA 
BRANCH  13  14
HETATM   14  C   UNL     1      -9.941   5.422  67.510  1.00  0.00    -0.166 C  
HETATM   15  C   UNL     1      -9.552   4.330  68.480  1.00  0.00    -0.202 C  
HETATM   16  O   UNL     1      -9.396   3.423  66.305  1.00  0.00    -0.167 OA 
HETATM   17  C   UNL     1      -8.804   3.352  67.607  1.00  0.00    -0.129 C  
HETATM   18  C   UNL     1     -10.149   4.642  66.216  1.00  0.00    -0.265 C  
ENDBRANCH  13  14
ENDBRANCH  10  13
ENDBRANCH   8   9
BRANCH   8  19
HETATM   19  C   UNL     1      -8.495   8.166  70.895  1.00  0.00    -0.136 C  
BRANCH  19  20
HETATM   20  C   UNL     1      -8.295   6.962  71.776  1.00  0.00    -0.108 A  
HETATM   21  C   UNL     1      -9.162   5.323  73.340  1.00  0.00    -0.131 A  
HETATM   22  C   UNL     1      -6.784   5.477  72.950  1.00  0.00    -0.073 A  
HETATM   23  C   UNL     1      -6.998   6.505  72.034  1.00  0.00    -0.073 A  
HETATM   24  C   UNL     1      -9.378   6.358  72.430  1.00  0.00    -0.140 A  
HETATM   25  C   UNL     1      -7.864   4.889  73.605  1.00  0.00    -0.095 A  
ENDBRANCH  19  20
ENDBRANCH   8  19
ENDBRANCH   7   8
BRANCH   7  26
HETATM   26  O   UNL     1     -11.818  10.220  69.986  1.00  0.00    -0.256 OA 
HETATM   27  O   UNL     1     -13.991   9.414  72.305  1.00  0.00    -0.412 OA 
HETATM   28  O   UNL     1     -12.805  11.320  71.765  1.00  0.00    -0.416 OA 
HETATM   29  O   UNL     1     -11.848   9.098  72.153  1.00  0.00    -0.345 OA 
HETATM   30  P   UNL     1     -12.964   9.795  71.210  1.00  0.00    -0.355 P  
ENDBRANCH   7  26
ENDBRANCH   6   7
ENDBRANCH   5   6
BRANCH   5  31
HETATM   31  S   UNL     1     -10.618  11.470  67.010  1.00  0.00    -0.255 S  
HETATM   32  O   UNL     1     -11.875  10.767  67.165  1.00  0.00    -0.204 OA 
HETATM   33  O   UNL     1      -9.518  10.780  66.367  1.00  0.00    -0.165 OA 
BRANCH  31  34
HETATM   34  C   UNL     1     -10.982  12.863  66.007  1.00  0.00    -0.276 A  
HETATM   35  N   UNL     1     -11.771  16.354  63.844  1.00  0.00    -1.527 NA 
HETATM   36  C   UNL     1     -12.276  13.093  65.540  1.00  0.00    -0.513 A  
HETATM   37  H1  UNL     1     -11.022  17.017  63.643  1.00  0.00     0.000 HD 
HETATM   38  H2  UNL     1     -12.514  16.852  64.336  1.00  0.00     0.000 HD 
HETATM   39  C   UNL     1      -9.999  13.846  65.879  1.00  0.00    -0.317 A  
HETATM   40  C   UNL     1     -10.262  14.995  65.151  1.00  0.00    -0.399 A  
HETATM   41  C   UNL     1     -12.532  14.258  64.815  1.00  0.00    -0.390 A  
HETATM   42  C   UNL     1     -11.504  15.169  64.538  1.00  0.00    -0.316 A  
ENDBRANCH  31  34
ENDBRANCH   5  31
ENDBRANCH   4   5
TORSDOF 12
ENDMDL
MODEL      164
REMARK 921   NORMALIZED FREE ENERGY PREDICTED BY IDOCK:   -5.05 KCAL/MOL
REMARK 922        TOTAL FREE ENERGY PREDICTED BY IDOCK:  -11.40 KCAL/MOL
REMARK 923 INTER-LIGAND FREE ENERGY PREDICTED BY IDOCK:   -9.94 KCAL/MOL
REMARK 924 INTRA-LIGAND FREE ENERGY PREDICTED BY IDOCK:   -1.46 KCAL/MOL
REMARK 927      BINDING AFFINITY PREDICTED BY RF-SCORE:    0.00 PKD
ROOT
HETATM    1  C   UNL     1      -7.735   7.938  66.403  1.00  0.00    -0.096 C  
HETATM    2  C   UNL     1      -9.233   7.688  66.325  1.00  0.00    -0.204 C  
HETATM    3  C   UNL     1      -9.665   6.322  66.863  1.00  0.00    -0.184 C  
HETATM    4  C   UNL     1     -10.276   8.755  66.671  1.00  0.00    -0.270 C  
ENDROOT
BRANCH   4   5
HETATM    5  N   UNL     1     -10.190   9.836  67.697  1.00  0.00    -0.198 N  
BRANCH   5   6
HETATM    6  C   UNL     1     -10.929  11.071  67.101  1.00  0.00    -0.283 C  
BRANCH   6   7
HETATM    7  C   UNL     1     -10.012  12.174  66.400  1.00  0.00    -0.225 C  
BRANCH   7   8
HETATM    8  C   UNL     1     -10.238  13.624  67.058  1.00  0.00    -0.250 C  
BRANCH   8   9
HETATM    9  N   UNL     1     -10.619  13.553  68.480  1.00  0.00    -0.244 N  
HETATM   10  C   UNL     1     -11.554  14.407  69.007  1.00  0.00    -0.296 C  
HETATM   11  H   UNL     1     -10.180  12.857  69.082  1.00  0.00     0.000 HD 
HETATM   12  O   UNL     1     -12.192  15.240  68.386  1.00  0.00    -0.136 OA 
BRANCH  10  13
HETATM   13  O   UNL     1     -11.688  14.174  70.341  1.00  0.00    -0.285 OA 
BRANCH  13  14
HETATM   14  C   UNL     1     -12.605  15.049  71.021  1.00  0.00    -0.350 C  
HETATM   15  C   UNL     1     -13.458  14.355  72.059  1.00  0.00    -0.490 C  
HETATM   16  O   UNL     1     -12.596  16.314  73.057  1.00  0.00    -0.453 OA 
HETATM   17  C   UNL     1     -13.739  15.454  73.055  1.00  0.00    -0.392 C  
HETATM   18  C   UNL     1     -11.839  16.064  71.863  1.00  0.00    -0.534 C  
ENDBRANCH  13  14
ENDBRANCH  10  13
ENDBRANCH   8   9
BRANCH   8  19
HETATM   19  C   UNL     1      -9.138  14.689  66.834  1.00  0.00    -0.272 C  
BRANCH  19  20
HETATM   20  C   UNL     1      -8.076  14.832  67.890  1.00  0.00    -0.146 A  
HETATM   21  C   UNL     1      -6.902  16.174  69.536  1.00  0.00    -0.190 A  
HETATM   22  C   UNL     1      -6.048  14.000  68.922  1.00  0.00    -0.086 A  
HETATM   23  C   UNL     1      -7.115  13.826  68.043  1.00  0.00    -0.133 A  
HETATM   24  C   UNL     1      -7.967  16.006  68.649  1.00  0.00    -0.174 A  
HETATM   25  C   UNL     1      -5.940  15.174  69.665  1.00  0.00    -0.117 A  
ENDBRANCH  19  20
ENDBRANCH   8  19
ENDBRANCH   7   8
BRANCH   7  26
HETATM   26  O   UNL     1     -10.069  12.103  64.927  1.00  0.00    -0.266 OA 
HETATM   27  O   UNL     1     -12.984  12.559  63.497  1.00  0.00    -0.719 OA 
HETATM   28  O   UNL     1     -11.227  13.928  64.101  1.00  0.00    -0.314 OA 
HETATM   29  O   UNL     1     -12.405  12.372  65.582  1.00  0.00    -0.639 OA 
HETATM   30  P   UNL     1     -11.608  12.344  64.173  1.00  0.00    -0.467 P  
ENDBRANCH   7  26
ENDBRANCH   6   7
ENDBRANCH   5   6
BRANCH   5  31
HETATM   31  S   UNL     1     -10.516   9.707  69.369  1.00  0.00    -0.231 S  
HETATM   32  O   UNL     1     -11.207   8.460  69.627  1.00  0.00    -0.080 OA 
HETATM   33  O   UNL     1     -11.141  10.943  69.796  1.00  0.00    -0.258 OA 
BRANCH  31  34
HETATM   34  C   UNL     1      -9.001   9.590  70.248  1.00  0.00    -0.248 A  
HETATM   35  N   UNL     1      -5.267   9.210  72.093  1.00  0.00    -0.054 NA 
HETATM   36  C   UNL     1      -8.869   8.732  71.339  1.00  0.00    -0.292 A  
HETATM   37  H1  UNL     1      -4.470   9.754  71.762  1.00  0.00     0.000 HD 
HETATM   38  H2  UNL     1      -5.014   8.222  72.061  1.00  0.00     0.000 HD 
HETATM   39  C   UNL     1      -7.878  10.203  69.690  1.00  0.00    -0.181 A  
HETATM   40  C   UNL     1      -6.645  10.084  70.313  1.00  0.00    -0.127 A  
HETATM   41  C   UNL     1      -7.620   8.613  71.954  1.00  0.00    -0.106 A  
HETATM   42  C   UNL     1      -6.525   9.360  71.500  1.00  0.00     0.048 A  
ENDBRANCH  31  34
ENDBRANCH   5  31
ENDBRANCH   4   5
TORSDOF 12
ENDMDL
MODEL      165
REMARK 921   NORMALIZED FREE ENERGY PREDICTED BY IDOCK:   -5.05 KCAL/MOL
REMARK 922        TOTAL FREE ENERGY PREDICTED BY IDOCK:  -11.39 KCAL/MOL
REMARK 923 INTER-LIGAND FREE ENERGY PREDICTED BY IDOCK:   -9.09 KCAL/MOL
REMARK 924 INTRA-LIGAND FREE ENERGY PREDICTED BY IDOCK:   -2.30 KCAL/MOL
REMARK 927      BINDING AFFINITY PREDICTED BY RF-SCORE:    0.00 PKD
ROOT
HETATM    1  C   UNL     1     -11.191  15.320  71.742  1.00  0.00    -0.364 C  
HETATM    2  C   UNL     1     -12.284  14.441  71.157  1.00  0.00    -0.420 C  
HETATM    3  C   UNL     1     -13.668  15.095  71.142  1.00  0.00    -0.510 C  
HETATM    4  C   UNL     1     -12.084  13.583  69.904  1.00  0.00    -0.341 C  
ENDROOT
BRANCH   4   5
HETATM    5  N   UNL     1     -11.239  13.873  68.708  1.00  0.00    -0.258 N  
BRANCH   5   6
HETATM    6  C   UNL     1     -11.280  12.596  67.816  1.00  0.00    -0.274 C  
BRANCH   6   7
HETATM    7  C   UNL     1     -10.146  11.506  68.089  1.00  0.00    -0.193 C  
BRANCH   7   8
HETATM    8  C   UNL     1     -10.767  10.168  68.731  1.00  0.00    -0.220 C  
BRANCH   8   9
HETATM    9  N   UNL     1      -9.890   8.995  68.569  1.00  0.00    -0.164 N  
HETATM   10  C   UNL     1      -9.799   8.336  67.370  1.00  0.00    -0.188 C  
HETATM   11  H   UNL     1      -9.340   8.668  69.364  1.00  0.00     0.000 HD 
HETATM   12  O   UNL     1     -10.355   8.658  66.333  1.00  0.00    -0.262 OA 
BRANCH  10  13
HETATM   13  O   UNL     1      -8.969   7.265  67.496  1.00  0.00    -0.122 OA 
BRANCH  13  14
HETATM   14  C   UNL     1      -8.655   6.897  68.851  1.00  0.00    -0.131 C  
HETATM   15  C   UNL     1      -9.364   5.650  69.327  1.00  0.00    -0.150 C  
HETATM   16  O   UNL     1      -7.090   5.433  69.923  1.00  0.00    -0.058 OA 
HETATM   17  C   UNL     1      -8.411   5.089  70.354  1.00  0.00    -0.100 C  
HETATM   18  C   UNL     1      -7.189   6.493  68.961  1.00  0.00    -0.091 C  
ENDBRANCH  13  14
ENDBRANCH  10  13
ENDBRANCH   8   9
BRANCH   8  19
HETATM   19  C   UNL     1     -11.310  10.256  70.177  1.00  0.00    -0.388 C  
BRANCH  19  20
HETATM   20  C   UNL     1     -11.156   9.045  71.058  1.00  0.00    -0.356 A  
HETATM   21  C   UNL     1      -9.842   7.707  72.596  1.00  0.00    -0.262 A  
HETATM   22  C   UNL     1     -11.895   6.823  71.681  1.00  0.00    -0.370 A  
HETATM   23  C   UNL     1     -12.091   8.007  70.973  1.00  0.00    -0.232 A  
HETATM   24  C   UNL     1     -10.032   8.890  71.881  1.00  0.00    -0.384 A  
HETATM   25  C   UNL     1     -10.770   6.672  72.489  1.00  0.00    -0.259 A  
ENDBRANCH  19  20
ENDBRANCH   8  19
ENDBRANCH   7   8
BRANCH   7  26
HETATM   26  O   UNL     1      -8.966  12.074  68.767  1.00  0.00    -0.066 OA 
HETATM   27  O   UNL     1      -6.100  11.960  67.178  1.00  0.00    -0.125 OA 
HETATM   28  O   UNL     1      -7.833  13.479  67.320  1.00  0.00    -0.156 OA 
HETATM   29  O   UNL     1      -8.047  11.113  66.720  1.00  0.00    -0.143 OA 
HETATM   30  P   UNL     1      -7.454  12.014  67.928  1.00  0.00    -0.140 P  
ENDBRANCH   7  26
ENDBRANCH   6   7
ENDBRANCH   5   6
BRANCH   5  31
HETATM   31  S   UNL     1     -11.271  15.274  67.731  1.00  0.00    -0.315 S  
HETATM   32  O   UNL     1     -12.025  16.310  68.406  1.00  0.00    -0.095 OA 
HETATM   33  O   UNL     1     -11.684  14.876  66.400  1.00  0.00    -0.307 OA 
BRANCH  31  34
HETATM   34  C   UNL     1      -9.642  15.909  67.573  1.00  0.00    -0.221 A  
HETATM   35  N   UNL     1      -5.836  17.633  67.394  1.00  0.00    -0.139 NA 
HETATM   36  C   UNL     1      -9.182  16.411  66.356  1.00  0.00    -0.335 A  
HETATM   37  H1  UNL     1      -5.245  17.666  68.225  1.00  0.00     0.000 HD 
HETATM   38  H2  UNL     1      -5.953  18.586  67.048  1.00  0.00     0.000 HD 
HETATM   39  C   UNL     1      -8.906  16.105  68.743  1.00  0.00    -0.233 A  
HETATM   40  C   UNL     1      -7.640  16.666  68.676  1.00  0.00    -0.214 A  
HETATM   41  C   UNL     1      -7.909  16.982  66.302  1.00  0.00    -0.346 A  
HETATM   42  C   UNL     1      -7.096  17.027  67.442  1.00  0.00    -0.157 A  
ENDBRANCH  31  34
ENDBRANCH   5  31
ENDBRANCH   4   5
TORSDOF 12
ENDMDL
MODEL      166
REMARK 921   NORMALIZED FREE ENERGY PREDICTED BY IDOCK:   -5.04 KCAL/MOL
REMARK 922        TOTAL FREE ENERGY PREDICTED BY IDOCK:  -11.38 KCAL/MOL
REMARK 923 INTER-LIGAND FREE ENERGY PREDICTED BY IDOCK:   -9.53 KCAL/MOL
REMARK 924 INTRA-LIGAND FREE ENERGY PREDICTED BY IDOCK:   -1.85 KCAL/MOL
REMARK 927      BINDING AFFINITY PREDICTED BY RF-SCORE:    0.00 PKD
ROOT
HETATM    1  C   UNL     1     -11.026  15.534  70.733  1.00  0.00    -0.360 C  
HETATM    2  C   UNL     1     -11.950  14.335  70.873  1.00  0.00    -0.389 C  
HETATM    3  C   UNL     1     -13.438  14.691  70.865  1.00  0.00    -0.293 C  
HETATM    4  C   UNL     1     -11.712  13.008  70.144  1.00  0.00    -0.170 C  
ENDROOT
BRANCH   4   5
HETATM    5  N   UNL     1     -11.111  12.788  68.796  1.00  0.00    -0.249 N  
BRANCH   5   6
HETATM    6  C   UNL     1     -11.341  11.286  68.449  1.00  0.00    -0.281 C  
BRANCH   6   7
HETATM    7  C   UNL     1     -11.414  10.278  69.684  1.00  0.00    -0.235 C  
BRANCH   7   8
HETATM    8  C   UNL     1     -10.441   9.016  69.464  1.00  0.00    -0.219 C  
BRANCH   8   9
HETATM    9  N   UNL     1     -10.623   8.377  68.149  1.00  0.00    -0.398 N  
HETATM   10  C   UNL     1     -10.682   7.012  68.025  1.00  0.00    -0.194 C  
HETATM   11  H   UNL     1     -10.706   8.959  67.316  1.00  0.00     0.000 HD 
HETATM   12  O   UNL     1     -10.654   6.209  68.942  1.00  0.00    -0.215 OA 
BRANCH  10  13
HETATM   13  O   UNL     1     -10.799   6.675  66.712  1.00  0.00    -0.320 OA 
BRANCH  13  14
HETATM   14  C   UNL     1     -10.032   5.526  66.309  1.00  0.00    -0.140 C  
HETATM   15  C   UNL     1     -10.773   4.590  65.381  1.00  0.00    -0.162 C  
HETATM   16  O   UNL     1      -8.633   4.951  64.451  1.00  0.00    -0.136 OA 
HETATM   17  C   UNL     1      -9.662   3.963  64.575  1.00  0.00    -0.183 C  
HETATM   18  C   UNL     1      -8.849   5.958  65.450  1.00  0.00    -0.062 C  
ENDBRANCH  13  14
ENDBRANCH  10  13
ENDBRANCH   8   9
BRANCH   8  19
HETATM   19  C   UNL     1      -8.939   9.209  69.781  1.00  0.00    -0.168 C  
BRANCH  19  20
HETATM   20  C   UNL     1      -8.076   9.844  68.724  1.00  0.00    -0.102 A  
HETATM   21  C   UNL     1      -6.709   9.666  66.728  1.00  0.00    -0.075 A  
HETATM   22  C   UNL     1      -6.737  11.725  67.990  1.00  0.00    -0.069 A  
HETATM   23  C   UNL     1      -7.642  11.164  68.889  1.00  0.00    -0.133 A  
HETATM   24  C   UNL     1      -7.609   9.100  67.632  1.00  0.00    -0.085 A  
HETATM   25  C   UNL     1      -6.268  10.975  66.913  1.00  0.00    -0.093 A  
ENDBRANCH  19  20
ENDBRANCH   8  19
ENDBRANCH   7   8
BRANCH   7  26
HETATM   26  O   UNL     1     -12.801   9.976  70.087  1.00  0.00    -0.031 OA 
HETATM   27  O   UNL     1     -13.305   8.986  73.172  1.00  0.00    -0.214 OA 
HETATM   28  O   UNL     1     -13.280  11.026  72.093  1.00  0.00    -0.481 OA 
HETATM   29  O   UNL     1     -11.485   9.359  72.047  1.00  0.00    -0.328 OA 
HETATM   30  P   UNL     1     -13.066   9.454  71.715  1.00  0.00    -0.469 P  
ENDBRANCH   7  26
ENDBRANCH   6   7
ENDBRANCH   5   6
BRANCH   5  31
HETATM   31  S   UNL     1     -11.315  13.751  67.399  1.00  0.00    -0.341 S  
HETATM   32  O   UNL     1     -10.374  14.851  67.437  1.00  0.00    -0.241 OA 
HETATM   33  O   UNL     1     -12.727  14.055  67.273  1.00  0.00     0.053 OA 
BRANCH  31  34
HETATM   34  C   UNL     1     -10.882  12.815  65.980  1.00  0.00    -0.276 A  
HETATM   35  N   UNL     1     -10.087  10.411  62.651  1.00  0.00    -0.689 NA 
HETATM   36  C   UNL     1      -9.674  12.122  65.918  1.00  0.00    -0.253 A  
HETATM   37  H1  UNL     1     -10.758  10.350  61.886  1.00  0.00     0.000 HD 
HETATM   38  H2  UNL     1      -9.910   9.467  62.996  1.00  0.00     0.000 HD 
HETATM   39  C   UNL     1     -11.871  12.600  65.017  1.00  0.00    -0.439 A  
HETATM   40  C   UNL     1     -11.597  11.813  63.910  1.00  0.00    -0.469 A  
HETATM   41  C   UNL     1      -9.412  11.324  64.802  1.00  0.00    -0.221 A  
HETATM   42  C   UNL     1     -10.334  11.240  63.750  1.00  0.00    -0.395 A  
ENDBRANCH  31  34
ENDBRANCH   5  31
ENDBRANCH   4   5
TORSDOF 12
ENDMDL
MODEL      167
REMARK 921   NORMALIZED FREE ENERGY PREDICTED BY IDOCK:   -5.01 KCAL/MOL
REMARK 922        TOTAL FREE ENERGY PREDICTED BY IDOCK:  -11.33 KCAL/MOL
REMARK 923 INTER-LIGAND FREE ENERGY PREDICTED BY IDOCK:   -8.43 KCAL/MOL
REMARK 924 INTRA-LIGAND FREE ENERGY PREDICTED BY IDOCK:   -2.90 KCAL/MOL
REMARK 927      BINDING AFFINITY PREDICTED BY RF-SCORE:    0.00 PKD
ROOT
HETATM    1  C   UNL     1     -12.725  10.686  70.588  1.00  0.00    -0.445 C  
HETATM    2  C   UNL     1     -11.262  10.319  70.399  1.00  0.00    -0.407 C  
HETATM    3  C   UNL     1     -10.990   8.813  70.416  1.00  0.00    -0.262 C  
HETATM    4  C   UNL     1     -10.351  11.016  69.383  1.00  0.00    -0.104 C  
ENDROOT
BRANCH   4   5
HETATM    5  N   UNL     1     -10.711  11.575  68.047  1.00  0.00    -0.192 N  
BRANCH   5   6
HETATM    6  C   UNL     1     -11.151  10.368  67.166  1.00  0.00    -0.122 C  
BRANCH   6   7
HETATM    7  C   UNL     1      -9.995   9.631  66.348  1.00  0.00    -0.255 C  
BRANCH   7   8
HETATM    8  C   UNL     1      -9.496   8.306  67.110  1.00  0.00    -0.160 C  
BRANCH   8   9
HETATM    9  N   UNL     1      -9.873   7.065  66.408  1.00  0.00    -0.401 N  
HETATM   10  C   UNL     1     -10.763   6.179  66.960  1.00  0.00    -0.350 C  
HETATM   11  H   UNL     1      -9.465   6.863  65.495  1.00  0.00     0.000 HD 
HETATM   12  O   UNL     1     -11.362   6.330  68.011  1.00  0.00    -0.260 OA 
BRANCH  10  13
HETATM   13  O   UNL     1     -10.900   5.099  66.144  1.00  0.00    -0.282 OA 
BRANCH  13  14
HETATM   14  C   UNL     1      -9.664   4.491  65.729  1.00  0.00    -0.203 C  
HETATM   15  C   UNL     1      -9.221   3.344  66.608  1.00  0.00    -0.186 C  
HETATM   16  O   UNL     1      -9.032   2.622  64.368  1.00  0.00    -0.108 OA 
HETATM   17  C   UNL     1      -8.432   2.475  65.659  1.00  0.00    -0.104 C  
HETATM   18  C   UNL     1      -9.841   3.808  64.377  1.00  0.00    -0.188 C  
ENDBRANCH  13  14
ENDBRANCH  10  13
ENDBRANCH   8   9
BRANCH   8  19
HETATM   19  C   UNL     1      -8.018   8.256  67.562  1.00  0.00    -0.110 C  
BRANCH  19  20
HETATM   20  C   UNL     1      -7.737   7.983  69.015  1.00  0.00    -0.100 A  
HETATM   21  C   UNL     1      -7.886   6.539  70.959  1.00  0.00    -0.110 A  
HETATM   22  C   UNL     1      -7.139   8.822  71.208  1.00  0.00    -0.096 A  
HETATM   23  C   UNL     1      -7.277   9.019  69.835  1.00  0.00    -0.058 A  
HETATM   24  C   UNL     1      -8.034   6.737  69.586  1.00  0.00    -0.124 A  
HETATM   25  C   UNL     1      -7.446   7.584  71.769  1.00  0.00    -0.080 A  
ENDBRANCH  19  20
ENDBRANCH   8  19
ENDBRANCH   7   8
BRANCH   7  26
HETATM   26  O   UNL     1      -8.946  10.560  65.889  1.00  0.00    -0.155 OA 
HETATM   27  O   UNL     1      -7.676  10.067  62.907  1.00  0.00    -0.128 OA 
HETATM   28  O   UNL     1      -9.434  11.301  63.753  1.00  0.00    -0.223 OA 
HETATM   29  O   UNL     1      -9.067   8.904  64.102  1.00  0.00     0.042 OA 
HETATM   30  P   UNL     1      -8.276  10.300  64.316  1.00  0.00    -0.089 P  
ENDBRANCH   7  26
ENDBRANCH   6   7
ENDBRANCH   5   6
BRANCH   5  31
HETATM   31  S   UNL     1     -11.699  12.930  67.722  1.00  0.00    -0.351 S  
HETATM   32  O   UNL     1     -12.351  13.351  68.945  1.00  0.00    -0.212 OA 
HETATM   33  O   UNL     1     -12.525  12.612  66.574  1.00  0.00    -0.407 OA 
BRANCH  31  34
HETATM   34  C   UNL     1     -10.689  14.284  67.243  1.00  0.00    -0.277 A  
HETATM   35  N   UNL     1      -8.198  17.348  65.867  1.00  0.00    -0.552 NA 
HETATM   36  C   UNL     1      -9.631  14.709  68.046  1.00  0.00    -0.212 A  
HETATM   37  H1  UNL     1      -8.376  17.792  64.966  1.00  0.00     0.000 HD 
HETATM   38  H2  UNL     1      -7.246  16.982  65.859  1.00  0.00     0.000 HD 
HETATM   39  C   UNL     1     -10.831  14.772  65.943  1.00  0.00    -0.331 A  
HETATM   40  C   UNL     1     -10.010  15.796  65.496  1.00  0.00    -0.341 A  
HETATM   41  C   UNL     1      -8.805  15.735  67.582  1.00  0.00    -0.180 A  
HETATM   42  C   UNL     1      -9.049  16.346  66.346  1.00  0.00    -0.306 A  
ENDBRANCH  31  34
ENDBRANCH   5  31
ENDBRANCH   4   5
TORSDOF 12
ENDMDL
MODEL      168
REMARK 921   NORMALIZED FREE ENERGY PREDICTED BY IDOCK:   -4.98 KCAL/MOL
REMARK 922        TOTAL FREE ENERGY PREDICTED BY IDOCK:  -11.29 KCAL/MOL
REMARK 923 INTER-LIGAND FREE ENERGY PREDICTED BY IDOCK:   -8.82 KCAL/MOL
REMARK 924 INTRA-LIGAND FREE ENERGY PREDICTED BY IDOCK:   -2.47 KCAL/MOL
REMARK 927      BINDING AFFINITY PREDICTED BY RF-SCORE:    0.00 PKD
ROOT
HETATM    1  C   UNL     1      -8.988  14.844  69.189  1.00  0.00    -0.140 C  
HETATM    2  C   UNL     1     -10.496  14.655  69.142  1.00  0.00    -0.239 C  
HETATM    3  C   UNL     1     -11.291  15.956  69.271  1.00  0.00    -0.355 C  
HETATM    4  C   UNL     1     -11.187  13.700  68.163  1.00  0.00    -0.275 C  
ENDROOT
BRANCH   4   5
HETATM    5  N   UNL     1     -10.781  13.346  66.772  1.00  0.00    -0.276 N  
BRANCH   5   6
HETATM    6  C   UNL     1     -11.339  11.918  66.496  1.00  0.00    -0.341 C  
BRANCH   6   7
HETATM    7  C   UNL     1     -10.716  10.735  67.369  1.00  0.00    -0.268 C  
BRANCH   7   8
HETATM    8  C   UNL     1      -9.887   9.708  66.449  1.00  0.00    -0.244 C  
BRANCH   8   9
HETATM    9  N   UNL     1     -10.522   8.381  66.358  1.00  0.00    -0.316 N  
HETATM   10  C   UNL     1     -10.082   7.330  67.122  1.00  0.00    -0.236 C  
HETATM   11  H   UNL     1     -11.303   8.243  65.717  1.00  0.00     0.000 HD 
HETATM   12  O   UNL     1      -9.202   7.377  67.964  1.00  0.00    -0.133 OA 
BRANCH  10  13
HETATM   13  O   UNL     1     -10.794   6.211  66.816  1.00  0.00    -0.319 OA 
BRANCH  13  14
HETATM   14  C   UNL     1     -10.064   5.209  66.085  1.00  0.00    -0.207 C  
HETATM   15  C   UNL     1      -8.847   5.742  65.365  1.00  0.00    -0.093 C  
HETATM   16  O   UNL     1      -8.182   3.789  66.514  1.00  0.00    -0.099 OA 
HETATM   17  C   UNL     1      -7.926   4.547  65.327  1.00  0.00    -0.098 C  
HETATM   18  C   UNL     1      -9.450   4.198  67.048  1.00  0.00    -0.192 C  
ENDBRANCH  13  14
ENDBRANCH  10  13
ENDBRANCH   8   9
BRANCH   8  19
HETATM   19  C   UNL     1      -9.440  10.202  65.053  1.00  0.00    -0.330 C  
BRANCH  19  20
HETATM   20  C   UNL     1      -8.263   9.517  64.412  1.00  0.00    -0.148 A  
HETATM   21  C   UNL     1      -7.348   8.009  62.745  1.00  0.00    -0.102 A  
HETATM   22  C   UNL     1      -5.943   8.829  64.531  1.00  0.00    -0.065 A  
HETATM   23  C   UNL     1      -7.012   9.565  65.037  1.00  0.00    -0.101 A  
HETATM   24  C   UNL     1      -8.422   8.739  63.256  1.00  0.00    -0.123 A  
HETATM   25  C   UNL     1      -6.111   8.049  63.388  1.00  0.00    -0.071 A  
ENDBRANCH  19  20
ENDBRANCH   8  19
ENDBRANCH   7   8
BRANCH   7  26
HETATM   26  O   UNL     1     -11.694  10.142  68.299  1.00  0.00    -0.178 OA 
HETATM   27  O   UNL     1     -10.769   9.732  71.418  1.00  0.00    -0.267 OA 
HETATM   28  O   UNL     1     -11.811  11.413  70.229  1.00  0.00    -0.325 OA 
HETATM   29  O   UNL     1      -9.675  10.362  69.651  1.00  0.00    -0.205 OA 
HETATM   30  P   UNL     1     -11.206   9.926  69.945  1.00  0.00    -0.206 P  
ENDBRANCH   7  26
ENDBRANCH   6   7
ENDBRANCH   5   6
BRANCH   5  31
HETATM   31  S   UNL     1     -10.929  14.315  65.371  1.00  0.00    -0.354 S  
HETATM   32  O   UNL     1     -12.331  14.567  65.111  1.00  0.00    -0.384 OA 
HETATM   33  O   UNL     1     -10.132  13.705  64.325  1.00  0.00    -0.313 OA 
BRANCH  31  34
HETATM   34  C   UNL     1     -10.220  15.891  65.677  1.00  0.00    -0.379 A  
HETATM   35  N   UNL     1      -8.435  19.540  66.668  1.00  0.00    -0.310 NA 
HETATM   36  C   UNL     1     -11.019  17.028  65.788  1.00  0.00     0.086 A  
HETATM   37  H1  UNL     1      -7.426  19.601  66.805  1.00  0.00     0.000 HD 
HETATM   38  H2  UNL     1      -8.893  19.881  67.514  1.00  0.00     0.000 HD 
HETATM   39  C   UNL     1      -8.870  15.938  66.030  1.00  0.00    -0.298 A  
HETATM   40  C   UNL     1      -8.281  17.152  66.346  1.00  0.00    -0.327 A  
HETATM   41  C   UNL     1     -10.417  18.245  66.114  1.00  0.00    -0.403 A  
HETATM   42  C   UNL     1      -9.031  18.329  66.303  1.00  0.00    -0.181 A  
ENDBRANCH  31  34
ENDBRANCH   5  31
ENDBRANCH   4   5
TORSDOF 12
ENDMDL
MODEL      169
REMARK 921   NORMALIZED FREE ENERGY PREDICTED BY IDOCK:   -4.98 KCAL/MOL
REMARK 922        TOTAL FREE ENERGY PREDICTED BY IDOCK:  -11.28 KCAL/MOL
REMARK 923 INTER-LIGAND FREE ENERGY PREDICTED BY IDOCK:   -8.67 KCAL/MOL
REMARK 924 INTRA-LIGAND FREE ENERGY PREDICTED BY IDOCK:   -2.61 KCAL/MOL
REMARK 927      BINDING AFFINITY PREDICTED BY RF-SCORE:    0.00 PKD
ROOT
HETATM    1  C   UNL     1      -6.769   9.358  68.168  1.00  0.00    -0.059 C  
HETATM    2  C   UNL     1      -6.751  10.792  67.663  1.00  0.00    -0.069 C  
HETATM    3  C   UNL     1      -6.242  10.941  66.228  1.00  0.00    -0.134 C  
HETATM    4  C   UNL     1      -7.885  11.786  67.935  1.00  0.00    -0.135 C  
ENDROOT
BRANCH   4   5
HETATM    5  N   UNL     1      -9.347  11.513  68.058  1.00  0.00    -0.168 N  
BRANCH   5   6
HETATM    6  C   UNL     1      -9.610  11.172  69.555  1.00  0.00     0.377 C  
BRANCH   6   7
HETATM    7  C   UNL     1     -10.386   9.806  69.843  1.00  0.00    -0.254 C  
BRANCH   7   8
HETATM    8  C   UNL     1      -9.791   8.601  68.960  1.00  0.00    -0.182 C  
BRANCH   8   9
HETATM    9  N   UNL     1      -9.496   7.398  69.759  1.00  0.00    -0.160 N  
HETATM   10  C   UNL     1     -10.488   6.518  70.109  1.00  0.00    -0.214 C  
HETATM   11  H   UNL     1      -8.538   7.217  70.056  1.00  0.00     0.000 HD 
HETATM   12  O   UNL     1     -11.657   6.586  69.771  1.00  0.00    -0.394 OA 
BRANCH  10  13
HETATM   13  O   UNL     1      -9.969   5.527  70.885  1.00  0.00    -0.180 OA 
BRANCH  13  14
HETATM   14  C   UNL     1      -8.885   4.793  70.286  1.00  0.00    -0.101 C  
HETATM   15  C   UNL     1      -8.161   3.879  71.248  1.00  0.00    -0.068 C  
HETATM   16  O   UNL     1      -8.606   2.629  69.295  1.00  0.00    -0.059 OA 
HETATM   17  C   UNL     1      -7.651   2.778  70.350  1.00  0.00    -0.043 C  
HETATM   18  C   UNL     1      -9.422   3.809  69.253  1.00  0.00    -0.182 C  
ENDBRANCH  13  14
ENDBRANCH  10  13
ENDBRANCH   8   9
BRANCH   8  19
HETATM   19  C   UNL     1     -10.544   8.229  67.660  1.00  0.00    -0.264 C  
BRANCH  19  20
HETATM   20  C   UNL     1      -9.780   8.295  66.365  1.00  0.00    -0.300 A  
HETATM   21  C   UNL     1      -8.108   7.401  64.852  1.00  0.00    -0.114 A  
HETATM   22  C   UNL     1      -9.063   9.581  64.441  1.00  0.00    -0.234 A  
HETATM   23  C   UNL     1      -9.863   9.447  65.574  1.00  0.00    -0.231 A  
HETATM   24  C   UNL     1      -8.902   7.269  65.992  1.00  0.00    -0.161 A  
HETATM   25  C   UNL     1      -8.184   8.561  64.082  1.00  0.00    -0.141 A  
ENDBRANCH  19  20
ENDBRANCH   8  19
ENDBRANCH   7   8
BRANCH   7  26
HETATM   26  O   UNL     1     -11.852   9.974  69.825  1.00  0.00    -0.150 OA 
HETATM   27  O   UNL     1     -13.488   9.335  72.593  1.00  0.00    -0.444 OA 
HETATM   28  O   UNL     1     -12.522  11.212  71.660  1.00  0.00    -0.284 OA 
HETATM   29  O   UNL     1     -11.404   9.066  72.045  1.00  0.00    -0.364 OA 
HETATM   30  P   UNL     1     -12.715   9.637  71.286  1.00  0.00    -0.342 P  
ENDBRANCH   7  26
ENDBRANCH   6   7
ENDBRANCH   5   6
BRANCH   5  31
HETATM   31  S   UNL     1     -10.633  12.450  67.434  1.00  0.00    -0.218 S  
HETATM   32  O   UNL     1     -11.797  11.606  67.258  1.00  0.00    -0.609 OA 
HETATM   33  O   UNL     1     -10.132  13.182  66.288  1.00  0.00    -0.272 OA 
BRANCH  31  34
HETATM   34  C   UNL     1     -11.104  13.653  68.621  1.00  0.00    -0.272 A  
HETATM   35  N   UNL     1     -11.978  16.455  71.601  1.00  0.00    -0.657 NA 
HETATM   36  C   UNL     1     -12.272  13.506  69.368  1.00  0.00    -0.278 A  
HETATM   37  H1  UNL     1     -11.355  17.246  71.764  1.00  0.00     0.000 HD 
HETATM   38  H2  UNL     1     -12.077  15.942  72.477  1.00  0.00     0.000 HD 
HETATM   39  C   UNL     1     -10.170  14.636  68.955  1.00  0.00    -0.222 A  
HETATM   40  C   UNL     1     -10.470  15.569  69.935  1.00  0.00    -0.323 A  
HETATM   41  C   UNL     1     -12.560  14.447  70.359  1.00  0.00    -0.405 A  
HETATM   42  C   UNL     1     -11.706  15.535  70.583  1.00  0.00    -0.357 A  
ENDBRANCH  31  34
ENDBRANCH   5  31
ENDBRANCH   4   5
TORSDOF 12
ENDMDL
MODEL      170
REMARK 921   NORMALIZED FREE ENERGY PREDICTED BY IDOCK:   -4.95 KCAL/MOL
REMARK 922        TOTAL FREE ENERGY PREDICTED BY IDOCK:  -11.23 KCAL/MOL
REMARK 923 INTER-LIGAND FREE ENERGY PREDICTED BY IDOCK:   -8.92 KCAL/MOL
REMARK 924 INTRA-LIGAND FREE ENERGY PREDICTED BY IDOCK:   -2.31 KCAL/MOL
REMARK 927      BINDING AFFINITY PREDICTED BY RF-SCORE:    0.00 PKD
ROOT
HETATM    1  C   UNL     1      -9.503   9.421  65.279  1.00  0.00    -0.296 C  
HETATM    2  C   UNL     1      -8.522   8.620  66.120  1.00  0.00    -0.140 C  
HETATM    3  C   UNL     1      -7.204   8.304  65.408  1.00  0.00    -0.071 C  
HETATM    4  C   UNL     1      -8.274   8.900  67.606  1.00  0.00    -0.110 C  
ENDROOT
BRANCH   4   5
HETATM    5  N   UNL     1      -8.304  10.210  68.319  1.00  0.00    -0.113 N  
BRANCH   5   6
HETATM    6  C   UNL     1      -8.141   9.893  69.836  1.00  0.00    -0.188 C  
BRANCH   6   7
HETATM    7  C   UNL     1      -9.235   8.925  70.478  1.00  0.00    -0.203 C  
BRANCH   7   8
HETATM    8  C   UNL     1     -10.632   9.018  69.685  1.00  0.00    -0.224 C  
BRANCH   8   9
HETATM    9  N   UNL     1     -10.889   7.839  68.839  1.00  0.00    -0.415 N  
HETATM   10  C   UNL     1     -10.968   6.581  69.380  1.00  0.00    -0.337 C  
HETATM   11  H   UNL     1     -11.012   7.961  67.834  1.00  0.00     0.000 HD 
HETATM   12  O   UNL     1     -10.898   6.307  70.566  1.00  0.00    -0.247 OA 
BRANCH  10  13
HETATM   13  O   UNL     1     -11.159   5.667  68.390  1.00  0.00    -0.104 OA 
BRANCH  13  14
HETATM   14  C   UNL     1     -10.241   5.767  67.286  1.00  0.00    -0.205 C  
HETATM   15  C   UNL     1      -8.910   5.095  67.535  1.00  0.00    -0.105 C  
HETATM   16  O   UNL     1      -9.654   4.408  65.402  1.00  0.00    -0.162 OA 
HETATM   17  C   UNL     1      -8.467   4.698  66.147  1.00  0.00    -0.114 C  
HETATM   18  C   UNL     1     -10.773   4.990  66.087  1.00  0.00    -0.203 C  
ENDBRANCH  13  14
ENDBRANCH  10  13
ENDBRANCH   8   9
BRANCH   8  19
HETATM   19  C   UNL     1     -11.891   9.398  70.500  1.00  0.00    -0.207 C  
BRANCH  19  20
HETATM   20  C   UNL     1     -12.145  10.859  70.756  1.00  0.00    -0.469 A  
HETATM   21  C   UNL     1     -13.303  12.622  71.955  1.00  0.00    -0.555 A  
HETATM   22  C   UNL     1     -11.969  13.159  70.015  1.00  0.00    -0.391 A  
HETATM   23  C   UNL     1     -11.634  11.814  69.870  1.00  0.00    -0.351 A  
HETATM   24  C   UNL     1     -12.977  11.273  71.806  1.00  0.00    -0.519 A  
HETATM   25  C   UNL     1     -12.805  13.562  71.055  1.00  0.00    -0.343 A  
ENDBRANCH  19  20
ENDBRANCH   8  19
ENDBRANCH   7   8
BRANCH   7  26
HETATM   26  O   UNL     1      -9.304   9.043  71.947  1.00  0.00    -0.341 OA 
HETATM   27  O   UNL     1      -7.853   6.704  73.728  1.00  0.00    -0.096 OA 
HETATM   28  O   UNL     1      -7.198   8.738  72.856  1.00  0.00    -0.337 OA 
HETATM   29  O   UNL     1      -8.202   6.894  71.593  1.00  0.00    -0.108 OA 
HETATM   30  P   UNL     1      -8.537   7.809  72.886  1.00  0.00    -0.200 P  
ENDBRANCH   7  26
ENDBRANCH   6   7
ENDBRANCH   5   6
BRANCH   5  31
HETATM   31  S   UNL     1      -7.440  11.629  67.919  1.00  0.00    -0.114 S  
HETATM   32  O   UNL     1      -6.919  11.508  66.573  1.00  0.00    -0.106 OA 
HETATM   33  O   UNL     1      -6.510  11.900  68.997  1.00  0.00    -0.072 OA 
BRANCH  31  34
HETATM   34  C   UNL     1      -8.548  12.989  67.869  1.00  0.00    -0.189 A  
HETATM   35  N   UNL     1     -11.120  16.262  67.464  1.00  0.00    -0.207 NA 
HETATM   36  C   UNL     1      -8.316  14.132  68.634  1.00  0.00    -0.123 A  
HETATM   37  H1  UNL     1     -11.918  16.216  66.831  1.00  0.00     0.000 HD 
HETATM   38  H2  UNL     1     -10.547  17.064  67.199  1.00  0.00     0.000 HD 
HETATM   39  C   UNL     1      -9.535  12.987  66.882  1.00  0.00    -0.242 A  
HETATM   40  C   UNL     1     -10.392  14.070  66.761  1.00  0.00    -0.271 A  
HETATM   41  C   UNL     1      -9.181  15.220  68.497  1.00  0.00    -0.200 A  
HETATM   42  C   UNL     1     -10.277  15.158  67.628  1.00  0.00    -0.241 A  
ENDBRANCH  31  34
ENDBRANCH   5  31
ENDBRANCH   4   5
TORSDOF 12
ENDMDL
MODEL      171
REMARK 921   NORMALIZED FREE ENERGY PREDICTED BY IDOCK:   -4.94 KCAL/MOL
REMARK 922        TOTAL FREE ENERGY PREDICTED BY IDOCK:  -11.21 KCAL/MOL
REMARK 923 INTER-LIGAND FREE ENERGY PREDICTED BY IDOCK:   -9.65 KCAL/MOL
REMARK 924 INTRA-LIGAND FREE ENERGY PREDICTED BY IDOCK:   -1.57 KCAL/MOL
REMARK 927      BINDING AFFINITY PREDICTED BY RF-SCORE:    0.00 PKD
ROOT
HETATM    1  C   UNL     1     -12.802  13.931  65.432  1.00  0.00    -0.466 C  
HETATM    2  C   UNL     1     -12.300  12.498  65.354  1.00  0.00    -0.426 C  
HETATM    3  C   UNL     1     -11.843  12.073  63.957  1.00  0.00    -0.500 C  
HETATM    4  C   UNL     1     -11.403  11.869  66.425  1.00  0.00    -0.339 C  
ENDROOT
BRANCH   4   5
HETATM    5  N   UNL     1     -10.353  12.526  67.257  1.00  0.00    -0.219 N  
BRANCH   5   6
HETATM    6  C   UNL     1      -9.664  11.395  68.077  1.00  0.00    -0.186 C  
BRANCH   6   7
HETATM    7  C   UNL     1     -10.616  10.525  69.019  1.00  0.00    -0.222 C  
BRANCH   7   8
HETATM    8  C   UNL     1     -10.470   8.955  68.703  1.00  0.00    -0.193 C  
BRANCH   8   9
HETATM    9  N   UNL     1     -11.044   8.103  69.761  1.00  0.00    -0.431 N  
HETATM   10  C   UNL     1     -10.287   7.687  70.827  1.00  0.00    -0.203 C  
HETATM   11  H   UNL     1     -12.021   7.818  69.699  1.00  0.00     0.000 HD 
HETATM   12  O   UNL     1      -9.130   8.004  71.048  1.00  0.00    -0.143 OA 
BRANCH  10  13
HETATM   13  O   UNL     1     -11.028   6.875  71.627  1.00  0.00    -0.228 OA 
BRANCH  13  14
HETATM   14  C   UNL     1     -10.306   5.777  72.213  1.00  0.00    -0.202 C  
HETATM   15  C   UNL     1     -11.093   5.012  73.253  1.00  0.00    -0.406 C  
HETATM   16  O   UNL     1     -10.116   3.423  71.805  1.00  0.00    -0.158 OA 
HETATM   17  C   UNL     1     -10.507   3.624  73.167  1.00  0.00    -0.176 C  
HETATM   18  C   UNL     1     -10.036   4.705  71.163  1.00  0.00    -0.195 C  
ENDBRANCH  13  14
ENDBRANCH  10  13
ENDBRANCH   8   9
BRANCH   8  19
HETATM   19  C   UNL     1     -10.908   8.464  67.303  1.00  0.00    -0.088 C  
BRANCH  19  20
HETATM   20  C   UNL     1     -10.274   7.207  66.771  1.00  0.00    -0.289 A  
HETATM   21  C   UNL     1     -10.284   4.799  66.478  1.00  0.00    -0.294 A  
HETATM   22  C   UNL     1      -8.314   6.074  65.908  1.00  0.00    -0.138 A  
HETATM   23  C   UNL     1      -8.964   7.249  66.281  1.00  0.00    -0.185 A  
HETATM   24  C   UNL     1     -10.933   5.973  66.860  1.00  0.00    -0.350 A  
HETATM   25  C   UNL     1      -8.972   4.850  66.010  1.00  0.00    -0.129 A  
ENDBRANCH  19  20
ENDBRANCH   8  19
ENDBRANCH   7   8
BRANCH   7  26
HETATM   26  O   UNL     1     -11.990  11.058  69.082  1.00  0.00    -0.329 OA 
HETATM   27  O   UNL     1     -13.301  11.534  72.049  1.00  0.00    -0.476 OA 
HETATM   28  O   UNL     1     -12.079  12.823  70.575  1.00  0.00    -0.367 OA 
HETATM   29  O   UNL     1     -11.439  10.613  71.417  1.00  0.00    -0.011 OA 
HETATM   30  P   UNL     1     -12.681  11.310  70.648  1.00  0.00    -0.105 P  
ENDBRANCH   7  26
ENDBRANCH   6   7
ENDBRANCH   5   6
BRANCH   5  31
HETATM   31  S   UNL     1      -9.191  13.671  66.746  1.00  0.00    -0.212 S  
HETATM   32  O   UNL     1      -9.385  13.952  65.339  1.00  0.00     0.127 OA 
HETATM   33  O   UNL     1      -7.890  13.207  67.184  1.00  0.00    -0.145 OA 
BRANCH  31  34
HETATM   34  C   UNL     1      -9.476  15.194  67.570  1.00  0.00    -0.206 A  
HETATM   35  N   UNL     1     -10.322  18.906  69.301  1.00  0.00    -0.406 NA 
HETATM   36  C   UNL     1      -8.426  16.069  67.843  1.00  0.00    -0.165 A  
HETATM   37  H1  UNL     1     -11.282  19.158  69.539  1.00  0.00     0.000 HD 
HETATM   38  H2  UNL     1      -9.950  19.622  68.676  1.00  0.00     0.000 HD 
HETATM   39  C   UNL     1     -10.801  15.604  67.738  1.00  0.00    -0.307 A  
HETATM   40  C   UNL     1     -11.075  16.830  68.324  1.00  0.00    -0.259 A  
HETATM   41  C   UNL     1      -8.714  17.306  68.425  1.00  0.00    -0.261 A  
HETATM   42  C   UNL     1     -10.032  17.652  68.753  1.00  0.00    -0.358 A  
ENDBRANCH  31  34
ENDBRANCH   5  31
ENDBRANCH   4   5
TORSDOF 12
ENDMDL
MODEL      172
REMARK 921   NORMALIZED FREE ENERGY PREDICTED BY IDOCK:   -4.93 KCAL/MOL
REMARK 922        TOTAL FREE ENERGY PREDICTED BY IDOCK:  -11.19 KCAL/MOL
REMARK 923 INTER-LIGAND FREE ENERGY PREDICTED BY IDOCK:   -9.09 KCAL/MOL
REMARK 924 INTRA-LIGAND FREE ENERGY PREDICTED BY IDOCK:   -2.10 KCAL/MOL
REMARK 927      BINDING AFFINITY PREDICTED BY RF-SCORE:    0.00 PKD
ROOT
HETATM    1  C   UNL     1     -13.173   9.702  72.313  1.00  0.00    -0.492 C  
HETATM    2  C   UNL     1     -12.934  10.482  71.030  1.00  0.00    -0.475 C  
HETATM    3  C   UNL     1     -12.520  11.938  71.254  1.00  0.00    -0.319 C  
HETATM    4  C   UNL     1     -12.198   9.894  69.821  1.00  0.00     0.290 C  
ENDROOT
BRANCH   4   5
HETATM    5  N   UNL     1     -11.072   8.915  69.809  1.00  0.00    -0.153 N  
BRANCH   5   6
HETATM    6  C   UNL     1      -9.801   9.695  70.262  1.00  0.00    -0.266 C  
BRANCH   6   7
HETATM    7  C   UNL     1      -8.773  10.101  69.110  1.00  0.00    -0.170 C  
BRANCH   7   8
HETATM    8  C   UNL     1      -9.315  11.356  68.262  1.00  0.00    -0.187 C  
BRANCH   8   9
HETATM    9  N   UNL     1      -8.313  12.428  68.122  1.00  0.00    -0.172 N  
HETATM   10  C   UNL     1      -7.239  12.291  67.280  1.00  0.00    -0.138 C  
HETATM   11  H   UNL     1      -8.421  13.287  68.662  1.00  0.00     0.000 HD 
HETATM   12  O   UNL     1      -7.027  11.344  66.541  1.00  0.00    -0.130 OA 
BRANCH  10  13
HETATM   13  O   UNL     1      -6.441  13.389  67.372  1.00  0.00    -0.239 OA 
BRANCH  13  14
HETATM   14  C   UNL     1      -7.046  14.527  68.011  1.00  0.00    -0.140 C  
HETATM   15  C   UNL     1      -6.326  14.981  69.261  1.00  0.00    -0.116 C  
HETATM   16  O   UNL     1      -6.740  16.903  67.953  1.00  0.00    -0.137 OA 
HETATM   17  C   UNL     1      -6.632  16.459  69.309  1.00  0.00    -0.206 C  
HETATM   18  C   UNL     1      -6.935  15.755  67.114  1.00  0.00    -0.169 C  
ENDBRANCH  13  14
ENDBRANCH  10  13
ENDBRANCH   8   9
BRANCH   8  19
HETATM   19  C   UNL     1      -9.998  11.059  66.906  1.00  0.00    -0.231 C  
BRANCH  19  20
HETATM   20  C   UNL     1     -10.739  12.184  66.234  1.00  0.00    -0.296 A  
HETATM   21  C   UNL     1     -12.349  13.997  66.315  1.00  0.00    -0.482 A  
HETATM   22  C   UNL     1     -11.469  13.261  64.190  1.00  0.00    -0.438 A  
HETATM   23  C   UNL     1     -10.685  12.310  64.841  1.00  0.00    -0.335 A  
HETATM   24  C   UNL     1     -11.572  13.039  66.969  1.00  0.00    -0.413 A  
HETATM   25  C   UNL     1     -12.302  14.101  64.926  1.00  0.00    -0.446 A  
ENDBRANCH  19  20
ENDBRANCH   8  19
ENDBRANCH   7   8
BRANCH   7  26
HETATM   26  O   UNL     1      -8.302   8.938  68.336  1.00  0.00    -0.122 OA 
HETATM   27  O   UNL     1      -5.192   7.990  68.757  1.00  0.00    -0.023 OA 
HETATM   28  O   UNL     1      -7.212   7.453  69.736  1.00  0.00    -0.076 OA 
HETATM   29  O   UNL     1      -6.295   9.712  69.488  1.00  0.00    -0.042 OA 
HETATM   30  P   UNL     1      -6.661   8.438  68.558  1.00  0.00    -0.065 P  
ENDBRANCH   7  26
ENDBRANCH   6   7
ENDBRANCH   5   6
BRANCH   5  31
HETATM   31  S   UNL     1     -11.061   7.340  70.470  1.00  0.00    -0.272 S  
HETATM   32  O   UNL     1     -12.399   6.993  70.902  1.00  0.00    -0.369 OA 
HETATM   33  O   UNL     1      -9.985   7.273  71.439  1.00  0.00    -0.187 OA 
BRANCH  31  34
HETATM   34  C   UNL     1     -10.663   6.184  69.211  1.00  0.00    -0.318 A  
HETATM   35  N   UNL     1      -9.429   3.466  66.282  1.00  0.00    -0.334 NA 
HETATM   36  C   UNL     1     -10.946   6.455  67.873  1.00  0.00    -0.416 A  
HETATM   37  H1  UNL     1      -8.947   2.606  66.545  1.00  0.00     0.000 HD 
HETATM   38  H2  UNL     1      -8.835   3.977  65.628  1.00  0.00     0.000 HD 
HETATM   39  C   UNL     1      -9.858   5.097  69.558  1.00  0.00    -0.278 A  
HETATM   40  C   UNL     1      -9.462   4.193  68.584  1.00  0.00    -0.221 A  
HETATM   41  C   UNL     1     -10.534   5.542  66.899  1.00  0.00    -0.348 A  
HETATM   42  C   UNL     1      -9.873   4.361  67.261  1.00  0.00    -0.162 A  
ENDBRANCH  31  34
ENDBRANCH   5  31
ENDBRANCH   4   5
TORSDOF 12
ENDMDL
MODEL      173
REMARK 921   NORMALIZED FREE ENERGY PREDICTED BY IDOCK:   -4.93 KCAL/MOL
REMARK 922        TOTAL FREE ENERGY PREDICTED BY IDOCK:  -11.19 KCAL/MOL
REMARK 923 INTER-LIGAND FREE ENERGY PREDICTED BY IDOCK:   -8.71 KCAL/MOL
REMARK 924 INTRA-LIGAND FREE ENERGY PREDICTED BY IDOCK:   -2.47 KCAL/MOL
REMARK 927      BINDING AFFINITY PREDICTED BY RF-SCORE:    0.00 PKD
ROOT
HETATM    1  C   UNL     1      -9.922   5.546  65.967  1.00  0.00    -0.074 C  
HETATM    2  C   UNL     1     -10.745   6.305  66.995  1.00  0.00    -0.435 C  
HETATM    3  C   UNL     1     -10.861   5.596  68.346  1.00  0.00    -0.161 C  
HETATM    4  C   UNL     1     -10.641   7.821  67.193  1.00  0.00    -0.331 C  
ENDROOT
BRANCH   4   5
HETATM    5  N   UNL     1      -9.441   8.695  67.043  1.00  0.00    -0.160 N  
BRANCH   5   6
HETATM    6  C   UNL     1      -8.205   7.816  67.402  1.00  0.00    -0.123 C  
BRANCH   6   7
HETATM    7  C   UNL     1      -7.850   7.697  68.953  1.00  0.00    -0.123 C  
BRANCH   7   8
HETATM    8  C   UNL     1      -7.776   9.146  69.647  1.00  0.00    -0.082 C  
BRANCH   8   9
HETATM    9  N   UNL     1      -7.006  10.121  68.854  1.00  0.00    -0.061 N  
HETATM   10  C   UNL     1      -6.319  11.143  69.458  1.00  0.00    -0.101 C  
HETATM   11  H   UNL     1      -6.983  10.034  67.838  1.00  0.00     0.000 HD 
HETATM   12  O   UNL     1      -6.218  11.324  70.660  1.00  0.00    -0.334 OA 
BRANCH  10  13
HETATM   13  O   UNL     1      -5.739  11.929  68.511  1.00  0.00    -0.049 OA 
BRANCH  13  14
HETATM   14  C   UNL     1      -6.467  13.127  68.186  1.00  0.00    -0.105 C  
HETATM   15  C   UNL     1      -7.965  12.993  68.342  1.00  0.00    -0.135 C  
HETATM   16  O   UNL     1      -7.326  15.006  69.400  1.00  0.00    -0.169 OA 
HETATM   17  C   UNL     1      -8.398  14.402  68.667  1.00  0.00    -0.147 C  
HETATM   18  C   UNL     1      -6.138  14.230  69.186  1.00  0.00    -0.095 C  
ENDBRANCH  13  14
ENDBRANCH  10  13
ENDBRANCH   8   9
BRANCH   8  19
HETATM   19  C   UNL     1      -9.102   9.766  70.146  1.00  0.00    -0.240 C  
BRANCH  19  20
HETATM   20  C   UNL     1      -9.953   8.946  71.078  1.00  0.00    -0.324 A  
HETATM   21  C   UNL     1     -10.185   7.564  73.059  1.00  0.00    -0.360 A  
HETATM   22  C   UNL     1     -12.012   7.738  71.489  1.00  0.00    -0.329 A  
HETATM   23  C   UNL     1     -11.257   8.605  70.702  1.00  0.00    -0.284 A  
HETATM   24  C   UNL     1      -9.424   8.425  72.268  1.00  0.00    -0.367 A  
HETATM   25  C   UNL     1     -11.476   7.215  72.664  1.00  0.00    -0.274 A  
ENDBRANCH  19  20
ENDBRANCH   8  19
ENDBRANCH   7   8
BRANCH   7  26
HETATM   26  O   UNL     1      -6.714   6.789  69.205  1.00  0.00    -0.049 OA 
HETATM   27  O   UNL     1      -7.290   4.092  70.978  1.00  0.00    -0.039 OA 
HETATM   28  O   UNL     1      -7.332   4.611  68.729  1.00  0.00    -0.059 OA 
HETATM   29  O   UNL     1      -8.535   5.805  70.498  1.00  0.00    -0.122 OA 
HETATM   30  P   UNL     1      -7.019   5.366  70.140  1.00  0.00    -0.060 P  
ENDBRANCH   7  26
ENDBRANCH   6   7
ENDBRANCH   5   6
BRANCH   5  31
HETATM   31  S   UNL     1      -9.067   9.727  65.733  1.00  0.00    -0.193 S  
HETATM   32  O   UNL     1      -9.121   8.971  64.499  1.00  0.00    -0.111 OA 
HETATM   33  O   UNL     1      -7.841  10.429  66.058  1.00  0.00    -0.130 OA 
BRANCH  31  34
HETATM   34  C   UNL     1     -10.314  10.952  65.585  1.00  0.00    -0.242 A  
HETATM   35  N   UNL     1     -13.087  14.044  65.092  1.00  0.00    -0.759 NA 
HETATM   36  C   UNL     1     -10.877  11.544  66.715  1.00  0.00    -0.330 A  
HETATM   37  H1  UNL     1     -13.363  14.346  64.158  1.00  0.00     0.000 HD 
HETATM   38  H2  UNL     1     -12.727  14.855  65.596  1.00  0.00     0.000 HD 
HETATM   39  C   UNL     1     -10.562  11.476  64.314  1.00  0.00    -0.405 A  
HETATM   40  C   UNL     1     -11.491  12.492  64.156  1.00  0.00    -0.449 A  
HETATM   41  C   UNL     1     -11.805  12.573  66.544  1.00  0.00    -0.434 A  
HETATM   42  C   UNL     1     -12.186  12.987  65.261  1.00  0.00    -0.466 A  
ENDBRANCH  31  34
ENDBRANCH   5  31
ENDBRANCH   4   5
TORSDOF 12
ENDMDL
MODEL      174
REMARK 921   NORMALIZED FREE ENERGY PREDICTED BY IDOCK:   -4.89 KCAL/MOL
REMARK 922        TOTAL FREE ENERGY PREDICTED BY IDOCK:  -11.13 KCAL/MOL
REMARK 923 INTER-LIGAND FREE ENERGY PREDICTED BY IDOCK:   -8.68 KCAL/MOL
REMARK 924 INTRA-LIGAND FREE ENERGY PREDICTED BY IDOCK:   -2.44 KCAL/MOL
REMARK 927      BINDING AFFINITY PREDICTED BY RF-SCORE:    0.00 PKD
ROOT
HETATM    1  C   UNL     1      -6.774  10.485  65.488  1.00  0.00    -0.092 C  
HETATM    2  C   UNL     1      -6.925  10.841  66.958  1.00  0.00    -0.100 C  
HETATM    3  C   UNL     1      -6.260  12.161  67.352  1.00  0.00    -0.142 C  
HETATM    4  C   UNL     1      -8.234  10.648  67.733  1.00  0.00    -0.111 C  
ENDROOT
BRANCH   4   5
HETATM    5  N   UNL     1      -9.634  10.775  67.232  1.00  0.00    -0.159 N  
BRANCH   5   6
HETATM    6  C   UNL     1     -10.230   9.336  67.213  1.00  0.00    -0.252 C  
BRANCH   6   7
HETATM    7  C   UNL     1      -9.836   8.392  68.439  1.00  0.00    -0.176 C  
BRANCH   7   8
HETATM    8  C   UNL     1      -9.135   7.037  67.928  1.00  0.00    -0.127 C  
BRANCH   8   9
HETATM    9  N   UNL     1      -7.971   6.652  68.745  1.00  0.00    -0.117 N  
HETATM   10  C   UNL     1      -6.691   6.814  68.280  1.00  0.00    -0.068 C  
HETATM   11  H   UNL     1      -8.120   6.257  69.674  1.00  0.00     0.000 HD 
HETATM   12  O   UNL     1      -6.376   7.324  67.218  1.00  0.00    -0.050 OA 
BRANCH  10  13
HETATM   13  O   UNL     1      -5.805   6.336  69.196  1.00  0.00    -0.018 OA 
BRANCH  13  14
HETATM   14  C   UNL     1      -5.177   7.340  70.013  1.00  0.00    -0.023 C  
HETATM   15  C   UNL     1      -5.646   8.747  69.722  1.00  0.00    -0.029 C  
HETATM   16  O   UNL     1      -5.692   8.464  72.066  1.00  0.00    -0.038 OA 
HETATM   17  C   UNL     1      -5.466   9.445  71.049  1.00  0.00    -0.051 C  
HETATM   18  C   UNL     1      -5.584   7.162  71.472  1.00  0.00    -0.036 C  
ENDBRANCH  13  14
ENDBRANCH  10  13
ENDBRANCH   8   9
BRANCH   8  19
HETATM   19  C   UNL     1     -10.049   5.818  67.659  1.00  0.00    -0.205 C  
BRANCH  19  20
HETATM   20  C   UNL     1      -9.448   4.635  66.948  1.00  0.00    -0.175 A  
HETATM   21  C   UNL     1      -8.691   3.560  64.910  1.00  0.00    -0.115 A  
HETATM   22  C   UNL     1      -8.879   2.280  66.949  1.00  0.00    -0.146 A  
HETATM   23  C   UNL     1      -9.308   3.420  67.627  1.00  0.00    -0.246 A  
HETATM   24  C   UNL     1      -9.129   4.700  65.584  1.00  0.00    -0.142 A  
HETATM   25  C   UNL     1      -8.574   2.349  65.591  1.00  0.00    -0.115 A  
ENDBRANCH  19  20
ENDBRANCH   8  19
ENDBRANCH   7   8
BRANCH   7  26
HETATM   26  O   UNL     1     -10.935   8.237  69.411  1.00  0.00    -0.144 OA 
HETATM   27  O   UNL     1     -10.187   8.453  72.596  1.00  0.00    -0.302 OA 
HETATM   28  O   UNL     1     -10.851   9.947  70.966  1.00  0.00    -0.321 OA 
HETATM   29  O   UNL     1      -8.946   8.413  70.814  1.00  0.00    -0.140 OA 
HETATM   30  P   UNL     1     -10.540   8.351  71.091  1.00  0.00    -0.243 P  
ENDBRANCH   7  26
ENDBRANCH   6   7
ENDBRANCH   5   6
BRANCH   5  31
HETATM   31  S   UNL     1     -10.819  11.896  67.740  1.00  0.00    -0.223 S  
HETATM   32  O   UNL     1     -10.351  12.581  68.927  1.00  0.00    -0.161 OA 
HETATM   33  O   UNL     1     -12.089  11.200  67.801  1.00  0.00    -0.606 OA 
BRANCH  31  34
HETATM   34  C   UNL     1     -10.999  13.145  66.521  1.00  0.00    -0.286 A  
HETATM   35  N   UNL     1     -11.455  16.318  63.835  1.00  0.00    -1.539 NA 
HETATM   36  C   UNL     1     -12.073  13.131  65.632  1.00  0.00    -0.501 A  
HETATM   37  H1  UNL     1     -10.778  17.080  63.816  1.00  0.00     0.000 HD 
HETATM   38  H2  UNL     1     -12.380  16.718  63.995  1.00  0.00     0.000 HD 
HETATM   39  C   UNL     1     -10.170  14.265  66.612  1.00  0.00    -0.272 A  
HETATM   40  C   UNL     1     -10.318  15.308  65.710  1.00  0.00    -0.364 A  
HETATM   41  C   UNL     1     -12.218  14.192  64.735  1.00  0.00    -0.457 A  
HETATM   42  C   UNL     1     -11.287  15.238  64.709  1.00  0.00    -0.391 A  
ENDBRANCH  31  34
ENDBRANCH   5  31
ENDBRANCH   4   5
TORSDOF 12
ENDMDL
MODEL      175
REMARK 921   NORMALIZED FREE ENERGY PREDICTED BY IDOCK:   -4.87 KCAL/MOL
REMARK 922        TOTAL FREE ENERGY PREDICTED BY IDOCK:  -11.09 KCAL/MOL
REMARK 923 INTER-LIGAND FREE ENERGY PREDICTED BY IDOCK:   -8.69 KCAL/MOL
REMARK 924 INTRA-LIGAND FREE ENERGY PREDICTED BY IDOCK:   -2.40 KCAL/MOL
REMARK 927      BINDING AFFINITY PREDICTED BY RF-SCORE:    0.00 PKD
ROOT
HETATM    1  C   UNL     1      -8.068   7.763  63.712  1.00  0.00    -0.051 C  
HETATM    2  C   UNL     1      -7.896   7.725  65.222  1.00  0.00    -0.117 C  
HETATM    3  C   UNL     1      -6.517   8.180  65.703  1.00  0.00    -0.049 C  
HETATM    4  C   UNL     1      -8.983   8.186  66.198  1.00  0.00    -0.178 C  
ENDROOT
BRANCH   4   5
HETATM    5  N   UNL     1      -9.981   9.282  66.023  1.00  0.00    -0.292 N  
BRANCH   5   6
HETATM    6  C   UNL     1     -10.657   9.493  67.410  1.00  0.00    -0.271 C  
BRANCH   6   7
HETATM    7  C   UNL     1      -9.823   9.010  68.683  1.00  0.00    -0.165 C  
BRANCH   7   8
HETATM    8  C   UNL     1     -10.684   8.003  69.596  1.00  0.00    -0.207 C  
BRANCH   8   9
HETATM    9  N   UNL     1     -10.145   6.631  69.599  1.00  0.00    -0.178 N  
HETATM   10  C   UNL     1     -10.474   5.737  68.613  1.00  0.00    -0.229 C  
HETATM   11  H   UNL     1      -9.517   6.342  70.349  1.00  0.00     0.000 HD 
HETATM   12  O   UNL     1     -11.164   5.972  67.635  1.00  0.00    -0.234 OA 
BRANCH  10  13
HETATM   13  O   UNL     1      -9.893   4.534  68.872  1.00  0.00    -0.168 OA 
BRANCH  13  14
HETATM   14  C   UNL     1      -9.431   3.820  67.711  1.00  0.00    -0.179 C  
HETATM   15  C   UNL     1      -8.052   4.231  67.249  1.00  0.00    -0.100 C  
HETATM   16  O   UNL     1      -8.099   1.871  67.301  1.00  0.00    -0.065 OA 
HETATM   17  C   UNL     1      -7.526   2.977  66.595  1.00  0.00    -0.075 C  
HETATM   18  C   UNL     1      -9.231   2.346  68.044  1.00  0.00    -0.206 C  
ENDBRANCH  13  14
ENDBRANCH  10  13
ENDBRANCH   8   9
BRANCH   8  19
HETATM   19  C   UNL     1     -11.034   8.462  71.031  1.00  0.00    -0.288 C  
BRANCH  19  20
HETATM   20  C   UNL     1     -10.899   7.455  72.141  1.00  0.00    -0.273 A  
HETATM   21  C   UNL     1      -9.690   6.561  74.045  1.00  0.00    -0.269 A  
HETATM   22  C   UNL     1     -11.534   5.321  73.098  1.00  0.00    -0.316 A  
HETATM   23  C   UNL     1     -11.731   6.330  72.156  1.00  0.00    -0.368 A  
HETATM   24  C   UNL     1      -9.881   7.568  73.098  1.00  0.00    -0.316 A  
HETATM   25  C   UNL     1     -10.513   5.435  74.039  1.00  0.00    -0.317 A  
ENDBRANCH  19  20
ENDBRANCH   8  19
ENDBRANCH   7   8
BRANCH   7  26
HETATM   26  O   UNL     1      -9.160  10.127  69.383  1.00  0.00    -0.188 OA 
HETATM   27  O   UNL     1      -6.011   9.743  70.213  1.00  0.00    -0.046 OA 
HETATM   28  O   UNL     1      -7.128  10.584  68.377  1.00  0.00    -0.075 OA 
HETATM   29  O   UNL     1      -7.466   8.370  69.368  1.00  0.00    -0.084 OA 
HETATM   30  P   UNL     1      -7.498   9.924  69.820  1.00  0.00    -0.169 P  
ENDBRANCH   7  26
ENDBRANCH   6   7
ENDBRANCH   5   6
BRANCH   5  31
HETATM   31  S   UNL     1      -9.741  10.788  65.251  1.00  0.00    -0.278 S  
HETATM   32  O   UNL     1     -10.477  10.808  64.004  1.00  0.00    -0.358 OA 
HETATM   33  O   UNL     1      -8.316  11.046  65.216  1.00  0.00    -0.085 OA 
BRANCH  31  34
HETATM   34  C   UNL     1     -10.449  12.061  66.231  1.00  0.00    -0.238 A  
HETATM   35  N   UNL     1     -12.159  15.257  68.316  1.00  0.00    -0.519 NA 
HETATM   36  C   UNL     1      -9.719  12.674  67.248  1.00  0.00    -0.207 A  
HETATM   37  H1  UNL     1     -13.105  15.569  68.098  1.00  0.00     0.000 HD 
HETATM   38  H2  UNL     1     -11.529  16.054  68.217  1.00  0.00     0.000 HD 
HETATM   39  C   UNL     1     -11.672  12.594  65.817  1.00  0.00    -0.466 A  
HETATM   40  C   UNL     1     -12.240  13.645  66.521  1.00  0.00    -0.454 A  
HETATM   41  C   UNL     1     -10.297  13.738  67.944  1.00  0.00    -0.244 A  
HETATM   42  C   UNL     1     -11.597  14.167  67.644  1.00  0.00    -0.365 A  
ENDBRANCH  31  34
ENDBRANCH   5  31
ENDBRANCH   4   5
TORSDOF 12
ENDMDL
MODEL      176
REMARK 921   NORMALIZED FREE ENERGY PREDICTED BY IDOCK:   -4.85 KCAL/MOL
REMARK 922        TOTAL FREE ENERGY PREDICTED BY IDOCK:  -11.06 KCAL/MOL
REMARK 923 INTER-LIGAND FREE ENERGY PREDICTED BY IDOCK:   -9.21 KCAL/MOL
REMARK 924 INTRA-LIGAND FREE ENERGY PREDICTED BY IDOCK:   -1.85 KCAL/MOL
REMARK 927      BINDING AFFINITY PREDICTED BY RF-SCORE:    0.00 PKD
ROOT
HETATM    1  C   UNL     1      -9.453  11.325  64.088  1.00  0.00    -0.200 C  
HETATM    2  C   UNL     1      -9.528   9.860  64.486  1.00  0.00    -0.328 C  
HETATM    3  C   UNL     1      -8.321   9.031  64.041  1.00  0.00    -0.180 C  
HETATM    4  C   UNL     1     -10.021   9.393  65.860  1.00  0.00    -0.256 C  
ENDROOT
BRANCH   4   5
HETATM    5  N   UNL     1      -9.864  10.072  67.180  1.00  0.00    -0.177 N  
BRANCH   5   6
HETATM    6  C   UNL     1     -11.010   9.539  68.091  1.00  0.00    -0.089 C  
BRANCH   6   7
HETATM    7  C   UNL     1     -11.752  10.621  69.001  1.00  0.00    -0.234 C  
BRANCH   7   8
HETATM    8  C   UNL     1     -11.812  12.053  68.270  1.00  0.00    -0.287 C  
BRANCH   8   9
HETATM    9  N   UNL     1     -10.937  13.056  68.905  1.00  0.00    -0.296 N  
HETATM   10  C   UNL     1     -11.455  14.195  69.467  1.00  0.00    -0.281 C  
HETATM   11  H   UNL     1      -9.930  12.899  68.926  1.00  0.00     0.000 HD 
HETATM   12  O   UNL     1     -12.639  14.472  69.559  1.00  0.00    -0.200 OA 
BRANCH  10  13
HETATM   13  O   UNL     1     -10.444  14.976  69.935  1.00  0.00    -0.225 OA 
BRANCH  13  14
HETATM   14  C   UNL     1      -9.785  15.778  68.938  1.00  0.00    -0.225 C  
HETATM   15  C   UNL     1     -10.346  17.176  68.809  1.00  0.00    -0.353 C  
HETATM   16  O   UNL     1      -7.995  17.370  68.911  1.00  0.00    -0.256 OA 
HETATM   17  C   UNL     1      -9.157  17.975  68.334  1.00  0.00    -0.286 C  
HETATM   18  C   UNL     1      -8.342  16.048  69.349  1.00  0.00    -0.139 C  
ENDBRANCH  13  14
ENDBRANCH  10  13
ENDBRANCH   8   9
BRANCH   8  19
HETATM   19  C   UNL     1     -11.651  12.076  66.732  1.00  0.00    -0.391 C  
BRANCH  19  20
HETATM   20  C   UNL     1     -11.538  13.418  66.059  1.00  0.00    -0.375 A  
HETATM   21  C   UNL     1     -12.483  15.173  64.677  1.00  0.00    -0.060 A  
HETATM   22  C   UNL     1     -10.141  15.230  65.263  1.00  0.00    -0.362 A  
HETATM   23  C   UNL     1     -10.293  14.054  65.994  1.00  0.00    -0.312 A  
HETATM   24  C   UNL     1     -12.635  13.990  65.401  1.00  0.00    -0.529 A  
HETATM   25  C   UNL     1     -11.234  15.788  64.602  1.00  0.00    -0.373 A  
ENDBRANCH  19  20
ENDBRANCH   8  19
ENDBRANCH   7   8
BRANCH   7  26
HETATM   26  O   UNL     1     -11.270  10.614  70.395  1.00  0.00    -0.304 OA 
HETATM   27  O   UNL     1     -13.300   9.464  72.698  1.00  0.00    -0.395 OA 
HETATM   28  O   UNL     1     -11.666   8.545  71.351  1.00  0.00    -0.273 OA 
HETATM   29  O   UNL     1     -13.584   9.863  70.583  1.00  0.00    -0.183 OA 
HETATM   30  P   UNL     1     -12.341  10.007  71.610  1.00  0.00    -0.285 P  
ENDBRANCH   7  26
ENDBRANCH   6   7
ENDBRANCH   5   6
BRANCH   5  31
HETATM   31  S   UNL     1      -8.429  10.253  68.089  1.00  0.00    -0.125 S  
HETATM   32  O   UNL     1      -8.475  11.509  68.809  1.00  0.00    -0.137 OA 
HETATM   33  O   UNL     1      -7.309  10.008  67.202  1.00  0.00    -0.090 OA 
BRANCH  31  34
HETATM   34  C   UNL     1      -8.362   9.009  69.324  1.00  0.00    -0.122 A  
HETATM   35  N   UNL     1      -7.969   6.186  72.385  1.00  0.00    -0.104 NA 
HETATM   36  C   UNL     1      -8.105   7.679  68.991  1.00  0.00    -0.126 A  
HETATM   37  H1  UNL     1      -8.081   6.463  73.360  1.00  0.00     0.000 HD 
HETATM   38  H2  UNL     1      -7.051   5.753  72.279  1.00  0.00     0.000 HD 
HETATM   39  C   UNL     1      -8.347   9.419  70.659  1.00  0.00    -0.217 A  
HETATM   40  C   UNL     1      -8.229   8.477  71.669  1.00  0.00    -0.209 A  
HETATM   41  C   UNL     1      -7.979   6.741  70.017  1.00  0.00    -0.116 A  
HETATM   42  C   UNL     1      -8.133   7.120  71.357  1.00  0.00    -0.106 A  
ENDBRANCH  31  34
ENDBRANCH   5  31
ENDBRANCH   4   5
TORSDOF 12
ENDMDL
MODEL      177
REMARK 921   NORMALIZED FREE ENERGY PREDICTED BY IDOCK:   -4.85 KCAL/MOL
REMARK 922        TOTAL FREE ENERGY PREDICTED BY IDOCK:  -11.06 KCAL/MOL
REMARK 923 INTER-LIGAND FREE ENERGY PREDICTED BY IDOCK:   -8.30 KCAL/MOL
REMARK 924 INTRA-LIGAND FREE ENERGY PREDICTED BY IDOCK:   -2.76 KCAL/MOL
REMARK 927      BINDING AFFINITY PREDICTED BY RF-SCORE:    0.00 PKD
ROOT
HETATM    1  C   UNL     1      -6.199   5.269  70.428  1.00  0.00    -0.023 C  
HETATM    2  C   UNL     1      -6.402   6.231  71.587  1.00  0.00    -0.046 C  
HETATM    3  C   UNL     1      -5.526   7.484  71.517  1.00  0.00    -0.035 C  
HETATM    4  C   UNL     1      -7.784   6.575  72.155  1.00  0.00    -0.097 C  
ENDROOT
BRANCH   4   5
HETATM    5  N   UNL     1      -9.084   6.676  71.429  1.00  0.00    -0.144 N  
BRANCH   5   6
HETATM    6  C   UNL     1      -8.925   7.828  70.393  1.00  0.00    -0.147 C  
BRANCH   6   7
HETATM    7  C   UNL     1     -10.148   8.847  70.276  1.00  0.00    -0.189 C  
BRANCH   7   8
HETATM    8  C   UNL     1      -9.937   9.871  69.053  1.00  0.00    -0.187 C  
BRANCH   8   9
HETATM    9  N   UNL     1     -10.270  11.263  69.409  1.00  0.00    -0.435 N  
HETATM   10  C   UNL     1     -11.429  11.850  68.968  1.00  0.00    -0.297 C  
HETATM   11  H   UNL     1      -9.628  11.797  69.993  1.00  0.00     0.000 HD 
HETATM   12  O   UNL     1     -12.303  11.305  68.316  1.00  0.00    -0.542 OA 
BRANCH  10  13
HETATM   13  O   UNL     1     -11.475  13.144  69.386  1.00  0.00    -0.269 OA 
BRANCH  13  14
HETATM   14  C   UNL     1     -11.372  14.125  68.338  1.00  0.00    -0.287 C  
HETATM   15  C   UNL     1     -11.922  15.482  68.714  1.00  0.00    -0.265 C  
HETATM   16  O   UNL     1      -9.809  15.833  67.720  1.00  0.00    -0.222 OA 
HETATM   17  C   UNL     1     -11.104  16.425  67.866  1.00  0.00    -0.249 C  
HETATM   18  C   UNL     1      -9.908  14.440  68.054  1.00  0.00    -0.221 C  
ENDBRANCH  13  14
ENDBRANCH  10  13
ENDBRANCH   8   9
BRANCH   8  19
HETATM   19  C   UNL     1      -8.594   9.804  68.289  1.00  0.00    -0.119 C  
BRANCH  19  20
HETATM   20  C   UNL     1      -8.645   9.750  66.786  1.00  0.00    -0.133 A  
HETATM   21  C   UNL     1      -9.509  10.569  64.672  1.00  0.00    -0.316 A  
HETATM   22  C   UNL     1      -8.207   8.535  64.735  1.00  0.00    -0.164 A  
HETATM   23  C   UNL     1      -8.057   8.672  66.114  1.00  0.00    -0.108 A  
HETATM   24  C   UNL     1      -9.367  10.703  66.053  1.00  0.00    -0.219 A  
HETATM   25  C   UNL     1      -8.935   9.481  64.016  1.00  0.00    -0.228 A  
ENDBRANCH  19  20
ENDBRANCH   8  19
ENDBRANCH   7   8
BRANCH   7  26
HETATM   26  O   UNL     1     -10.516   9.441  71.575  1.00  0.00    -0.337 OA 
HETATM   27  O   UNL     1     -13.638   9.167  72.540  1.00  0.00    -0.470 OA 
HETATM   28  O   UNL     1     -11.722   7.911  72.822  1.00  0.00    -0.364 OA 
HETATM   29  O   UNL     1     -12.645   8.655  70.678  1.00  0.00     0.066 OA 
HETATM   30  P   UNL     1     -12.163   9.296  72.084  1.00  0.00    -0.143 P  
ENDBRANCH   7  26
ENDBRANCH   6   7
ENDBRANCH   5   6
BRANCH   5  31
HETATM   31  S   UNL     1      -9.995   5.399  70.752  1.00  0.00    -0.218 S  
HETATM   32  O   UNL     1     -11.404   5.644  70.979  1.00  0.00    -0.149 OA 
HETATM   33  O   UNL     1      -9.428   4.151  71.223  1.00  0.00    -0.137 OA 
BRANCH  31  34
HETATM   34  C   UNL     1      -9.796   5.405  69.008  1.00  0.00    -0.168 A  
HETATM   35  N   UNL     1      -9.582   5.277  64.834  1.00  0.00    -0.341 NA 
HETATM   36  C   UNL     1      -8.737   4.728  68.404  1.00  0.00    -0.112 A  
HETATM   37  H1  UNL     1     -10.283   5.753  64.266  1.00  0.00     0.000 HD 
HETATM   38  H2  UNL     1      -9.566   4.293  64.562  1.00  0.00     0.000 HD 
HETATM   39  C   UNL     1     -10.845   5.910  68.237  1.00  0.00    -0.325 A  
HETATM   40  C   UNL     1     -10.762   5.876  66.853  1.00  0.00    -0.395 A  
HETATM   41  C   UNL     1      -8.669   4.692  67.010  1.00  0.00    -0.104 A  
HETATM   42  C   UNL     1      -9.631   5.346  66.230  1.00  0.00    -0.160 A  
ENDBRANCH  31  34
ENDBRANCH   5  31
ENDBRANCH   4   5
TORSDOF 12
ENDMDL
MODEL      178
REMARK 921   NORMALIZED FREE ENERGY PREDICTED BY IDOCK:   -4.85 KCAL/MOL
REMARK 922        TOTAL FREE ENERGY PREDICTED BY IDOCK:  -11.05 KCAL/MOL
REMARK 923 INTER-LIGAND FREE ENERGY PREDICTED BY IDOCK:   -8.85 KCAL/MOL
REMARK 924 INTRA-LIGAND FREE ENERGY PREDICTED BY IDOCK:   -2.20 KCAL/MOL
REMARK 927      BINDING AFFINITY PREDICTED BY RF-SCORE:    0.00 PKD
ROOT
HETATM    1  C   UNL     1      -8.646   4.284  68.405  1.00  0.00    -0.109 C  
HETATM    2  C   UNL     1      -8.248   4.771  67.021  1.00  0.00    -0.106 C  
HETATM    3  C   UNL     1      -8.975   4.060  65.878  1.00  0.00    -0.128 C  
HETATM    4  C   UNL     1      -8.042   6.252  66.686  1.00  0.00    -0.110 C  
ENDROOT
BRANCH   4   5
HETATM    5  N   UNL     1      -8.757   7.437  67.244  1.00  0.00    -0.120 N  
BRANCH   5   6
HETATM    6  C   UNL     1      -8.216   8.682  66.479  1.00  0.00    -0.107 C  
BRANCH   6   7
HETATM    7  C   UNL     1      -7.780   9.929  67.376  1.00  0.00    -0.091 C  
BRANCH   7   8
HETATM    8  C   UNL     1      -8.493  11.282  66.878  1.00  0.00    -0.152 C  
BRANCH   8   9
HETATM    9  N   UNL     1      -7.577  12.437  66.860  1.00  0.00    -0.377 N  
HETATM   10  C   UNL     1      -7.571  13.353  67.881  1.00  0.00    -0.151 C  
HETATM   11  H   UNL     1      -6.938  12.557  66.075  1.00  0.00     0.000 HD 
HETATM   12  O   UNL     1      -8.240  13.295  68.898  1.00  0.00     0.023 OA 
BRANCH  10  13
HETATM   13  O   UNL     1      -6.680  14.344  67.602  1.00  0.00    -0.168 OA 
BRANCH  13  14
HETATM   14  C   UNL     1      -7.212  15.679  67.684  1.00  0.00    -0.173 C  
HETATM   15  C   UNL     1      -6.324  16.730  67.059  1.00  0.00    -0.222 C  
HETATM   16  O   UNL     1      -8.518  17.105  66.270  1.00  0.00    -0.304 OA 
HETATM   17  C   UNL     1      -7.309  17.787  66.620  1.00  0.00    -0.227 C  
HETATM   18  C   UNL     1      -8.481  15.792  66.847  1.00  0.00    -0.246 C  
ENDBRANCH  13  14
ENDBRANCH  10  13
ENDBRANCH   8   9
BRANCH   8  19
HETATM   19  C   UNL     1      -9.320  11.214  65.572  1.00  0.00    -0.247 C  
BRANCH  19  20
HETATM   20  C   UNL     1     -10.426  12.219  65.391  1.00  0.00    -0.302 A  
HETATM   21  C   UNL     1     -12.229  13.562  66.303  1.00  0.00    -0.468 A  
HETATM   22  C   UNL     1     -11.945  13.391  63.911  1.00  0.00    -0.520 A  
HETATM   23  C   UNL     1     -10.837  12.566  64.099  1.00  0.00    -0.420 A  
HETATM   24  C   UNL     1     -11.126  12.729  66.494  1.00  0.00    -0.321 A  
HETATM   25  C   UNL     1     -12.642  13.885  65.012  1.00  0.00    -0.422 A  
ENDBRANCH  19  20
ENDBRANCH   8  19
ENDBRANCH   7   8
BRANCH   7  26
HETATM   26  O   UNL     1      -6.321   9.992  67.585  1.00  0.00    -0.058 OA 
HETATM   27  O   UNL     1      -5.228   9.983  70.676  1.00  0.00    -0.038 OA 
HETATM   28  O   UNL     1      -5.674   8.363  69.094  1.00  0.00    -0.037 OA 
HETATM   29  O   UNL     1      -7.232  10.098  69.847  1.00  0.00    -0.121 OA 
HETATM   30  P   UNL     1      -5.745   9.987  69.216  1.00  0.00    -0.037 P  
ENDBRANCH   7  26
ENDBRANCH   6   7
ENDBRANCH   5   6
BRANCH   5  31
HETATM   31  S   UNL     1     -10.435   7.600  67.520  1.00  0.00    -0.261 S  
HETATM   32  O   UNL     1     -11.131   6.493  66.898  1.00  0.00    -0.399 OA 
HETATM   33  O   UNL     1     -10.816   8.949  67.152  1.00  0.00    -0.209 OA 
BRANCH  31  34
HETATM   34  C   UNL     1     -10.758   7.448  69.239  1.00  0.00    -0.185 A  
HETATM   35  N   UNL     1     -11.235   7.070  73.376  1.00  0.00    -0.535 NA 
HETATM   36  C   UNL     1     -11.464   6.356  69.742  1.00  0.00    -0.468 A  
HETATM   37  H1  UNL     1     -10.859   7.778  74.006  1.00  0.00     0.000 HD 
HETATM   38  H2  UNL     1     -10.845   6.166  73.643  1.00  0.00     0.000 HD 
HETATM   39  C   UNL     1     -10.099   8.324  70.103  1.00  0.00    -0.191 A  
HETATM   40  C   UNL     1     -10.271   8.201  71.474  1.00  0.00    -0.261 A  
HETATM   41  C   UNL     1     -11.624   6.237  71.125  1.00  0.00    -0.339 A  
HETATM   42  C   UNL     1     -11.107   7.210  71.990  1.00  0.00    -0.245 A  
ENDBRANCH  31  34
ENDBRANCH   5  31
ENDBRANCH   4   5
TORSDOF 12
ENDMDL
MODEL      179
REMARK 921   NORMALIZED FREE ENERGY PREDICTED BY IDOCK:   -4.85 KCAL/MOL
REMARK 922        TOTAL FREE ENERGY PREDICTED BY IDOCK:  -11.05 KCAL/MOL
REMARK 923 INTER-LIGAND FREE ENERGY PREDICTED BY IDOCK:   -8.11 KCAL/MOL
REMARK 924 INTRA-LIGAND FREE ENERGY PREDICTED BY IDOCK:   -2.94 KCAL/MOL
REMARK 927      BINDING AFFINITY PREDICTED BY RF-SCORE:    0.00 PKD
ROOT
HETATM    1  C   UNL     1     -12.002  13.923  71.039  1.00  0.00    -0.262 C  
HETATM    2  C   UNL     1     -12.320  14.479  69.660  1.00  0.00    -0.284 C  
HETATM    3  C   UNL     1     -12.142  15.994  69.544  1.00  0.00    -0.109 C  
HETATM    4  C   UNL     1     -11.889  13.787  68.362  1.00  0.00    -0.376 C  
ENDROOT
BRANCH   4   5
HETATM    5  N   UNL     1     -10.656  12.988  68.104  1.00  0.00    -0.238 N  
BRANCH   5   6
HETATM    6  C   UNL     1     -11.130  11.595  67.590  1.00  0.00    -0.255 C  
BRANCH   6   7
HETATM    7  C   UNL     1     -10.482  10.321  68.302  1.00  0.00    -0.199 C  
BRANCH   7   8
HETATM    8  C   UNL     1      -9.497   9.535  67.303  1.00  0.00    -0.136 C  
BRANCH   8   9
HETATM    9  N   UNL     1      -8.911   8.327  67.911  1.00  0.00    -0.137 N  
HETATM   10  C   UNL     1      -7.568   8.248  68.182  1.00  0.00    -0.098 C  
HETATM   11  H   UNL     1      -9.514   7.536  68.135  1.00  0.00     0.000 HD 
HETATM   12  O   UNL     1      -6.752   9.139  68.018  1.00  0.00    -0.066 OA 
BRANCH  10  13
HETATM   13  O   UNL     1      -7.274   7.020  68.689  1.00  0.00    -0.088 OA 
BRANCH  13  14
HETATM   14  C   UNL     1      -8.380   6.336  69.304  1.00  0.00    -0.117 C  
HETATM   15  C   UNL     1      -8.444   4.861  68.980  1.00  0.00    -0.086 C  
HETATM   16  O   UNL     1      -8.728   5.078  71.314  1.00  0.00    -0.125 OA 
HETATM   17  C   UNL     1      -9.122   4.276  70.196  1.00  0.00    -0.109 C  
HETATM   18  C   UNL     1      -8.214   6.324  70.820  1.00  0.00    -0.125 C  
ENDBRANCH  13  14
ENDBRANCH  10  13
ENDBRANCH   8   9
BRANCH   8  19
HETATM   19  C   UNL     1     -10.014   9.238  65.876  1.00  0.00    -0.289 C  
BRANCH  19  20
HETATM   20  C   UNL     1      -9.269   9.847  64.719  1.00  0.00    -0.309 A  
HETATM   21  C   UNL     1      -9.253  11.111  62.648  1.00  0.00    -0.357 A  
HETATM   22  C   UNL     1      -7.257   9.962  63.374  1.00  0.00    -0.131 A  
HETATM   23  C   UNL     1      -7.926   9.514  64.512  1.00  0.00    -0.133 A  
HETATM   24  C   UNL     1      -9.927  10.656  63.782  1.00  0.00    -0.379 A  
HETATM   25  C   UNL     1      -7.921  10.757  62.442  1.00  0.00    -0.215 A  
ENDBRANCH  19  20
ENDBRANCH   8  19
ENDBRANCH   7   8
BRANCH   7  26
HETATM   26  O   UNL     1     -11.480   9.505  69.018  1.00  0.00     0.071 OA 
HETATM   27  O   UNL     1     -10.815   8.666  72.117  1.00  0.00    -0.332 OA 
HETATM   28  O   UNL     1     -11.902  10.429  71.097  1.00  0.00    -0.356 OA 
HETATM   29  O   UNL     1      -9.628   9.665  70.598  1.00  0.00    -0.252 OA 
HETATM   30  P   UNL     1     -11.129   9.063  70.654  1.00  0.00    -0.285 P  
ENDBRANCH   7  26
ENDBRANCH   6   7
ENDBRANCH   5   6
BRANCH   5  31
HETATM   31  S   UNL     1      -9.259  13.483  67.254  1.00  0.00    -0.242 S  
HETATM   32  O   UNL     1      -9.424  13.183  65.847  1.00  0.00    -0.160 OA 
HETATM   33  O   UNL     1      -8.105  12.941  67.944  1.00  0.00    -0.135 OA 
BRANCH  31  34
HETATM   34  C   UNL     1      -9.113  15.230  67.345  1.00  0.00    -0.192 A  
HETATM   35  N   UNL     1      -8.924  19.381  67.811  1.00  0.00    -0.305 NA 
HETATM   36  C   UNL     1      -9.662  16.048  66.358  1.00  0.00    -0.307 A  
HETATM   37  H1  UNL     1      -8.463  19.789  68.624  1.00  0.00     0.000 HD 
HETATM   38  H2  UNL     1      -9.881  19.732  67.777  1.00  0.00     0.000 HD 
HETATM   39  C   UNL     1      -8.635  15.780  68.536  1.00  0.00    -0.183 A  
HETATM   40  C   UNL     1      -8.563  17.157  68.679  1.00  0.00    -0.260 A  
HETATM   41  C   UNL     1      -9.592  17.433  66.518  1.00  0.00    -0.292 A  
HETATM   42  C   UNL     1      -8.959  17.994  67.635  1.00  0.00    -0.251 A  
ENDBRANCH  31  34
ENDBRANCH   5  31
ENDBRANCH   4   5
TORSDOF 12
ENDMDL
MODEL      180
REMARK 921   NORMALIZED FREE ENERGY PREDICTED BY IDOCK:   -4.85 KCAL/MOL
REMARK 922        TOTAL FREE ENERGY PREDICTED BY IDOCK:  -11.05 KCAL/MOL
REMARK 923 INTER-LIGAND FREE ENERGY PREDICTED BY IDOCK:  -10.15 KCAL/MOL
REMARK 924 INTRA-LIGAND FREE ENERGY PREDICTED BY IDOCK:   -0.90 KCAL/MOL
REMARK 927      BINDING AFFINITY PREDICTED BY RF-SCORE:    0.00 PKD
ROOT
HETATM    1  C   UNL     1     -12.956  14.512  64.959  1.00  0.00     0.127 C  
HETATM    2  C   UNL     1     -12.297  13.211  65.386  1.00  0.00    -0.532 C  
HETATM    3  C   UNL     1     -11.313  12.644  64.360  1.00  0.00    -0.393 C  
HETATM    4  C   UNL     1     -11.789  12.960  66.810  1.00  0.00    -0.385 C  
ENDROOT
BRANCH   4   5
HETATM    5  N   UNL     1     -11.202  13.941  67.770  1.00  0.00    -0.282 N  
BRANCH   5   6
HETATM    6  C   UNL     1     -11.402  13.342  69.194  1.00  0.00    -0.282 C  
BRANCH   6   7
HETATM    7  C   UNL     1     -11.352  11.750  69.305  1.00  0.00    -0.286 C  
BRANCH   7   8
HETATM    8  C   UNL     1     -12.462  11.203  70.332  1.00  0.00    -0.299 C  
BRANCH   8   9
HETATM    9  N   UNL     1     -12.552   9.731  70.346  1.00  0.00    -0.504 N  
HETATM   10  C   UNL     1     -12.659   9.038  71.525  1.00  0.00    -0.338 C  
HETATM   11  H   UNL     1     -12.535   9.220  69.464  1.00  0.00     0.000 HD 
HETATM   12  O   UNL     1     -12.749   9.529  72.637  1.00  0.00    -0.223 OA 
BRANCH  10  13
HETATM   13  O   UNL     1     -12.673   7.701  71.271  1.00  0.00    -0.321 OA 
BRANCH  13  14
HETATM   14  C   UNL     1     -11.447   7.013  71.575  1.00  0.00    -0.271 C  
HETATM   15  C   UNL     1     -11.515   6.163  72.824  1.00  0.00    -0.220 C  
HETATM   16  O   UNL     1     -10.530   4.844  71.132  1.00  0.00    -0.183 OA 
HETATM   17  C   UNL     1     -10.513   5.070  72.545  1.00  0.00    -0.215 C  
HETATM   18  C   UNL     1     -11.144   5.976  70.499  1.00  0.00    -0.314 C  
ENDBRANCH  13  14
ENDBRANCH  10  13
ENDBRANCH   8   9
BRANCH   8  19
HETATM   19  C   UNL     1     -12.443  11.767  71.772  1.00  0.00    -0.011 C  
BRANCH  19  20
HETATM   20  C   UNL     1     -13.034  13.133  71.998  1.00  0.00    -0.401 A  
HETATM   21  C   UNL     1     -14.387  14.999  71.240  1.00  0.00    -0.503 A  
HETATM   22  C   UNL     1     -13.025  15.224  73.222  1.00  0.00    -0.645 A  
HETATM   23  C   UNL     1     -12.588  13.909  73.074  1.00  0.00     0.035 A  
HETATM   24  C   UNL     1     -13.943  13.685  71.084  1.00  0.00     0.334 A  
HETATM   25  C   UNL     1     -13.921  15.769  72.304  1.00  0.00    -0.470 A  
ENDBRANCH  19  20
ENDBRANCH   8  19
ENDBRANCH   7   8
BRANCH   7  26
HETATM   26  O   UNL     1      -9.980  11.239  69.486  1.00  0.00     0.052 OA 
HETATM   27  O   UNL     1      -8.969   8.856  67.473  1.00  0.00    -0.132 OA 
HETATM   28  O   UNL     1      -8.897  11.163  67.443  1.00  0.00    -0.138 OA 
HETATM   29  O   UNL     1     -10.907   9.796  67.749  1.00  0.00    -0.275 OA 
HETATM   30  P   UNL     1      -9.447   9.982  68.423  1.00  0.00    -0.148 P  
ENDBRANCH   7  26
ENDBRANCH   6   7
ENDBRANCH   5   6
BRANCH   5  31
HETATM   31  S   UNL     1      -9.679  14.709  67.665  1.00  0.00    -0.215 S  
HETATM   32  O   UNL     1      -9.053  14.359  66.407  1.00  0.00    -0.243 OA 
HETATM   33  O   UNL     1      -8.959  14.436  68.893  1.00  0.00    -0.159 OA 
BRANCH  31  34
HETATM   34  C   UNL     1      -9.909  16.448  67.604  1.00  0.00    -0.243 A  
HETATM   35  N   UNL     1     -10.241  20.602  67.254  1.00  0.00    -0.220 NA 
HETATM   36  C   UNL     1      -9.668  17.243  68.723  1.00  0.00    -0.280 A  
HETATM   37  H1  UNL     1     -10.516  21.025  66.368  1.00  0.00     0.000 HD 
HETATM   38  H2  UNL     1      -9.345  21.001  67.534  1.00  0.00     0.000 HD 
HETATM   39  C   UNL     1     -10.118  17.032  66.353  1.00  0.00    -0.325 A  
HETATM   40  C   UNL     1     -10.240  18.409  66.245  1.00  0.00    -0.427 A  
HETATM   41  C   UNL     1      -9.785  18.630  68.602  1.00  0.00    -0.418 A  
HETATM   42  C   UNL     1     -10.162  19.212  67.384  1.00  0.00    -0.400 A  
ENDBRANCH  31  34
ENDBRANCH   5  31
ENDBRANCH   4   5
TORSDOF 12
ENDMDL
MODEL      181
REMARK 921   NORMALIZED FREE ENERGY PREDICTED BY IDOCK:   -4.84 KCAL/MOL
REMARK 922        TOTAL FREE ENERGY PREDICTED BY IDOCK:  -11.04 KCAL/MOL
REMARK 923 INTER-LIGAND FREE ENERGY PREDICTED BY IDOCK:   -8.71 KCAL/MOL
REMARK 924 INTRA-LIGAND FREE ENERGY PREDICTED BY IDOCK:   -2.33 KCAL/MOL
REMARK 927      BINDING AFFINITY PREDICTED BY RF-SCORE:    0.00 PKD
ROOT
HETATM    1  C   UNL     1     -13.564  15.100  71.085  1.00  0.00    -0.525 C  
HETATM    2  C   UNL     1     -12.422  14.110  71.252  1.00  0.00    -0.446 C  
HETATM    3  C   UNL     1     -12.862  12.644  71.241  1.00  0.00    -0.344 C  
HETATM    4  C   UNL     1     -11.070  14.269  70.550  1.00  0.00     0.233 C  
ENDROOT
BRANCH   4   5
HETATM    5  N   UNL     1     -10.788  14.851  69.205  1.00  0.00    -0.258 N  
BRANCH   5   6
HETATM    6  C   UNL     1     -11.646  14.045  68.185  1.00  0.00    -0.334 C  
BRANCH   6   7
HETATM    7  C   UNL     1     -10.880  12.924  67.346  1.00  0.00    -0.251 C  
BRANCH   7   8
HETATM    8  C   UNL     1      -9.755  12.197  68.237  1.00  0.00    -0.216 C  
BRANCH   8   9
HETATM    9  N   UNL     1     -10.205  10.903  68.782  1.00  0.00    -0.188 N  
HETATM   10  C   UNL     1     -10.641   9.898  67.956  1.00  0.00    -0.242 C  
HETATM   11  H   UNL     1     -10.192  10.752  69.790  1.00  0.00     0.000 HD 
HETATM   12  O   UNL     1     -10.651   9.928  66.737  1.00  0.00    -0.208 OA 
BRANCH  10  13
HETATM   13  O   UNL     1     -11.047   8.835  68.702  1.00  0.00     0.066 OA 
BRANCH  13  14
HETATM   14  C   UNL     1     -10.667   8.886  70.089  1.00  0.00    -0.225 C  
HETATM   15  C   UNL     1     -11.839   8.907  71.043  1.00  0.00    -0.324 C  
HETATM   16  O   UNL     1     -10.315   7.290  71.841  1.00  0.00    -0.189 OA 
HETATM   17  C   UNL     1     -11.279   8.252  72.282  1.00  0.00    -0.374 C  
HETATM   18  C   UNL     1      -9.953   7.599  70.487  1.00  0.00    -0.184 C  
ENDBRANCH  13  14
ENDBRANCH  10  13
ENDBRANCH   8   9
BRANCH   8  19
HETATM   19  C   UNL     1      -8.334  12.078  67.637  1.00  0.00    -0.160 C  
BRANCH  19  20
HETATM   20  C   UNL     1      -7.168  12.416  68.526  1.00  0.00    -0.103 A  
HETATM   21  C   UNL     1      -5.436  11.740  70.085  1.00  0.00    -0.116 A  
HETATM   22  C   UNL     1      -5.889  14.086  69.730  1.00  0.00    -0.115 A  
HETATM   23  C   UNL     1      -6.880  13.757  68.806  1.00  0.00    -0.106 A  
HETATM   24  C   UNL     1      -6.433  11.409  69.167  1.00  0.00    -0.085 A  
HETATM   25  C   UNL     1      -5.171  13.079  70.371  1.00  0.00    -0.114 A  
ENDBRANCH  19  20
ENDBRANCH   8  19
ENDBRANCH   7   8
BRANCH   7  26
HETATM   26  O   UNL     1     -10.456  13.402  66.016  1.00  0.00    -0.283 OA 
HETATM   27  O   UNL     1     -12.491  12.883  63.498  1.00  0.00    -0.683 OA 
HETATM   28  O   UNL     1     -12.179  14.586  65.025  1.00  0.00    -0.399 OA 
HETATM   29  O   UNL     1     -12.546  12.224  65.566  1.00  0.00    -0.548 OA 
HETATM   30  P   UNL     1     -11.530  13.128  64.687  1.00  0.00    -0.377 P  
ENDBRANCH   7  26
ENDBRANCH   6   7
ENDBRANCH   5   6
BRANCH   5  31
HETATM   31  S   UNL     1     -10.763  16.504  68.776  1.00  0.00    -0.353 S  
HETATM   32  O   UNL     1     -10.856  17.311  69.975  1.00  0.00     0.088 OA 
HETATM   33  O   UNL     1     -11.747  16.706  67.731  1.00  0.00     0.188 OA 
BRANCH  31  34
HETATM   34  C   UNL     1      -9.205  16.898  68.069  1.00  0.00    -0.235 A  
HETATM   35  N   UNL     1      -5.484  18.072  66.564  1.00  0.00    -0.144 NA 
HETATM   36  C   UNL     1      -9.089  17.204  66.714  1.00  0.00    -0.266 A  
HETATM   37  H1  UNL     1      -4.669  18.112  67.175  1.00  0.00     0.000 HD 
HETATM   38  H2  UNL     1      -5.608  18.990  66.136  1.00  0.00     0.000 HD 
HETATM   39  C   UNL     1      -8.134  17.115  68.938  1.00  0.00    -0.203 A  
HETATM   40  C   UNL     1      -6.900  17.492  68.432  1.00  0.00    -0.197 A  
HETATM   41  C   UNL     1      -7.843  17.592  66.216  1.00  0.00    -0.322 A  
HETATM   42  C   UNL     1      -6.723  17.647  67.056  1.00  0.00    -0.171 A  
ENDBRANCH  31  34
ENDBRANCH   5  31
ENDBRANCH   4   5
TORSDOF 12
ENDMDL
MODEL      182
REMARK 921   NORMALIZED FREE ENERGY PREDICTED BY IDOCK:   -4.84 KCAL/MOL
REMARK 922        TOTAL FREE ENERGY PREDICTED BY IDOCK:  -11.04 KCAL/MOL
REMARK 923 INTER-LIGAND FREE ENERGY PREDICTED BY IDOCK:  -10.12 KCAL/MOL
REMARK 924 INTRA-LIGAND FREE ENERGY PREDICTED BY IDOCK:   -0.92 KCAL/MOL
REMARK 927      BINDING AFFINITY PREDICTED BY RF-SCORE:    0.00 PKD
ROOT
HETATM    1  C   UNL     1     -12.043  13.735  70.299  1.00  0.00    -0.425 C  
HETATM    2  C   UNL     1     -12.063  15.245  70.126  1.00  0.00    -0.394 C  
HETATM    3  C   UNL     1     -11.595  16.020  71.360  1.00  0.00    -0.520 C  
HETATM    4  C   UNL     1     -11.594  15.945  68.845  1.00  0.00    -0.388 C  
ENDROOT
BRANCH   4   5
HETATM    5  N   UNL     1     -10.505  15.534  67.912  1.00  0.00    -0.260 N  
BRANCH   5   6
HETATM    6  C   UNL     1     -10.790  14.053  67.522  1.00  0.00    -0.270 C  
BRANCH   6   7
HETATM    7  C   UNL     1      -9.652  12.994  67.887  1.00  0.00    -0.215 C  
BRANCH   7   8
HETATM    8  C   UNL     1     -10.238  11.496  67.914  1.00  0.00    -0.184 C  
BRANCH   8   9
HETATM    9  N   UNL     1     -10.704  11.040  66.592  1.00  0.00    -0.260 N  
HETATM   10  C   UNL     1      -9.816  10.698  65.605  1.00  0.00    -0.251 C  
HETATM   11  H   UNL     1     -11.706  10.978  66.409  1.00  0.00     0.000 HD 
HETATM   12  O   UNL     1      -8.601  10.673  65.714  1.00  0.00    -0.170 OA 
BRANCH  10  13
HETATM   13  O   UNL     1     -10.493  10.365  64.473  1.00  0.00    -0.249 OA 
BRANCH  13  14
HETATM   14  C   UNL     1     -10.855  11.475  63.633  1.00  0.00    -0.415 C  
HETATM   15  C   UNL     1     -12.330  11.802  63.652  1.00  0.00    -0.488 C  
HETATM   16  O   UNL     1     -11.159  13.834  63.926  1.00  0.00    -0.143 OA 
HETATM   17  C   UNL     1     -12.353  13.283  63.361  1.00  0.00    -0.324 C  
HETATM   18  C   UNL     1     -10.234  12.762  64.165  1.00  0.00    -0.318 C  
ENDBRANCH  13  14
ENDBRANCH  10  13
ENDBRANCH   8   9
BRANCH   8  19
HETATM   19  C   UNL     1      -9.382  10.407  68.603  1.00  0.00    -0.167 C  
BRANCH  19  20
HETATM   20  C   UNL     1     -10.088   9.418  69.490  1.00  0.00    -0.214 A  
HETATM   21  C   UNL     1     -10.921   7.178  69.911  1.00  0.00    -0.278 A  
HETATM   22  C   UNL     1     -11.548   8.992  71.377  1.00  0.00    -0.396 A  
HETATM   23  C   UNL     1     -10.779   9.874  70.619  1.00  0.00    -0.372 A  
HETATM   24  C   UNL     1     -10.159   8.061  69.145  1.00  0.00    -0.202 A  
HETATM   25  C   UNL     1     -11.621   7.647  71.021  1.00  0.00    -0.301 A  
ENDBRANCH  19  20
ENDBRANCH   8  19
ENDBRANCH   7   8
BRANCH   7  26
HETATM   26  O   UNL     1      -8.848  13.407  69.053  1.00  0.00     0.179 OA 
HETATM   27  O   UNL     1      -5.598  13.591  68.667  1.00  0.00    -0.078 OA 
HETATM   28  O   UNL     1      -7.359  15.064  68.430  1.00  0.00    -0.104 OA 
HETATM   29  O   UNL     1      -7.174  12.867  67.361  1.00  0.00    -0.151 OA 
HETATM   30  P   UNL     1      -7.133  13.504  68.849  1.00  0.00    -0.015 P  
ENDBRANCH   7  26
ENDBRANCH   6   7
ENDBRANCH   5   6
BRANCH   5  31
HETATM   31  S   UNL     1      -9.922  16.396  66.557  1.00  0.00    -0.297 S  
HETATM   32  O   UNL     1     -11.036  17.011  65.866  1.00  0.00    -0.079 OA 
HETATM   33  O   UNL     1      -9.051  15.510  65.810  1.00  0.00    -0.286 OA 
BRANCH  31  34
HETATM   34  C   UNL     1      -8.919  17.729  67.104  1.00  0.00    -0.246 A  
HETATM   35  N   UNL     1      -6.305  20.711  68.430  1.00  0.00    -0.318 NA 
HETATM   36  C   UNL     1      -9.207  18.404  68.289  1.00  0.00    -0.333 A  
HETATM   37  H1  UNL     1      -5.480  20.956  67.882  1.00  0.00     0.000 HD 
HETATM   38  H2  UNL     1      -5.999  20.449  69.367  1.00  0.00     0.000 HD 
HETATM   39  C   UNL     1      -7.707  17.943  66.444  1.00  0.00    -0.311 A  
HETATM   40  C   UNL     1      -6.850  18.941  66.881  1.00  0.00    -0.205 A  
HETATM   41  C   UNL     1      -8.333  19.402  68.725  1.00  0.00    -0.379 A  
HETATM   42  C   UNL     1      -7.199  19.738  67.972  1.00  0.00    -0.286 A  
ENDBRANCH  31  34
ENDBRANCH   5  31
ENDBRANCH   4   5
TORSDOF 12
ENDMDL
MODEL      183
REMARK 921   NORMALIZED FREE ENERGY PREDICTED BY IDOCK:   -4.81 KCAL/MOL
REMARK 922        TOTAL FREE ENERGY PREDICTED BY IDOCK:  -11.00 KCAL/MOL
REMARK 923 INTER-LIGAND FREE ENERGY PREDICTED BY IDOCK:   -8.79 KCAL/MOL
REMARK 924 INTRA-LIGAND FREE ENERGY PREDICTED BY IDOCK:   -2.21 KCAL/MOL
REMARK 927      BINDING AFFINITY PREDICTED BY RF-SCORE:    0.00 PKD
ROOT
HETATM    1  C   UNL     1     -12.259  12.353  65.520  1.00  0.00    -0.356 C  
HETATM    2  C   UNL     1     -10.960  13.076  65.202  1.00  0.00    -0.317 C  
HETATM    3  C   UNL     1     -11.145  14.363  64.396  1.00  0.00    -0.203 C  
HETATM    4  C   UNL     1      -9.825  13.239  66.219  1.00  0.00    -0.285 C  
ENDROOT
BRANCH   4   5
HETATM    5  N   UNL     1      -9.924  13.405  67.699  1.00  0.00    -0.225 N  
BRANCH   5   6
HETATM    6  C   UNL     1      -8.950  12.365  68.327  1.00  0.00    -0.178 C  
BRANCH   6   7
HETATM    7  C   UNL     1      -9.072  10.866  67.790  1.00  0.00    -0.149 C  
BRANCH   7   8
HETATM    8  C   UNL     1     -10.082  10.004  68.698  1.00  0.00    -0.172 C  
BRANCH   8   9
HETATM    9  N   UNL     1      -9.533   8.688  69.071  1.00  0.00    -0.152 N  
HETATM   10  C   UNL     1      -8.541   8.573  70.012  1.00  0.00    -0.134 C  
HETATM   11  H   UNL     1      -9.897   7.847  68.622  1.00  0.00     0.000 HD 
HETATM   12  O   UNL     1      -8.063   9.488  70.661  1.00  0.00    -0.179 OA 
BRANCH  10  13
HETATM   13  O   UNL     1      -8.175   7.268  70.136  1.00  0.00    -0.129 OA 
BRANCH  13  14
HETATM   14  C   UNL     1      -9.241   6.319  69.952  1.00  0.00    -0.151 C  
HETATM   15  C   UNL     1      -8.787   4.991  69.391  1.00  0.00    -0.116 C  
HETATM   16  O   UNL     1     -10.198   4.530  71.227  1.00  0.00    -0.173 OA 
HETATM   17  C   UNL     1      -9.802   4.023  69.949  1.00  0.00    -0.115 C  
HETATM   18  C   UNL     1      -9.825   5.914  71.301  1.00  0.00    -0.176 C  
ENDBRANCH  13  14
ENDBRANCH  10  13
ENDBRANCH   8   9
BRANCH   8  19
HETATM   19  C   UNL     1     -10.717  10.704  69.922  1.00  0.00    -0.260 C  
BRANCH  19  20
HETATM   20  C   UNL     1     -11.796   9.967  70.669  1.00  0.00    -0.386 A  
HETATM   21  C   UNL     1     -14.142   9.567  71.140  1.00  0.00     0.083 A  
HETATM   22  C   UNL     1     -12.445   8.579  72.546  1.00  0.00    -0.358 A  
HETATM   23  C   UNL     1     -11.452   9.162  71.761  1.00  0.00    -0.452 A  
HETATM   24  C   UNL     1     -13.149  10.159  70.358  1.00  0.00    -0.060 A  
HETATM   25  C   UNL     1     -13.789   8.784  72.237  1.00  0.00    -0.505 A  
ENDBRANCH  19  20
ENDBRANCH   8  19
ENDBRANCH   7   8
BRANCH   7  26
HETATM   26  O   UNL     1      -7.759  10.257  67.508  1.00  0.00    -0.094 OA 
HETATM   27  O   UNL     1      -7.275   9.012  64.513  1.00  0.00    -0.094 OA 
HETATM   28  O   UNL     1      -6.934  11.069  65.504  1.00  0.00     0.038 OA 
HETATM   29  O   UNL     1      -9.043   9.822  65.479  1.00  0.00    -0.168 OA 
HETATM   30  P   UNL     1      -7.504   9.601  65.927  1.00  0.00    -0.106 P  
ENDBRANCH   7  26
ENDBRANCH   6   7
ENDBRANCH   5   6
BRANCH   5  31
HETATM   31  S   UNL     1      -9.875  14.866  68.584  1.00  0.00    -0.230 S  
HETATM   32  O   UNL     1     -10.277  15.959  67.724  1.00  0.00    -0.250 OA 
HETATM   33  O   UNL     1      -8.586  14.942  69.241  1.00  0.00    -0.175 OA 
BRANCH  31  34
HETATM   34  C   UNL     1     -11.077  14.811  69.861  1.00  0.00    -0.233 A  
HETATM   35  N   UNL     1     -14.151  14.678  72.694  1.00  0.00    -0.495 NA 
HETATM   36  C   UNL     1     -11.207  15.860  70.771  1.00  0.00    -0.398 A  
HETATM   37  H1  UNL     1     -14.784  13.879  72.732  1.00  0.00     0.000 HD 
HETATM   38  H2  UNL     1     -14.711  15.522  72.571  1.00  0.00     0.000 HD 
HETATM   39  C   UNL     1     -12.042  13.803  69.803  1.00  0.00    -0.400 A  
HETATM   40  C   UNL     1     -13.051  13.757  70.752  1.00  0.00    -0.165 A  
HETATM   41  C   UNL     1     -12.232  15.808  71.717  1.00  0.00    -0.525 A  
HETATM   42  C   UNL     1     -13.101  14.710  71.770  1.00  0.00    -0.341 A  
ENDBRANCH  31  34
ENDBRANCH   5  31
ENDBRANCH   4   5
TORSDOF 12
ENDMDL
MODEL      184
REMARK 921   NORMALIZED FREE ENERGY PREDICTED BY IDOCK:   -4.79 KCAL/MOL
REMARK 922        TOTAL FREE ENERGY PREDICTED BY IDOCK:  -10.95 KCAL/MOL
REMARK 923 INTER-LIGAND FREE ENERGY PREDICTED BY IDOCK:   -8.14 KCAL/MOL
REMARK 924 INTRA-LIGAND FREE ENERGY PREDICTED BY IDOCK:   -2.81 KCAL/MOL
REMARK 927      BINDING AFFINITY PREDICTED BY RF-SCORE:    0.00 PKD
ROOT
HETATM    1  C   UNL     1     -11.769   7.027  70.351  1.00  0.00    -0.326 C  
HETATM    2  C   UNL     1     -11.603   8.283  71.192  1.00  0.00    -0.310 C  
HETATM    3  C   UNL     1     -11.792   8.057  72.693  1.00  0.00    -0.380 C  
HETATM    4  C   UNL     1     -10.498   9.315  70.941  1.00  0.00    -0.302 C  
ENDROOT
BRANCH   4   5
HETATM    5  N   UNL     1      -9.111   9.083  70.441  1.00  0.00    -0.190 N  
BRANCH   5   6
HETATM    6  C   UNL     1      -8.670  10.399  69.732  1.00  0.00     0.055 C  
BRANCH   6   7
HETATM    7  C   UNL     1      -8.581  10.348  68.138  1.00  0.00    -0.125 C  
BRANCH   7   8
HETATM    8  C   UNL     1      -9.880   9.641  67.505  1.00  0.00    -0.169 C  
BRANCH   8   9
HETATM    9  N   UNL     1     -11.018  10.566  67.354  1.00  0.00    -0.301 N  
HETATM   10  C   UNL     1     -11.051  11.491  66.342  1.00  0.00    -0.269 C  
HETATM   11  H   UNL     1     -11.794  10.517  68.014  1.00  0.00     0.000 HD 
HETATM   12  O   UNL     1     -10.220  11.613  65.457  1.00  0.00    -0.239 OA 
BRANCH  10  13
HETATM   13  O   UNL     1     -12.174  12.252  66.452  1.00  0.00    -0.613 OA 
BRANCH  13  14
HETATM   14  C   UNL     1     -11.965  13.564  67.005  1.00  0.00    -0.394 C  
HETATM   15  C   UNL     1     -10.759  13.661  67.912  1.00  0.00    -0.257 C  
HETATM   16  O   UNL     1     -10.668  15.494  66.426  1.00  0.00    -0.305 OA 
HETATM   17  C   UNL     1     -10.339  15.103  67.763  1.00  0.00    -0.243 C  
HETATM   18  C   UNL     1     -11.614  14.552  65.899  1.00  0.00    -0.349 C  
ENDBRANCH  13  14
ENDBRANCH  10  13
ENDBRANCH   8   9
BRANCH   8  19
HETATM   19  C   UNL     1      -9.681   8.798  66.224  1.00  0.00    -0.342 C  
BRANCH  19  20
HETATM   20  C   UNL     1      -9.568   7.305  66.378  1.00  0.00    -0.169 A  
HETATM   21  C   UNL     1      -8.340   5.237  66.061  1.00  0.00    -0.118 A  
HETATM   22  C   UNL     1     -10.643   5.172  66.787  1.00  0.00    -0.266 A  
HETATM   23  C   UNL     1     -10.691   6.565  66.767  1.00  0.00    -0.344 A  
HETATM   24  C   UNL     1      -8.389   6.631  66.032  1.00  0.00    -0.134 A  
HETATM   25  C   UNL     1      -9.470   4.509  66.431  1.00  0.00    -0.177 A  
ENDBRANCH  19  20
ENDBRANCH   8  19
ENDBRANCH   7   8
BRANCH   7  26
HETATM   26  O   UNL     1      -7.272   9.866  67.660  1.00  0.00    -0.087 OA 
HETATM   27  O   UNL     1      -5.222  12.073  66.365  1.00  0.00    -0.334 OA 
HETATM   28  O   UNL     1      -5.589  11.225  68.480  1.00  0.00    -0.043 OA 
HETATM   29  O   UNL     1      -7.287  12.221  67.021  1.00  0.00    -0.132 OA 
HETATM   30  P   UNL     1      -6.190  11.031  66.977  1.00  0.00    -0.109 P  
ENDBRANCH   7  26
ENDBRANCH   6   7
ENDBRANCH   5   6
BRANCH   5  31
HETATM   31  S   UNL     1      -7.797   8.412  71.302  1.00  0.00    -0.123 S  
HETATM   32  O   UNL     1      -7.949   8.706  72.712  1.00  0.00    -0.370 OA 
HETATM   33  O   UNL     1      -6.576   8.824  70.639  1.00  0.00    -0.038 OA 
BRANCH  31  34
HETATM   34  C   UNL     1      -7.857   6.662  71.181  1.00  0.00    -0.102 A  
HETATM   35  N   UNL     1      -8.295   2.515  70.859  1.00  0.00    -0.052 NA 
HETATM   36  C   UNL     1      -7.476   5.855  72.253  1.00  0.00    -0.099 A  
HETATM   37  H1  UNL     1      -8.655   2.099  70.001  1.00  0.00     0.000 HD 
HETATM   38  H2  UNL     1      -8.888   2.214  71.633  1.00  0.00     0.000 HD 
HETATM   39  C   UNL     1      -8.506   6.109  70.075  1.00  0.00    -0.129 A  
HETATM   40  C   UNL     1      -8.637   4.733  69.968  1.00  0.00    -0.102 A  
HETATM   41  C   UNL     1      -7.621   4.471  72.138  1.00  0.00    -0.089 A  
HETATM   42  C   UNL     1      -8.115   3.899  70.958  1.00  0.00    -0.067 A  
ENDBRANCH  31  34
ENDBRANCH   5  31
ENDBRANCH   4   5
TORSDOF 12
ENDMDL
MODEL      185
REMARK 921   NORMALIZED FREE ENERGY PREDICTED BY IDOCK:   -4.74 KCAL/MOL
REMARK 922        TOTAL FREE ENERGY PREDICTED BY IDOCK:  -10.86 KCAL/MOL
REMARK 923 INTER-LIGAND FREE ENERGY PREDICTED BY IDOCK:   -8.10 KCAL/MOL
REMARK 924 INTRA-LIGAND FREE ENERGY PREDICTED BY IDOCK:   -2.77 KCAL/MOL
REMARK 927      BINDING AFFINITY PREDICTED BY RF-SCORE:    0.00 PKD
ROOT
HETATM    1  C   UNL     1      -7.000   6.006  68.385  1.00  0.00    -0.076 C  
HETATM    2  C   UNL     1      -8.242   5.829  69.243  1.00  0.00    -0.105 C  
HETATM    3  C   UNL     1      -8.432   4.408  69.779  1.00  0.00    -0.086 C  
HETATM    4  C   UNL     1      -8.690   6.859  70.286  1.00  0.00    -0.144 C  
ENDROOT
BRANCH   4   5
HETATM    5  N   UNL     1      -7.841   7.743  71.137  1.00  0.00    -0.087 N  
BRANCH   5   6
HETATM    6  C   UNL     1      -8.353   9.198  70.913  1.00  0.00    -0.185 C  
BRANCH   6   7
HETATM    7  C   UNL     1      -9.805   9.345  70.266  1.00  0.00    -0.243 C  
BRANCH   7   8
HETATM    8  C   UNL     1      -9.741  10.134  68.866  1.00  0.00    -0.187 C  
BRANCH   8   9
HETATM    9  N   UNL     1     -10.104  11.557  68.995  1.00  0.00    -0.395 N  
HETATM   10  C   UNL     1     -11.364  12.000  68.685  1.00  0.00    -0.277 C  
HETATM   11  H   UNL     1      -9.404  12.224  69.322  1.00  0.00     0.000 HD 
HETATM   12  O   UNL     1     -12.303  11.302  68.343  1.00  0.00    -0.545 OA 
BRANCH  10  13
HETATM   13  O   UNL     1     -11.427  13.351  68.838  1.00  0.00    -0.262 OA 
BRANCH  13  14
HETATM   14  C   UNL     1     -10.560  14.100  67.966  1.00  0.00    -0.239 C  
HETATM   15  C   UNL     1     -10.898  13.959  66.500  1.00  0.00    -0.295 C  
HETATM   16  O   UNL     1     -10.603  16.262  66.933  1.00  0.00    -0.310 OA 
HETATM   17  C   UNL     1     -10.426  15.270  65.917  1.00  0.00    -0.331 C  
HETATM   18  C   UNL     1     -10.748  15.596  68.196  1.00  0.00    -0.287 C  
ENDBRANCH  13  14
ENDBRANCH  10  13
ENDBRANCH   8   9
BRANCH   8  19
HETATM   19  C   UNL     1      -8.465   9.966  68.009  1.00  0.00    -0.117 C  
BRANCH  19  20
HETATM   20  C   UNL     1      -8.618   9.988  66.512  1.00  0.00    -0.131 A  
HETATM   21  C   UNL     1      -7.645  10.045  64.290  1.00  0.00    -0.141 A  
HETATM   22  C   UNL     1     -10.021  10.369  64.573  1.00  0.00    -0.401 A  
HETATM   23  C   UNL     1      -9.881  10.213  65.951  1.00  0.00    -0.308 A  
HETATM   24  C   UNL     1      -7.501   9.897  65.670  1.00  0.00    -0.116 A  
HETATM   25  C   UNL     1      -8.904  10.288  63.744  1.00  0.00    -0.234 A  
ENDBRANCH  19  20
ENDBRANCH   8  19
ENDBRANCH   7   8
BRANCH   7  26
HETATM   26  O   UNL     1     -10.813   9.809  71.238  1.00  0.00    -0.334 OA 
HETATM   27  O   UNL     1     -13.440   7.909  71.726  1.00  0.00    -0.339 OA 
HETATM   28  O   UNL     1     -11.351   8.091  72.690  1.00  0.00    -0.372 OA 
HETATM   29  O   UNL     1     -11.805   7.785  70.302  1.00  0.00    -0.060 OA 
HETATM   30  P   UNL     1     -12.199   8.806  71.495  1.00  0.00    -0.353 P  
ENDBRANCH   7  26
ENDBRANCH   6   7
ENDBRANCH   5   6
BRANCH   5  31
HETATM   31  S   UNL     1      -7.426   7.514  72.779  1.00  0.00    -0.085 S  
HETATM   32  O   UNL     1      -8.171   8.449  73.596  1.00  0.00    -0.325 OA 
HETATM   33  O   UNL     1      -5.980   7.515  72.874  1.00  0.00    -0.047 OA 
BRANCH  31  34
HETATM   34  C   UNL     1      -7.953   5.921  73.294  1.00  0.00    -0.109 A  
HETATM   35  N   UNL     1      -9.132   2.025  74.253  1.00  0.00    -0.068 NA 
HETATM   36  C   UNL     1      -9.285   5.678  73.626  1.00  0.00    -0.130 A  
HETATM   37  H1  UNL     1      -8.449   1.267  74.265  1.00  0.00     0.000 HD 
HETATM   38  H2  UNL     1      -9.881   1.769  73.609  1.00  0.00     0.000 HD 
HETATM   39  C   UNL     1      -7.057   4.860  73.145  1.00  0.00    -0.083 A  
HETATM   40  C   UNL     1      -7.450   3.573  73.476  1.00  0.00    -0.061 A  
HETATM   41  C   UNL     1      -9.672   4.376  73.949  1.00  0.00    -0.147 A  
HETATM   42  C   UNL     1      -8.735   3.335  73.966  1.00  0.00    -0.080 A  
ENDBRANCH  31  34
ENDBRANCH   5  31
ENDBRANCH   4   5
TORSDOF 12
ENDMDL
MODEL      186
REMARK 921   NORMALIZED FREE ENERGY PREDICTED BY IDOCK:   -4.73 KCAL/MOL
REMARK 922        TOTAL FREE ENERGY PREDICTED BY IDOCK:  -10.85 KCAL/MOL
REMARK 923 INTER-LIGAND FREE ENERGY PREDICTED BY IDOCK:   -8.43 KCAL/MOL
REMARK 924 INTRA-LIGAND FREE ENERGY PREDICTED BY IDOCK:   -2.42 KCAL/MOL
REMARK 927      BINDING AFFINITY PREDICTED BY RF-SCORE:    0.00 PKD
ROOT
HETATM    1  C   UNL     1      -7.392  11.690  69.811  1.00  0.00     0.461 C  
HETATM    2  C   UNL     1      -6.526  12.042  68.612  1.00  0.00    -0.063 C  
HETATM    3  C   UNL     1      -5.190  11.296  68.568  1.00  0.00    -0.043 C  
HETATM    4  C   UNL     1      -7.090  12.214  67.197  1.00  0.00    -0.120 C  
ENDROOT
BRANCH   4   5
HETATM    5  N   UNL     1      -8.233  11.494  66.562  1.00  0.00    -0.157 N  
BRANCH   5   6
HETATM    6  C   UNL     1      -8.755  12.414  65.418  1.00  0.00     0.980 C  
BRANCH   6   7
HETATM    7  C   UNL     1     -10.251  12.951  65.569  1.00  0.00    -0.287 C  
BRANCH   7   8
HETATM    8  C   UNL     1     -10.396  13.917  66.847  1.00  0.00    -0.266 C  
BRANCH   8   9
HETATM    9  N   UNL     1      -9.520  15.100  66.773  1.00  0.00    -0.229 N  
HETATM   10  C   UNL     1      -9.725  16.077  65.833  1.00  0.00    -0.343 C  
HETATM   11  H   UNL     1      -8.747  15.193  67.432  1.00  0.00     0.000 HD 
HETATM   12  O   UNL     1     -10.642  16.115  65.029  1.00  0.00    -0.588 OA 
BRANCH  10  13
HETATM   13  O   UNL     1      -8.757  17.027  65.939  1.00  0.00    -0.524 OA 
BRANCH  13  14
HETATM   14  C   UNL     1      -9.172  18.249  66.576  1.00  0.00    -0.292 C  
HETATM   15  C   UNL     1     -10.375  18.090  67.479  1.00  0.00    -0.394 C  
HETATM   16  O   UNL     1      -8.759  19.329  68.675  1.00  0.00    -0.353 OA 
HETATM   17  C   UNL     1     -10.172  19.177  68.506  1.00  0.00    -0.367 C  
HETATM   18  C   UNL     1      -8.101  18.726  67.550  1.00  0.00    -0.256 C  
ENDBRANCH  13  14
ENDBRANCH  10  13
ENDBRANCH   8   9
BRANCH   8  19
HETATM   19  C   UNL     1     -11.826  14.316  67.281  1.00  0.00    -0.444 C  
BRANCH  19  20
HETATM   20  C   UNL     1     -12.176  14.193  68.740  1.00  0.00    -0.234 A  
HETATM   21  C   UNL     1     -12.786  15.207  70.858  1.00  0.00    -0.479 A  
HETATM   22  C   UNL     1     -12.176  12.872  70.771  1.00  0.00    -0.348 A  
HETATM   23  C   UNL     1     -11.984  12.971  69.394  1.00  0.00    -0.338 A  
HETATM   24  C   UNL     1     -12.586  15.310  69.481  1.00  0.00    -0.021 A  
HETATM   25  C   UNL     1     -12.573  13.990  71.502  1.00  0.00    -0.432 A  
ENDBRANCH  19  20
ENDBRANCH   8  19
ENDBRANCH   7   8
BRANCH   7  26
HETATM   26  O   UNL     1     -11.253  11.876  65.440  1.00  0.00    -0.317 OA 
HETATM   27  O   UNL     1     -13.408  12.098  62.979  1.00  0.00    -0.297 OA 
HETATM   28  O   UNL     1     -11.328  11.135  63.250  1.00  0.00    -0.085 OA 
HETATM   29  O   UNL     1     -11.895  13.474  63.710  1.00  0.00    -0.427 OA 
HETATM   30  P   UNL     1     -12.390  11.994  64.141  1.00  0.00    -0.231 P  
ENDBRANCH   7  26
ENDBRANCH   6   7
ENDBRANCH   5   6
BRANCH   5  31
HETATM   31  S   UNL     1      -8.283   9.859  66.070  1.00  0.00    -0.122 S  
HETATM   32  O   UNL     1      -6.968   9.272  66.226  1.00  0.00    -0.084 OA 
HETATM   33  O   UNL     1      -8.909   9.808  64.764  1.00  0.00    -0.176 OA 
BRANCH  31  34
HETATM   34  C   UNL     1      -9.328   8.958  67.154  1.00  0.00    -0.145 A  
HETATM   35  N   UNL     1     -11.650   6.906  69.963  1.00  0.00    -0.550 NA 
HETATM   36  C   UNL     1      -9.427   7.570  67.067  1.00  0.00    -0.206 A  
HETATM   37  H1  UNL     1     -12.154   7.416  70.688  1.00  0.00     0.000 HD 
HETATM   38  H2  UNL     1     -11.041   6.225  70.417  1.00  0.00     0.000 HD 
HETATM   39  C   UNL     1      -9.877   9.640  68.242  1.00  0.00    -0.169 A  
HETATM   40  C   UNL     1     -10.656   8.956  69.163  1.00  0.00    -0.211 A  
HETATM   41  C   UNL     1     -10.207   6.890  68.006  1.00  0.00    -0.209 A  
HETATM   42  C   UNL     1     -10.900   7.591  69.001  1.00  0.00    -0.061 A  
ENDBRANCH  31  34
ENDBRANCH   5  31
ENDBRANCH   4   5
TORSDOF 12
ENDMDL
MODEL      187
REMARK 921   NORMALIZED FREE ENERGY PREDICTED BY IDOCK:   -4.73 KCAL/MOL
REMARK 922        TOTAL FREE ENERGY PREDICTED BY IDOCK:  -10.85 KCAL/MOL
REMARK 923 INTER-LIGAND FREE ENERGY PREDICTED BY IDOCK:   -8.35 KCAL/MOL
REMARK 924 INTRA-LIGAND FREE ENERGY PREDICTED BY IDOCK:   -2.50 KCAL/MOL
REMARK 927      BINDING AFFINITY PREDICTED BY RF-SCORE:    0.00 PKD
ROOT
HETATM    1  C   UNL     1      -9.665   8.793  71.922  1.00  0.00    -0.386 C  
HETATM    2  C   UNL     1     -10.865   8.884  70.994  1.00  0.00    -0.326 C  
HETATM    3  C   UNL     1     -11.422  10.300  70.832  1.00  0.00    -0.425 C  
HETATM    4  C   UNL     1     -10.956   8.118  69.670  1.00  0.00    -0.088 C  
ENDROOT
BRANCH   4   5
HETATM    5  N   UNL     1      -9.854   7.765  68.727  1.00  0.00    -0.165 N  
BRANCH   5   6
HETATM    6  C   UNL     1      -8.906   9.000  68.671  1.00  0.00    -0.137 C  
BRANCH   6   7
HETATM    7  C   UNL     1      -9.036   9.933  67.382  1.00  0.00    -0.134 C  
BRANCH   7   8
HETATM    8  C   UNL     1      -9.740  11.332  67.745  1.00  0.00    -0.173 C  
BRANCH   8   9
HETATM    9  N   UNL     1      -8.977  12.498  67.263  1.00  0.00    -0.185 N  
HETATM   10  C   UNL     1      -7.947  13.026  67.999  1.00  0.00    -0.155 C  
HETATM   11  H   UNL     1      -9.220  12.919  66.367  1.00  0.00     0.000 HD 
HETATM   12  O   UNL     1      -7.522  12.584  69.053  1.00  0.00    -0.040 OA 
BRANCH  10  13
HETATM   13  O   UNL     1      -7.444  14.120  67.366  1.00  0.00    -0.175 OA 
BRANCH  13  14
HETATM   14  C   UNL     1      -7.480  15.336  68.134  1.00  0.00    -0.112 C  
HETATM   15  C   UNL     1      -6.818  16.511  67.452  1.00  0.00    -0.191 C  
HETATM   16  O   UNL     1      -8.908  17.257  68.259  1.00  0.00    -0.242 OA 
HETATM   17  C   UNL     1      -7.568  17.695  68.012  1.00  0.00    -0.226 C  
HETATM   18  C   UNL     1      -8.918  15.822  68.284  1.00  0.00    -0.182 C  
ENDBRANCH  13  14
ENDBRANCH  10  13
ENDBRANCH   8   9
BRANCH   8  19
HETATM   19  C   UNL     1     -11.244  11.483  67.414  1.00  0.00    -0.367 C  
BRANCH  19  20
HETATM   20  C   UNL     1     -11.620  12.347  66.240  1.00  0.00    -0.449 A  
HETATM   21  C   UNL     1     -11.756  12.712  63.846  1.00  0.00    -0.532 A  
HETATM   22  C   UNL     1     -12.187  14.536  65.370  1.00  0.00    -0.294 A  
HETATM   23  C   UNL     1     -11.965  13.686  66.453  1.00  0.00    -0.466 A  
HETATM   24  C   UNL     1     -11.525  11.862  64.928  1.00  0.00    -0.315 A  
HETATM   25  C   UNL     1     -12.080  14.050  64.068  1.00  0.00    -0.413 A  
ENDBRANCH  19  20
ENDBRANCH   8  19
ENDBRANCH   7   8
BRANCH   7  26
HETATM   26  O   UNL     1      -9.574   9.211  66.213  1.00  0.00    -0.211 OA 
HETATM   27  O   UNL     1      -7.920   9.445  63.391  1.00  0.00    -0.129 OA 
HETATM   28  O   UNL     1      -7.884   8.003  65.193  1.00  0.00    -0.101 OA 
HETATM   29  O   UNL     1      -7.672  10.442  65.305  1.00  0.00    -0.145 OA 
HETATM   30  P   UNL     1      -8.700   9.334  64.724  1.00  0.00    -0.141 P  
ENDBRANCH   7  26
ENDBRANCH   6   7
ENDBRANCH   5   6
BRANCH   5  31
HETATM   31  S   UNL     1      -8.940   6.321  68.695  1.00  0.00    -0.127 S  
HETATM   32  O   UNL     1      -7.571   6.630  68.342  1.00  0.00    -0.099 OA 
HETATM   33  O   UNL     1      -9.661   5.359  67.885  1.00  0.00    -0.120 OA 
BRANCH  31  34
HETATM   34  C   UNL     1      -8.864   5.646  70.313  1.00  0.00    -0.139 A  
HETATM   35  N   UNL     1      -8.914   4.209  74.240  1.00  0.00    -0.094 NA 
HETATM   36  C   UNL     1      -7.745   5.843  71.121  1.00  0.00    -0.109 A  
HETATM   37  H1  UNL     1      -9.725   3.702  74.594  1.00  0.00     0.000 HD 
HETATM   38  H2  UNL     1      -8.741   5.005  74.855  1.00  0.00     0.000 HD 
HETATM   39  C   UNL     1     -10.035   5.105  70.847  1.00  0.00    -0.280 A  
HETATM   40  C   UNL     1     -10.042   4.619  72.145  1.00  0.00    -0.256 A  
HETATM   41  C   UNL     1      -7.766   5.357  72.430  1.00  0.00    -0.102 A  
HETATM   42  C   UNL     1      -8.880   4.661  72.917  1.00  0.00    -0.116 A  
ENDBRANCH  31  34
ENDBRANCH   5  31
ENDBRANCH   4   5
TORSDOF 12
ENDMDL
MODEL      188
REMARK 921   NORMALIZED FREE ENERGY PREDICTED BY IDOCK:   -4.72 KCAL/MOL
REMARK 922        TOTAL FREE ENERGY PREDICTED BY IDOCK:  -10.84 KCAL/MOL
REMARK 923 INTER-LIGAND FREE ENERGY PREDICTED BY IDOCK:   -8.66 KCAL/MOL
REMARK 924 INTRA-LIGAND FREE ENERGY PREDICTED BY IDOCK:   -2.18 KCAL/MOL
REMARK 927      BINDING AFFINITY PREDICTED BY RF-SCORE:    0.00 PKD
ROOT
HETATM    1  C   UNL     1     -12.367  13.675  66.289  1.00  0.00    -0.464 C  
HETATM    2  C   UNL     1     -11.489  12.581  65.706  1.00  0.00    -0.407 C  
HETATM    3  C   UNL     1     -10.833  12.951  64.374  1.00  0.00    -0.404 C  
HETATM    4  C   UNL     1     -10.533  11.736  66.557  1.00  0.00    -0.230 C  
ENDROOT
BRANCH   4   5
HETATM    5  N   UNL     1      -9.766  12.145  67.769  1.00  0.00    -0.192 N  
BRANCH   5   6
HETATM    6  C   UNL     1      -9.292  10.830  68.458  1.00  0.00    -0.174 C  
BRANCH   6   7
HETATM    7  C   UNL     1     -10.335  10.135  69.448  1.00  0.00    -0.232 C  
BRANCH   7   8
HETATM    8  C   UNL     1     -10.166   8.535  69.441  1.00  0.00    -0.211 C  
BRANCH   8   9
HETATM    9  N   UNL     1      -9.927   7.991  68.092  1.00  0.00    -0.178 N  
HETATM   10  C   UNL     1     -10.489   6.804  67.695  1.00  0.00    -0.229 C  
HETATM   11  H   UNL     1      -9.333   8.506  67.443  1.00  0.00     0.000 HD 
HETATM   12  O   UNL     1     -11.260   6.124  68.351  1.00  0.00    -0.330 OA 
BRANCH  10  13
HETATM   13  O   UNL     1     -10.074   6.499  66.436  1.00  0.00    -0.113 OA 
BRANCH  13  14
HETATM   14  C   UNL     1      -8.700   6.082  66.334  1.00  0.00    -0.133 C  
HETATM   15  C   UNL     1      -8.278   5.099  67.402  1.00  0.00    -0.107 C  
HETATM   16  O   UNL     1      -7.523   4.251  65.332  1.00  0.00    -0.075 OA 
HETATM   17  C   UNL     1      -7.188   4.308  66.723  1.00  0.00    -0.072 C  
HETATM   18  C   UNL     1      -8.488   5.277  65.057  1.00  0.00    -0.150 C  
ENDBRANCH  13  14
ENDBRANCH  10  13
ENDBRANCH   8   9
BRANCH   8  19
HETATM   19  C   UNL     1      -9.187   7.917  70.467  1.00  0.00    -0.158 C  
BRANCH  19  20
HETATM   20  C   UNL     1      -9.665   6.735  71.267  1.00  0.00    -0.179 A  
HETATM   21  C   UNL     1      -9.442   4.418  71.949  1.00  0.00    -0.201 A  
HETATM   22  C   UNL     1     -11.434   5.656  72.523  1.00  0.00    -0.335 A  
HETATM   23  C   UNL     1     -10.917   6.785  71.890  1.00  0.00    -0.270 A  
HETATM   24  C   UNL     1      -8.926   5.544  71.307  1.00  0.00    -0.153 A  
HETATM   25  C   UNL     1     -10.699   4.473  72.550  1.00  0.00    -0.192 A  
ENDBRANCH  19  20
ENDBRANCH   8  19
ENDBRANCH   7   8
BRANCH   7  26
HETATM   26  O   UNL     1     -11.706  10.652  69.279  1.00  0.00    -0.281 OA 
HETATM   27  O   UNL     1     -13.513  11.075  71.982  1.00  0.00    -0.378 OA 
HETATM   28  O   UNL     1     -12.073  12.396  70.754  1.00  0.00    -0.333 OA 
HETATM   29  O   UNL     1     -11.558  10.182  71.669  1.00  0.00    -0.267 OA 
HETATM   30  P   UNL     1     -12.659  10.875  70.705  1.00  0.00    -0.351 P  
ENDBRANCH   7  26
ENDBRANCH   6   7
ENDBRANCH   5   6
BRANCH   5  31
HETATM   31  S   UNL     1      -8.543  13.334  67.871  1.00  0.00    -0.200 S  
HETATM   32  O   UNL     1      -7.640  13.188  66.748  1.00  0.00     0.191 OA 
HETATM   33  O   UNL     1      -7.991  13.290  69.210  1.00  0.00     0.292 OA 
BRANCH  31  34
HETATM   34  C   UNL     1      -9.263  14.924  67.686  1.00  0.00    -0.187 A  
HETATM   35  N   UNL     1     -10.708  18.815  67.177  1.00  0.00    -0.431 NA 
HETATM   36  C   UNL     1      -9.856  15.574  68.768  1.00  0.00    -0.217 A  
HETATM   37  H1  UNL     1     -10.647  19.274  66.268  1.00  0.00     0.000 HD 
HETATM   38  H2  UNL     1     -10.237  19.404  67.864  1.00  0.00     0.000 HD 
HETATM   39  C   UNL     1      -9.026  15.610  66.492  1.00  0.00    -0.343 A  
HETATM   40  C   UNL     1      -9.519  16.895  66.325  1.00  0.00    -0.298 A  
HETATM   41  C   UNL     1     -10.340  16.871  68.591  1.00  0.00    -0.332 A  
HETATM   42  C   UNL     1     -10.257  17.502  67.342  1.00  0.00    -0.337 A  
ENDBRANCH  31  34
ENDBRANCH   5  31
ENDBRANCH   4   5
TORSDOF 12
ENDMDL
MODEL      189
REMARK 921   NORMALIZED FREE ENERGY PREDICTED BY IDOCK:   -4.69 KCAL/MOL
REMARK 922        TOTAL FREE ENERGY PREDICTED BY IDOCK:  -10.79 KCAL/MOL
REMARK 923 INTER-LIGAND FREE ENERGY PREDICTED BY IDOCK:   -7.58 KCAL/MOL
REMARK 924 INTRA-LIGAND FREE ENERGY PREDICTED BY IDOCK:   -3.21 KCAL/MOL
REMARK 927      BINDING AFFINITY PREDICTED BY RF-SCORE:    0.00 PKD
ROOT
HETATM    1  C   UNL     1      -7.874  11.042  65.272  1.00  0.00     0.242 C  
HETATM    2  C   UNL     1      -6.880  10.976  66.420  1.00  0.00    -0.118 C  
HETATM    3  C   UNL     1      -5.416  11.044  65.981  1.00  0.00    -0.149 C  
HETATM    4  C   UNL     1      -7.079  11.729  67.740  1.00  0.00    -0.096 C  
ENDROOT
BRANCH   4   5
HETATM    5  N   UNL     1      -7.730  13.053  67.962  1.00  0.00    -0.130 N  
BRANCH   5   6
HETATM    6  C   UNL     1      -8.660  12.887  69.201  1.00  0.00     0.689 C  
BRANCH   6   7
HETATM    7  C   UNL     1     -10.231  12.945  68.919  1.00  0.00     0.012 C  
BRANCH   7   8
HETATM    8  C   UNL     1     -10.698  11.729  67.976  1.00  0.00    -0.208 C  
BRANCH   8   9
HETATM    9  N   UNL     1     -10.670  10.427  68.665  1.00  0.00    -0.204 N  
HETATM   10  C   UNL     1     -10.533   9.255  67.965  1.00  0.00    -0.223 C  
HETATM   11  H   UNL     1     -10.753  10.396  69.681  1.00  0.00     0.000 HD 
HETATM   12  O   UNL     1     -10.367   9.158  66.761  1.00  0.00    -0.258 OA 
BRANCH  10  13
HETATM   13  O   UNL     1     -10.589   8.199  68.822  1.00  0.00    -0.200 OA 
BRANCH  13  14
HETATM   14  C   UNL     1      -9.323   7.575  69.098  1.00  0.00    -0.147 C  
HETATM   15  C   UNL     1      -8.608   8.147  70.301  1.00  0.00    -0.131 C  
HETATM   16  O   UNL     1      -8.547   5.795  70.504  1.00  0.00    -0.133 OA 
HETATM   17  C   UNL     1      -7.796   6.977  70.801  1.00  0.00    -0.096 C  
HETATM   18  C   UNL     1      -9.532   6.122  69.511  1.00  0.00    -0.140 C  
ENDBRANCH  13  14
ENDBRANCH  10  13
ENDBRANCH   8   9
BRANCH   8  19
HETATM   19  C   UNL     1     -12.015  11.905  67.184  1.00  0.00    -0.045 C  
BRANCH  19  20
HETATM   20  C   UNL     1     -11.936  12.557  65.829  1.00  0.00    -0.482 A  
HETATM   21  C   UNL     1     -12.641  14.275  64.269  1.00  0.00    -0.154 A  
HETATM   22  C   UNL     1     -11.290  12.428  63.497  1.00  0.00    -0.553 A  
HETATM   23  C   UNL     1     -11.261  11.907  64.790  1.00  0.00    -0.356 A  
HETATM   24  C   UNL     1     -12.621  13.750  65.561  1.00  0.00    -0.551 A  
HETATM   25  C   UNL     1     -11.982  13.609  63.237  1.00  0.00    -0.051 A  
ENDBRANCH  19  20
ENDBRANCH   8  19
ENDBRANCH   7   8
BRANCH   7  26
HETATM   26  O   UNL     1     -10.686  14.293  68.529  1.00  0.00    -0.241 OA 
HETATM   27  O   UNL     1     -12.832  15.800  70.497  1.00  0.00    -0.423 OA 
HETATM   28  O   UNL     1     -10.531  15.727  70.338  1.00  0.00    -0.296 OA 
HETATM   29  O   UNL     1     -12.017  13.787  70.511  1.00  0.00    -0.323 OA 
HETATM   30  P   UNL     1     -11.818  15.088  69.568  1.00  0.00    -0.327 P  
ENDBRANCH   7  26
ENDBRANCH   6   7
ENDBRANCH   5   6
BRANCH   5  31
HETATM   31  S   UNL     1      -6.977  14.587  67.994  1.00  0.00    -0.160 S  
HETATM   32  O   UNL     1      -5.805  14.561  67.145  1.00  0.00    -0.190 OA 
HETATM   33  O   UNL     1      -6.816  14.972  69.381  1.00  0.00    -0.138 OA 
BRANCH  31  34
HETATM   34  C   UNL     1      -8.049  15.775  67.272  1.00  0.00    -0.188 A  
HETATM   35  N   UNL     1     -10.738  18.628  65.817  1.00  0.00    -0.476 NA 
HETATM   36  C   UNL     1      -8.905  15.428  66.228  1.00  0.00    -0.302 A  
HETATM   37  H1  UNL     1     -10.752  19.571  66.207  1.00  0.00     0.000 HD 
HETATM   38  H2  UNL     1     -11.675  18.233  65.906  1.00  0.00     0.000 HD 
HETATM   39  C   UNL     1      -8.183  17.005  67.918  1.00  0.00    -0.200 A  
HETATM   40  C   UNL     1      -9.067  17.952  67.424  1.00  0.00    -0.245 A  
HETATM   41  C   UNL     1      -9.798  16.387  65.743  1.00  0.00    -0.303 A  
HETATM   42  C   UNL     1      -9.817  17.681  66.278  1.00  0.00    -0.288 A  
ENDBRANCH  31  34
ENDBRANCH   5  31
ENDBRANCH   4   5
TORSDOF 12
ENDMDL
MODEL      190
REMARK 921   NORMALIZED FREE ENERGY PREDICTED BY IDOCK:   -4.69 KCAL/MOL
REMARK 922        TOTAL FREE ENERGY PREDICTED BY IDOCK:  -10.79 KCAL/MOL
REMARK 923 INTER-LIGAND FREE ENERGY PREDICTED BY IDOCK:   -7.94 KCAL/MOL
REMARK 924 INTRA-LIGAND FREE ENERGY PREDICTED BY IDOCK:   -2.85 KCAL/MOL
REMARK 927      BINDING AFFINITY PREDICTED BY RF-SCORE:    0.00 PKD
ROOT
HETATM    1  C   UNL     1     -12.496  11.968  71.256  1.00  0.00    -0.303 C  
HETATM    2  C   UNL     1     -12.425  12.087  69.742  1.00  0.00     0.023 C  
HETATM    3  C   UNL     1     -11.974  13.463  69.247  1.00  0.00    -0.367 C  
HETATM    4  C   UNL     1     -11.861  10.982  68.843  1.00  0.00    -0.308 C  
ENDROOT
BRANCH   4   5
HETATM    5  N   UNL     1     -10.754  10.025  69.136  1.00  0.00    -0.210 N  
BRANCH   5   6
HETATM    6  C   UNL     1      -9.459  10.879  69.290  1.00  0.00    -0.026 C  
BRANCH   6   7
HETATM    7  C   UNL     1      -8.921  11.593  67.968  1.00  0.00    -0.176 C  
BRANCH   7   8
HETATM    8  C   UNL     1      -8.746  10.537  66.767  1.00  0.00    -0.132 C  
BRANCH   8   9
HETATM    9  N   UNL     1      -7.989   9.337  67.167  1.00  0.00    -0.105 N  
HETATM   10  C   UNL     1      -6.705   9.130  66.732  1.00  0.00    -0.076 C  
HETATM   11  H   UNL     1      -8.428   8.649  67.778  1.00  0.00     0.000 HD 
HETATM   12  O   UNL     1      -6.048   9.899  66.050  1.00  0.00    -0.065 OA 
BRANCH  10  13
HETATM   13  O   UNL     1      -6.251   7.934  67.195  1.00  0.00    -0.051 OA 
BRANCH  13  14
HETATM   14  C   UNL     1      -7.043   6.795  66.812  1.00  0.00    -0.072 C  
HETATM   15  C   UNL     1      -7.065   6.538  65.322  1.00  0.00    -0.061 C  
HETATM   16  O   UNL     1      -6.631   4.473  66.382  1.00  0.00    -0.043 OA 
HETATM   17  C   UNL     1      -7.274   5.046  65.238  1.00  0.00    -0.067 C  
HETATM   18  C   UNL     1      -6.415   5.513  67.348  1.00  0.00    -0.051 C  
ENDBRANCH  13  14
ENDBRANCH  10  13
ENDBRANCH   8   9
BRANCH   8  19
HETATM   19  C   UNL     1     -10.011  10.150  65.966  1.00  0.00    -0.322 C  
BRANCH  19  20
HETATM   20  C   UNL     1     -10.726  11.240  65.214  1.00  0.00    -0.302 A  
HETATM   21  C   UNL     1     -12.469  12.923  65.085  1.00  0.00    -0.561 A  
HETATM   22  C   UNL     1     -11.210  12.337  63.109  1.00  0.00    -0.236 A  
HETATM   23  C   UNL     1     -10.464  11.424  63.851  1.00  0.00    -0.444 A  
HETATM   24  C   UNL     1     -11.729  12.002  65.828  1.00  0.00    -0.313 A  
HETATM   25  C   UNL     1     -12.213  13.083  63.724  1.00  0.00    -0.536 A  
ENDBRANCH  19  20
ENDBRANCH   8  19
ENDBRANCH   7   8
BRANCH   7  26
HETATM   26  O   UNL     1      -7.777  12.485  68.232  1.00  0.00    -0.126 OA 
HETATM   27  O   UNL     1      -7.885  15.510  66.971  1.00  0.00    -0.205 OA 
HETATM   28  O   UNL     1      -8.539  14.543  68.963  1.00  0.00    -0.134 OA 
HETATM   29  O   UNL     1      -9.185  13.788  66.723  1.00  0.00    -0.246 OA 
HETATM   30  P   UNL     1      -7.835  14.081  67.567  1.00  0.00    -0.146 P  
ENDBRANCH   7  26
ENDBRANCH   6   7
ENDBRANCH   5   6
BRANCH   5  31
HETATM   31  S   UNL     1     -10.758   8.753  70.277  1.00  0.00    -0.230 S  
HETATM   32  O   UNL     1     -12.102   8.570  70.784  1.00  0.00    -0.206 OA 
HETATM   33  O   UNL     1      -9.691   9.005  71.225  1.00  0.00    -0.262 OA 
BRANCH  31  34
HETATM   34  C   UNL     1     -10.355   7.248  69.469  1.00  0.00    -0.225 A  
HETATM   35  N   UNL     1      -9.679   3.641  67.462  1.00  0.00    -0.220 NA 
HETATM   36  C   UNL     1      -9.893   6.148  70.190  1.00  0.00    -0.209 A  
HETATM   37  H1  UNL     1      -9.830   3.574  66.456  1.00  0.00     0.000 HD 
HETATM   38  H2  UNL     1     -10.252   2.931  67.918  1.00  0.00     0.000 HD 
HETATM   39  C   UNL     1     -10.722   7.112  68.128  1.00  0.00    -0.214 A  
HETATM   40  C   UNL     1     -10.484   5.918  67.465  1.00  0.00    -0.306 A  
HETATM   41  C   UNL     1      -9.665   4.947  69.514  1.00  0.00    -0.266 A  
HETATM   42  C   UNL     1      -9.871   4.855  68.131  1.00  0.00    -0.138 A  
ENDBRANCH  31  34
ENDBRANCH   5  31
ENDBRANCH   4   5
TORSDOF 12
ENDMDL
MODEL      191
REMARK 921   NORMALIZED FREE ENERGY PREDICTED BY IDOCK:   -4.68 KCAL/MOL
REMARK 922        TOTAL FREE ENERGY PREDICTED BY IDOCK:  -10.76 KCAL/MOL
REMARK 923 INTER-LIGAND FREE ENERGY PREDICTED BY IDOCK:   -8.93 KCAL/MOL
REMARK 924 INTRA-LIGAND FREE ENERGY PREDICTED BY IDOCK:   -1.83 KCAL/MOL
REMARK 927      BINDING AFFINITY PREDICTED BY RF-SCORE:    0.00 PKD
ROOT
HETATM    1  C   UNL     1     -12.283  14.294  68.443  1.00  0.00    -0.197 C  
HETATM    2  C   UNL     1     -11.395  13.418  69.311  1.00  0.00    -0.314 C  
HETATM    3  C   UNL     1     -12.137  12.715  70.450  1.00  0.00    -0.381 C  
HETATM    4  C   UNL     1     -10.306  12.505  68.738  1.00  0.00    -0.117 C  
ENDROOT
BRANCH   4   5
HETATM    5  N   UNL     1     -10.304  11.768  67.440  1.00  0.00    -0.202 N  
BRANCH   5   6
HETATM    6  C   UNL     1     -11.195  10.506  67.645  1.00  0.00    -0.265 C  
BRANCH   6   7
HETATM    7  C   UNL     1     -10.427   9.146  67.977  1.00  0.00    -0.224 C  
BRANCH   7   8
HETATM    8  C   UNL     1     -10.646   8.713  69.510  1.00  0.00    -0.213 C  
BRANCH   8   9
HETATM    9  N   UNL     1     -10.405   7.277  69.739  1.00  0.00    -0.214 N  
HETATM   10  C   UNL     1     -11.235   6.536  70.542  1.00  0.00    -0.344 C  
HETATM   11  H   UNL     1      -9.606   6.827  69.293  1.00  0.00     0.000 HD 
HETATM   12  O   UNL     1     -12.251   6.938  71.083  1.00  0.00    -0.358 OA 
BRANCH  10  13
HETATM   13  O   UNL     1     -10.768   5.261  70.632  1.00  0.00    -0.230 OA 
BRANCH  13  14
HETATM   14  C   UNL     1     -10.256   4.893  71.925  1.00  0.00    -0.201 C  
HETATM   15  C   UNL     1     -11.326   4.505  72.919  1.00  0.00    -0.160 C  
HETATM   16  O   UNL     1      -9.643   2.852  73.021  1.00  0.00    -0.093 OA 
HETATM   17  C   UNL     1     -10.610   3.534  73.826  1.00  0.00    -0.202 C  
HETATM   18  C   UNL     1      -9.436   3.612  71.821  1.00  0.00    -0.141 C  
ENDBRANCH  13  14
ENDBRANCH  10  13
ENDBRANCH   8   9
BRANCH   8  19
HETATM   19  C   UNL     1      -9.957   9.569  70.599  1.00  0.00    -0.342 C  
BRANCH  19  20
HETATM   20  C   UNL     1      -8.581   9.156  71.048  1.00  0.00    -0.236 A  
HETATM   21  C   UNL     1      -6.171   9.193  70.772  1.00  0.00    -0.053 A  
HETATM   22  C   UNL     1      -7.181   7.669  72.351  1.00  0.00    -0.082 A  
HETATM   23  C   UNL     1      -8.443   8.157  72.019  1.00  0.00    -0.206 A  
HETATM   24  C   UNL     1      -7.435   9.677  70.432  1.00  0.00    -0.168 A  
HETATM   25  C   UNL     1      -6.047   8.184  71.726  1.00  0.00    -0.040 A  
ENDBRANCH  19  20
ENDBRANCH   8  19
ENDBRANCH   7   8
BRANCH   7  26
HETATM   26  O   UNL     1      -9.036   9.147  67.486  1.00  0.00    -0.125 OA 
HETATM   27  O   UNL     1      -7.999   6.498  65.855  1.00  0.00    -0.104 OA 
HETATM   28  O   UNL     1      -8.988   8.499  65.266  1.00  0.00    -0.154 OA 
HETATM   29  O   UNL     1      -9.842   6.913  66.926  1.00  0.00    -0.163 OA 
HETATM   30  P   UNL     1      -8.489   7.749  66.625  1.00  0.00    -0.141 P  
ENDBRANCH   7  26
ENDBRANCH   6   7
ENDBRANCH   5   6
BRANCH   5  31
HETATM   31  S   UNL     1     -10.556  12.417  65.879  1.00  0.00    -0.266 S  
HETATM   32  O   UNL     1     -11.974  12.420  65.586  1.00  0.00    -0.447 OA 
HETATM   33  O   UNL     1      -9.664  11.731  64.965  1.00  0.00    -0.240 OA 
BRANCH  31  34
HETATM   34  C   UNL     1     -10.073  14.104  65.867  1.00  0.00    -0.321 A  
HETATM   35  N   UNL     1      -8.927  18.117  66.134  1.00  0.00    -0.498 NA 
HETATM   36  C   UNL     1     -10.896  15.082  65.310  1.00  0.00    -0.399 A  
HETATM   37  H1  UNL     1      -8.047  18.374  66.581  1.00  0.00     0.000 HD 
HETATM   38  H2  UNL     1      -9.682  18.615  66.606  1.00  0.00     0.000 HD 
HETATM   39  C   UNL     1      -8.957  14.466  66.625  1.00  0.00    -0.232 A  
HETATM   40  C   UNL     1      -8.575  15.796  66.699  1.00  0.00    -0.322 A  
HETATM   41  C   UNL     1     -10.506  16.420  65.399  1.00  0.00    -0.333 A  
HETATM   42  C   UNL     1      -9.297  16.774  66.013  1.00  0.00    -0.210 A  
ENDBRANCH  31  34
ENDBRANCH   5  31
ENDBRANCH   4   5
TORSDOF 12
ENDMDL
MODEL      192
REMARK 921   NORMALIZED FREE ENERGY PREDICTED BY IDOCK:   -4.67 KCAL/MOL
REMARK 922        TOTAL FREE ENERGY PREDICTED BY IDOCK:  -10.75 KCAL/MOL
REMARK 923 INTER-LIGAND FREE ENERGY PREDICTED BY IDOCK:   -8.67 KCAL/MOL
REMARK 924 INTRA-LIGAND FREE ENERGY PREDICTED BY IDOCK:   -2.08 KCAL/MOL
REMARK 927      BINDING AFFINITY PREDICTED BY RF-SCORE:    0.00 PKD
ROOT
HETATM    1  C   UNL     1     -13.522   7.575  71.255  1.00  0.00    -0.325 C  
HETATM    2  C   UNL     1     -13.023   9.009  71.181  1.00  0.00    -0.194 C  
HETATM    3  C   UNL     1     -12.879   9.690  72.543  1.00  0.00    -0.193 C  
HETATM    4  C   UNL     1     -11.899   9.454  70.238  1.00  0.00    -0.018 C  
ENDROOT
BRANCH   4   5
HETATM    5  N   UNL     1     -10.704   8.680  69.792  1.00  0.00    -0.228 N  
BRANCH   5   6
HETATM    6  C   UNL     1     -10.188   9.370  68.494  1.00  0.00    -0.199 C  
BRANCH   6   7
HETATM    7  C   UNL     1      -9.496  10.797  68.678  1.00  0.00    -0.188 C  
BRANCH   7   8
HETATM    8  C   UNL     1     -10.591  11.975  68.711  1.00  0.00    -0.209 C  
BRANCH   8   9
HETATM    9  N   UNL     1      -9.991  13.316  68.601  1.00  0.00    -0.388 N  
HETATM   10  C   UNL     1     -10.541  14.395  69.245  1.00  0.00    -0.175 C  
HETATM   11  H   UNL     1      -9.152  13.445  68.036  1.00  0.00     0.000 HD 
HETATM   12  O   UNL     1     -11.503  14.367  69.993  1.00  0.00    -0.261 OA 
BRANCH  10  13
HETATM   13  O   UNL     1      -9.836  15.519  68.942  1.00  0.00    -0.198 OA 
BRANCH  13  14
HETATM   14  C   UNL     1      -8.919  15.382  67.842  1.00  0.00    -0.173 C  
HETATM   15  C   UNL     1      -8.826  16.612  66.967  1.00  0.00    -0.220 C  
HETATM   16  O   UNL     1      -6.619  15.916  67.436  1.00  0.00    -0.165 OA 
HETATM   17  C   UNL     1      -7.420  16.535  66.424  1.00  0.00    -0.170 C  
HETATM   18  C   UNL     1      -7.491  15.248  68.359  1.00  0.00    -0.111 C  
ENDBRANCH  13  14
ENDBRANCH  10  13
ENDBRANCH   8   9
BRANCH   8  19
HETATM   19  C   UNL     1     -11.814  11.839  67.773  1.00  0.00    -0.266 C  
BRANCH  19  20
HETATM   20  C   UNL     1     -11.664  12.313  66.352  1.00  0.00    -0.431 A  
HETATM   21  C   UNL     1     -12.308  13.791  64.540  1.00  0.00    -0.399 A  
HETATM   22  C   UNL     1     -10.864  11.906  64.102  1.00  0.00    -0.412 A  
HETATM   23  C   UNL     1     -10.906  11.557  65.450  1.00  0.00    -0.318 A  
HETATM   24  C   UNL     1     -12.359  13.438  65.889  1.00  0.00    -0.493 A  
HETATM   25  C   UNL     1     -11.567  13.020  63.647  1.00  0.00    -0.507 A  
ENDBRANCH  19  20
ENDBRANCH   8  19
ENDBRANCH   7   8
BRANCH   7  26
HETATM   26  O   UNL     1      -8.349  10.991  67.771  1.00  0.00    -0.115 OA 
HETATM   27  O   UNL     1      -5.380  11.310  69.125  1.00  0.00    -0.041 OA 
HETATM   28  O   UNL     1      -6.642   9.540  68.348  1.00  0.00    -0.053 OA 
HETATM   29  O   UNL     1      -7.367  11.202  69.995  1.00  0.00     0.040 OA 
HETATM   30  P   UNL     1      -6.782  11.158  68.486  1.00  0.00    -0.072 P  
ENDBRANCH   7  26
ENDBRANCH   6   7
ENDBRANCH   5   6
BRANCH   5  31
HETATM   31  S   UNL     1      -9.384   8.169  70.750  1.00  0.00    -0.161 S  
HETATM   32  O   UNL     1      -9.022   9.228  71.669  1.00  0.00    -0.311 OA 
HETATM   33  O   UNL     1      -8.365   7.651  69.859  1.00  0.00    -0.128 OA 
BRANCH  31  34
HETATM   34  C   UNL     1      -9.886   6.825  71.760  1.00  0.00    -0.163 A  
HETATM   35  N   UNL     1     -10.870   3.701  74.361  1.00  0.00    -0.103 NA 
HETATM   36  C   UNL     1      -9.774   5.509  71.312  1.00  0.00    -0.215 A  
HETATM   37  H1  UNL     1     -11.207   3.900  75.303  1.00  0.00     0.000 HD 
HETATM   38  H2  UNL     1     -10.047   3.102  74.437  1.00  0.00     0.000 HD 
HETATM   39  C   UNL     1     -10.183   7.094  73.098  1.00  0.00    -0.317 A  
HETATM   40  C   UNL     1     -10.521   6.055  73.952  1.00  0.00    -0.286 A  
HETATM   41  C   UNL     1     -10.108   4.471  72.184  1.00  0.00    -0.260 A  
HETATM   42  C   UNL     1     -10.572   4.744  73.477  1.00  0.00    -0.244 A  
ENDBRANCH  31  34
ENDBRANCH   5  31
ENDBRANCH   4   5
TORSDOF 12
ENDMDL
MODEL      193
REMARK 921   NORMALIZED FREE ENERGY PREDICTED BY IDOCK:   -4.65 KCAL/MOL
REMARK 922        TOTAL FREE ENERGY PREDICTED BY IDOCK:  -10.72 KCAL/MOL
REMARK 923 INTER-LIGAND FREE ENERGY PREDICTED BY IDOCK:   -8.88 KCAL/MOL
REMARK 924 INTRA-LIGAND FREE ENERGY PREDICTED BY IDOCK:   -1.84 KCAL/MOL
REMARK 927      BINDING AFFINITY PREDICTED BY RF-SCORE:    0.00 PKD
ROOT
HETATM    1  C   UNL     1     -12.084  13.470  68.132  1.00  0.00    -0.290 C  
HETATM    2  C   UNL     1     -11.162  12.338  68.554  1.00  0.00    -0.316 C  
HETATM    3  C   UNL     1     -11.850  11.250  69.381  1.00  0.00    -0.424 C  
HETATM    4  C   UNL     1     -10.116  11.720  67.620  1.00  0.00    -0.193 C  
ENDROOT
BRANCH   4   5
HETATM    5  N   UNL     1     -10.192  11.530  66.142  1.00  0.00    -0.225 N  
BRANCH   5   6
HETATM    6  C   UNL     1     -10.399  10.004  65.902  1.00  0.00    -0.132 C  
BRANCH   6   7
HETATM    7  C   UNL     1      -9.081   9.148  65.622  1.00  0.00    -0.219 C  
BRANCH   7   8
HETATM    8  C   UNL     1      -8.860   8.030  66.757  1.00  0.00    -0.140 C  
BRANCH   8   9
HETATM    9  N   UNL     1      -9.503   8.381  68.036  1.00  0.00    -0.142 N  
HETATM   10  C   UNL     1      -8.761   8.583  69.172  1.00  0.00    -0.134 C  
HETATM   11  H   UNL     1     -10.518   8.474  68.078  1.00  0.00     0.000 HD 
HETATM   12  O   UNL     1      -7.544   8.560  69.244  1.00  0.00    -0.090 OA 
BRANCH  10  13
HETATM   13  O   UNL     1      -9.589   8.840  70.221  1.00  0.00    -0.165 OA 
BRANCH  13  14
HETATM   14  C   UNL     1     -10.656   7.892  70.399  1.00  0.00    -0.228 C  
HETATM   15  C   UNL     1     -10.213   6.577  71.000  1.00  0.00    -0.218 C  
HETATM   16  O   UNL     1     -12.137   7.274  72.178  1.00  0.00    -0.293 OA 
HETATM   17  C   UNL     1     -11.449   6.104  71.725  1.00  0.00    -0.285 C  
HETATM   18  C   UNL     1     -11.647   8.402  71.439  1.00  0.00    -0.284 C  
ENDBRANCH  13  14
ENDBRANCH  10  13
ENDBRANCH   8   9
BRANCH   8  19
HETATM   19  C   UNL     1      -9.153   6.560  66.378  1.00  0.00    -0.172 C  
BRANCH  19  20
HETATM   20  C   UNL     1      -8.824   5.496  67.390  1.00  0.00    -0.105 A  
HETATM   21  C   UNL     1      -7.197   4.220  68.659  1.00  0.00    -0.056 A  
HETATM   22  C   UNL     1      -9.519   3.556  68.664  1.00  0.00    -0.209 A  
HETATM   23  C   UNL     1      -9.830   4.628  67.830  1.00  0.00    -0.177 A  
HETATM   24  C   UNL     1      -7.505   5.289  67.816  1.00  0.00    -0.076 A  
HETATM   25  C   UNL     1      -8.203   3.350  69.075  1.00  0.00    -0.075 A  
ENDBRANCH  19  20
ENDBRANCH   8  19
ENDBRANCH   7   8
BRANCH   7  26
HETATM   26  O   UNL     1      -7.916   9.993  65.296  1.00  0.00    -0.131 OA 
HETATM   27  O   UNL     1      -6.233   9.274  62.575  1.00  0.00    -0.094 OA 
HETATM   28  O   UNL     1      -8.019  10.647  63.079  1.00  0.00    -0.132 OA 
HETATM   29  O   UNL     1      -7.864   8.254  63.583  1.00  0.00    -0.138 OA 
HETATM   30  P   UNL     1      -7.028   9.613  63.860  1.00  0.00    -0.121 P  
ENDBRANCH   7  26
ENDBRANCH   6   7
ENDBRANCH   5   6
BRANCH   5  31
HETATM   31  S   UNL     1     -11.123  12.431  65.027  1.00  0.00    -0.315 S  
HETATM   32  O   UNL     1     -12.523  12.332  65.383  1.00  0.00    -0.596 OA 
HETATM   33  O   UNL     1     -10.721  12.035  63.692  1.00  0.00    -0.367 OA 
BRANCH  31  34
HETATM   34  C   UNL     1     -10.722  14.133  65.178  1.00  0.00    -0.388 A  
HETATM   35  N   UNL     1      -9.773  18.152  65.834  1.00  0.00    -0.519 NA 
HETATM   36  C   UNL     1     -11.592  15.119  64.715  1.00  0.00    -0.364 A  
HETATM   37  H1  UNL     1      -8.906  18.408  66.307  1.00  0.00     0.000 HD 
HETATM   38  H2  UNL     1     -10.551  18.566  66.349  1.00  0.00     0.000 HD 
HETATM   39  C   UNL     1      -9.625  14.474  65.972  1.00  0.00    -0.305 A  
HETATM   40  C   UNL     1      -9.308  15.808  66.175  1.00  0.00    -0.381 A  
HETATM   41  C   UNL     1     -11.268  16.459  64.933  1.00  0.00    -0.191 A  
HETATM   42  C   UNL     1     -10.077  16.811  65.583  1.00  0.00    -0.189 A  
ENDBRANCH  31  34
ENDBRANCH   5  31
ENDBRANCH   4   5
TORSDOF 12
ENDMDL
MODEL      194
REMARK 921   NORMALIZED FREE ENERGY PREDICTED BY IDOCK:   -4.65 KCAL/MOL
REMARK 922        TOTAL FREE ENERGY PREDICTED BY IDOCK:  -10.72 KCAL/MOL
REMARK 923 INTER-LIGAND FREE ENERGY PREDICTED BY IDOCK:   -8.35 KCAL/MOL
REMARK 924 INTRA-LIGAND FREE ENERGY PREDICTED BY IDOCK:   -2.37 KCAL/MOL
REMARK 927      BINDING AFFINITY PREDICTED BY RF-SCORE:    0.00 PKD
ROOT
HETATM    1  C   UNL     1     -12.083  13.810  66.748  1.00  0.00    -0.460 C  
HETATM    2  C   UNL     1     -11.036  13.051  65.947  1.00  0.00    -0.303 C  
HETATM    3  C   UNL     1     -10.579  13.773  64.677  1.00  0.00    -0.443 C  
HETATM    4  C   UNL     1      -9.860  12.314  66.597  1.00  0.00    -0.220 C  
ENDROOT
BRANCH   4   5
HETATM    5  N   UNL     1      -9.108  12.679  67.833  1.00  0.00    -0.192 N  
BRANCH   5   6
HETATM    6  C   UNL     1      -8.523  11.353  68.404  1.00  0.00    -0.155 C  
BRANCH   6   7
HETATM    7  C   UNL     1      -9.565  10.362  69.099  1.00  0.00    -0.213 C  
BRANCH   7   8
HETATM    8  C   UNL     1      -9.067   8.835  69.004  1.00  0.00    -0.141 C  
BRANCH   8   9
HETATM    9  N   UNL     1      -8.403   8.529  67.725  1.00  0.00    -0.128 N  
HETATM   10  C   UNL     1      -9.113   8.050  66.653  1.00  0.00    -0.163 C  
HETATM   11  H   UNL     1      -7.398   8.675  67.635  1.00  0.00     0.000 HD 
HETATM   12  O   UNL     1     -10.321   7.887  66.611  1.00  0.00    -0.291 OA 
BRANCH  10  13
HETATM   13  O   UNL     1      -8.267   7.799  65.617  1.00  0.00    -0.120 OA 
BRANCH  13  14
HETATM   14  C   UNL     1      -7.297   8.830  65.362  1.00  0.00    -0.085 C  
HETATM   15  C   UNL     1      -6.021   8.327  64.726  1.00  0.00    -0.048 C  
HETATM   16  O   UNL     1      -6.711  10.227  63.505  1.00  0.00    -0.135 OA 
HETATM   17  C   UNL     1      -5.543   9.521  63.936  1.00  0.00    -0.073 C  
HETATM   18  C   UNL     1      -7.821   9.797  64.306  1.00  0.00    -0.134 C  
ENDBRANCH  13  14
ENDBRANCH  10  13
ENDBRANCH   8   9
BRANCH   8  19
HETATM   19  C   UNL     1      -8.256   8.274  70.195  1.00  0.00    -0.118 C  
BRANCH  19  20
HETATM   20  C   UNL     1      -9.020   7.658  71.336  1.00  0.00    -0.144 A  
HETATM   21  C   UNL     1      -9.496   7.485  73.709  1.00  0.00    -0.330 A  
HETATM   22  C   UNL     1     -10.405   5.855  72.175  1.00  0.00    -0.241 A  
HETATM   23  C   UNL     1      -9.797   6.516  71.109  1.00  0.00    -0.198 A  
HETATM   24  C   UNL     1      -8.880   8.143  72.644  1.00  0.00    -0.285 A  
HETATM   25  C   UNL     1     -10.252   6.337  73.473  1.00  0.00    -0.250 A  
ENDBRANCH  19  20
ENDBRANCH   8  19
ENDBRANCH   7   8
BRANCH   7  26
HETATM   26  O   UNL     1     -10.957  10.627  68.689  1.00  0.00    -0.212 OA 
HETATM   27  O   UNL     1     -13.243  10.701  71.039  1.00  0.00    -0.332 OA 
HETATM   28  O   UNL     1     -11.872  12.267  70.040  1.00  0.00    -0.327 OA 
HETATM   29  O   UNL     1     -11.136  10.175  71.081  1.00  0.00    -0.291 OA 
HETATM   30  P   UNL     1     -12.163  10.666  69.930  1.00  0.00    -0.137 P  
ENDBRANCH   7  26
ENDBRANCH   6   7
ENDBRANCH   5   6
BRANCH   5  31
HETATM   31  S   UNL     1      -7.980  13.949  68.024  1.00  0.00    -0.171 S  
HETATM   32  O   UNL     1      -6.970  13.849  66.991  1.00  0.00    -0.014 OA 
HETATM   33  O   UNL     1      -7.553  13.958  69.408  1.00  0.00     0.063 OA 
BRANCH  31  34
HETATM   34  C   UNL     1      -8.782  15.485  67.744  1.00  0.00    -0.167 A  
HETATM   35  N   UNL     1     -10.952  19.005  67.118  1.00  0.00    -0.369 NA 
HETATM   36  C   UNL     1      -8.671  16.140  66.519  1.00  0.00    -0.337 A  
HETATM   37  H1  UNL     1     -11.537  19.389  67.860  1.00  0.00     0.000 HD 
HETATM   38  H2  UNL     1     -11.537  18.856  66.295  1.00  0.00     0.000 HD 
HETATM   39  C   UNL     1      -9.710  15.915  68.696  1.00  0.00    -0.207 A  
HETATM   40  C   UNL     1     -10.417  17.090  68.488  1.00  0.00    -0.373 A  
HETATM   41  C   UNL     1      -9.395  17.317  66.317  1.00  0.00    -0.248 A  
HETATM   42  C   UNL     1     -10.199  17.846  67.335  1.00  0.00    -0.360 A  
ENDBRANCH  31  34
ENDBRANCH   5  31
ENDBRANCH   4   5
TORSDOF 12
ENDMDL
MODEL      195
REMARK 921   NORMALIZED FREE ENERGY PREDICTED BY IDOCK:   -4.64 KCAL/MOL
REMARK 922        TOTAL FREE ENERGY PREDICTED BY IDOCK:  -10.70 KCAL/MOL
REMARK 923 INTER-LIGAND FREE ENERGY PREDICTED BY IDOCK:   -8.24 KCAL/MOL
REMARK 924 INTRA-LIGAND FREE ENERGY PREDICTED BY IDOCK:   -2.46 KCAL/MOL
REMARK 927      BINDING AFFINITY PREDICTED BY RF-SCORE:    0.00 PKD
ROOT
HETATM    1  C   UNL     1      -6.142   9.643  67.844  1.00  0.00    -0.052 C  
HETATM    2  C   UNL     1      -6.341  11.145  67.960  1.00  0.00    -0.053 C  
HETATM    3  C   UNL     1      -5.519  11.961  66.960  1.00  0.00    -0.119 C  
HETATM    4  C   UNL     1      -7.713  11.791  68.179  1.00  0.00    -0.124 C  
ENDROOT
BRANCH   4   5
HETATM    5  N   UNL     1      -9.042  11.335  67.675  1.00  0.00    -0.147 N  
BRANCH   5   6
HETATM    6  C   UNL     1     -10.064  11.599  68.821  1.00  0.00    -0.156 C  
BRANCH   6   7
HETATM    7  C   UNL     1     -10.715  10.308  69.499  1.00  0.00    -0.249 C  
BRANCH   7   8
HETATM    8  C   UNL     1     -10.094   8.955  68.891  1.00  0.00    -0.197 C  
BRANCH   8   9
HETATM    9  N   UNL     1      -9.819   7.938  69.921  1.00  0.00    -0.180 N  
HETATM   10  C   UNL     1      -8.702   8.014  70.714  1.00  0.00    -0.138 C  
HETATM   11  H   UNL     1     -10.471   7.164  70.047  1.00  0.00     0.000 HD 
HETATM   12  O   UNL     1      -7.879   8.914  70.704  1.00  0.00    -0.086 OA 
BRANCH  10  13
HETATM   13  O   UNL     1      -8.653   6.936  71.542  1.00  0.00    -0.122 OA 
BRANCH  13  14
HETATM   14  C   UNL     1      -7.423   6.189  71.493  1.00  0.00    -0.094 C  
HETATM   15  C   UNL     1      -7.260   5.205  72.630  1.00  0.00    -0.092 C  
HETATM   16  O   UNL     1      -6.728   4.064  70.632  1.00  0.00    -0.031 OA 
HETATM   17  C   UNL     1      -6.394   4.128  72.022  1.00  0.00    -0.018 C  
HETATM   18  C   UNL     1      -7.410   5.275  70.273  1.00  0.00    -0.067 C  
ENDBRANCH  13  14
ENDBRANCH  10  13
ENDBRANCH   8   9
BRANCH   8  19
HETATM   19  C   UNL     1     -10.810   8.326  67.672  1.00  0.00    -0.083 C  
BRANCH  19  20
HETATM   20  C   UNL     1     -10.078   7.258  66.904  1.00  0.00    -0.317 A  
HETATM   21  C   UNL     1      -9.699   4.919  66.381  1.00  0.00    -0.200 A  
HETATM   22  C   UNL     1      -8.167   6.601  65.568  1.00  0.00    -0.138 A  
HETATM   23  C   UNL     1      -8.932   7.595  66.175  1.00  0.00    -0.197 A  
HETATM   24  C   UNL     1     -10.461   5.912  66.997  1.00  0.00    -0.341 A  
HETATM   25  C   UNL     1      -8.548   5.264  65.673  1.00  0.00    -0.143 A  
ENDBRANCH  19  20
ENDBRANCH   8  19
ENDBRANCH   7   8
BRANCH   7  26
HETATM   26  O   UNL     1     -12.187  10.385  69.564  1.00  0.00    -0.155 OA 
HETATM   27  O   UNL     1     -13.625   9.599  72.403  1.00  0.00    -0.433 OA 
HETATM   28  O   UNL     1     -12.828  11.548  71.458  1.00  0.00    -0.410 OA 
HETATM   29  O   UNL     1     -11.562   9.469  71.738  1.00  0.00    -0.385 OA 
HETATM   30  P   UNL     1     -12.946   9.970  71.062  1.00  0.00    -0.273 P  
ENDBRANCH   7  26
ENDBRANCH   6   7
ENDBRANCH   5   6
BRANCH   5  31
HETATM   31  S   UNL     1      -9.753  11.685  66.162  1.00  0.00    -0.235 S  
HETATM   32  O   UNL     1     -11.081  11.109  66.113  1.00  0.00    -0.211 OA 
HETATM   33  O   UNL     1      -8.803  11.318  65.130  1.00  0.00    -0.110 OA 
BRANCH  31  34
HETATM   34  C   UNL     1      -9.991  13.418  66.019  1.00  0.00    -0.293 A  
HETATM   35  N   UNL     1     -10.513  17.519  65.386  1.00  0.00    -0.636 NA 
HETATM   36  C   UNL     1      -9.125  14.315  66.642  1.00  0.00    -0.249 A  
HETATM   37  H1  UNL     1     -11.278  17.858  64.802  1.00  0.00     0.000 HD 
HETATM   38  H2  UNL     1      -9.637  17.879  65.007  1.00  0.00     0.000 HD 
HETATM   39  C   UNL     1     -10.928  13.870  65.087  1.00  0.00    -0.352 A  
HETATM   40  C   UNL     1     -11.105  15.231  64.891  1.00  0.00    -0.435 A  
HETATM   41  C   UNL     1      -9.306  15.684  66.430  1.00  0.00    -0.332 A  
HETATM   42  C   UNL     1     -10.356  16.150  65.628  1.00  0.00    -0.382 A  
ENDBRANCH  31  34
ENDBRANCH   5  31
ENDBRANCH   4   5
TORSDOF 12
ENDMDL
MODEL      196
REMARK 921   NORMALIZED FREE ENERGY PREDICTED BY IDOCK:   -4.62 KCAL/MOL
REMARK 922        TOTAL FREE ENERGY PREDICTED BY IDOCK:  -10.67 KCAL/MOL
REMARK 923 INTER-LIGAND FREE ENERGY PREDICTED BY IDOCK:   -7.68 KCAL/MOL
REMARK 924 INTRA-LIGAND FREE ENERGY PREDICTED BY IDOCK:   -2.99 KCAL/MOL
REMARK 927      BINDING AFFINITY PREDICTED BY RF-SCORE:    0.00 PKD
ROOT
HETATM    1  C   UNL     1      -6.113   8.719  68.679  1.00  0.00    -0.045 C  
HETATM    2  C   UNL     1      -7.111   9.627  69.378  1.00  0.00    -0.062 C  
HETATM    3  C   UNL     1      -6.877   9.769  70.884  1.00  0.00    -0.014 C  
HETATM    4  C   UNL     1      -7.590  10.956  68.783  1.00  0.00    -0.121 C  
ENDROOT
BRANCH   4   5
HETATM    5  N   UNL     1      -6.827  11.918  67.934  1.00  0.00    -0.077 N  
BRANCH   5   6
HETATM    6  C   UNL     1      -7.606  12.037  66.590  1.00  0.00     0.098 C  
BRANCH   6   7
HETATM    7  C   UNL     1      -7.986  10.664  65.870  1.00  0.00    -0.157 C  
BRANCH   7   8
HETATM    8  C   UNL     1      -9.354  10.057  66.458  1.00  0.00    -0.162 C  
BRANCH   8   9
HETATM    9  N   UNL     1     -10.540  10.846  66.078  1.00  0.00    -0.224 N  
HETATM   10  C   UNL     1     -11.189  11.638  66.991  1.00  0.00    -0.314 C  
HETATM   11  H   UNL     1     -10.884  10.803  65.119  1.00  0.00     0.000 HD 
HETATM   12  O   UNL     1     -10.848  11.823  68.147  1.00  0.00    -0.197 OA 
BRANCH  10  13
HETATM   13  O   UNL     1     -12.274  12.216  66.408  1.00  0.00    -0.592 OA 
BRANCH  13  14
HETATM   14  C   UNL     1     -12.126  13.613  66.100  1.00  0.00    -0.436 C  
HETATM   15  C   UNL     1     -10.806  13.959  65.449  1.00  0.00    -0.321 C  
HETATM   16  O   UNL     1     -12.505  15.009  64.189  1.00  0.00    -0.756 OA 
HETATM   17  C   UNL     1     -11.147  15.169  64.613  1.00  0.00    -0.324 C  
HETATM   18  C   UNL     1     -13.129  14.026  65.029  1.00  0.00     0.033 C  
ENDBRANCH  13  14
ENDBRANCH  10  13
ENDBRANCH   8   9
BRANCH   8  19
HETATM   19  C   UNL     1      -9.611   8.545  66.256  1.00  0.00    -0.306 C  
BRANCH  19  20
HETATM   20  C   UNL     1      -9.647   7.670  67.481  1.00  0.00    -0.178 A  
HETATM   21  C   UNL     1      -9.186   5.557  68.580  1.00  0.00    -0.133 A  
HETATM   22  C   UNL     1     -10.545   7.220  69.685  1.00  0.00    -0.246 A  
HETATM   23  C   UNL     1     -10.391   8.074  68.595  1.00  0.00    -0.224 A  
HETATM   24  C   UNL     1      -9.038   6.408  67.483  1.00  0.00    -0.114 A  
HETATM   25  C   UNL     1      -9.946   5.962  69.676  1.00  0.00    -0.234 A  
ENDBRANCH  19  20
ENDBRANCH   8  19
ENDBRANCH   7   8
BRANCH   7  26
HETATM   26  O   UNL     1      -6.842   9.737  65.778  1.00  0.00    -0.089 OA 
HETATM   27  O   UNL     1      -5.731   8.987  62.786  1.00  0.00    -0.084 OA 
HETATM   28  O   UNL     1      -5.240  10.608  64.354  1.00  0.00    -0.144 OA 
HETATM   29  O   UNL     1      -7.463  10.116  63.449  1.00  0.00    -0.145 OA 
HETATM   30  P   UNL     1      -6.256   9.342  64.199  1.00  0.00    -0.091 P  
ENDBRANCH   7  26
ENDBRANCH   6   7
ENDBRANCH   5   6
BRANCH   5  31
HETATM   31  S   UNL     1      -6.214  13.445  68.394  1.00  0.00    -0.100 S  
HETATM   32  O   UNL     1      -5.163  13.834  67.477  1.00  0.00    -0.324 OA 
HETATM   33  O   UNL     1      -5.908  13.392  69.810  1.00  0.00    -0.103 OA 
BRANCH  31  34
HETATM   34  C   UNL     1      -7.470  14.656  68.206  1.00  0.00    -0.117 A  
HETATM   35  N   UNL     1     -10.652  17.321  67.699  1.00  0.00    -0.364 NA 
HETATM   36  C   UNL     1      -7.394  15.619  67.200  1.00  0.00    -0.247 A  
HETATM   37  H1  UNL     1     -11.463  17.281  68.317  1.00  0.00     0.000 HD 
HETATM   38  H2  UNL     1     -10.979  17.222  66.737  1.00  0.00     0.000 HD 
HETATM   39  C   UNL     1      -8.647  14.491  68.940  1.00  0.00    -0.103 A  
HETATM   40  C   UNL     1      -9.693  15.385  68.776  1.00  0.00    -0.210 A  
HETATM   41  C   UNL     1      -8.458  16.509  67.038  1.00  0.00    -0.225 A  
HETATM   42  C   UNL     1      -9.571  16.454  67.887  1.00  0.00    -0.228 A  
ENDBRANCH  31  34
ENDBRANCH   5  31
ENDBRANCH   4   5
TORSDOF 12
ENDMDL
MODEL      197
REMARK 921   NORMALIZED FREE ENERGY PREDICTED BY IDOCK:   -4.62 KCAL/MOL
REMARK 922        TOTAL FREE ENERGY PREDICTED BY IDOCK:  -10.66 KCAL/MOL
REMARK 923 INTER-LIGAND FREE ENERGY PREDICTED BY IDOCK:   -9.20 KCAL/MOL
REMARK 924 INTRA-LIGAND FREE ENERGY PREDICTED BY IDOCK:   -1.47 KCAL/MOL
REMARK 927      BINDING AFFINITY PREDICTED BY RF-SCORE:    0.00 PKD
ROOT
HETATM    1  C   UNL     1      -8.148  16.260  66.375  1.00  0.00    -0.334 C  
HETATM    2  C   UNL     1      -7.900  15.968  67.846  1.00  0.00    -0.148 C  
HETATM    3  C   UNL     1      -7.781  17.220  68.718  1.00  0.00    -0.261 C  
HETATM    4  C   UNL     1      -8.622  14.852  68.608  1.00  0.00    -0.168 C  
ENDROOT
BRANCH   4   5
HETATM    5  N   UNL     1     -10.014  14.350  68.417  1.00  0.00    -0.235 N  
BRANCH   5   6
HETATM    6  C   UNL     1     -10.105  12.995  69.180  1.00  0.00     0.319 C  
BRANCH   6   7
HETATM    7  C   UNL     1      -9.295  11.772  68.550  1.00  0.00    -0.156 C  
BRANCH   7   8
HETATM    8  C   UNL     1     -10.224  10.905  67.564  1.00  0.00    -0.190 C  
BRANCH   8   9
HETATM    9  N   UNL     1     -10.484   9.546  68.071  1.00  0.00    -0.219 N  
HETATM   10  C   UNL     1     -10.264   8.441  67.289  1.00  0.00    -0.279 C  
HETATM   11  H   UNL     1     -10.834   9.425  69.022  1.00  0.00     0.000 HD 
HETATM   12  O   UNL     1      -9.795   8.445  66.163  1.00  0.00    -0.221 OA 
BRANCH  10  13
HETATM   13  O   UNL     1     -10.629   7.318  67.965  1.00  0.00    -0.208 OA 
BRANCH  13  14
HETATM   14  C   UNL     1      -9.639   6.274  67.988  1.00  0.00    -0.115 C  
HETATM   15  C   UNL     1      -9.426   5.662  69.353  1.00  0.00    -0.169 C  
HETATM   16  O   UNL     1      -9.648   3.884  67.814  1.00  0.00    -0.182 OA 
HETATM   17  C   UNL     1      -8.986   4.255  69.028  1.00  0.00    -0.108 C  
HETATM   18  C   UNL     1     -10.116   5.079  67.171  1.00  0.00    -0.199 C  
ENDBRANCH  13  14
ENDBRANCH  10  13
ENDBRANCH   8   9
BRANCH   8  19
HETATM   19  C   UNL     1     -11.528  11.561  67.051  1.00  0.00    -0.290 C  
BRANCH  19  20
HETATM   20  C   UNL     1     -11.511  12.171  65.675  1.00  0.00    -0.408 A  
HETATM   21  C   UNL     1     -12.325  13.810  64.082  1.00  0.00    -0.382 A  
HETATM   22  C   UNL     1     -10.922  11.993  63.332  1.00  0.00    -0.475 A  
HETATM   23  C   UNL     1     -10.838  11.515  64.638  1.00  0.00    -0.372 A  
HETATM   24  C   UNL     1     -12.250  13.327  65.389  1.00  0.00    -0.501 A  
HETATM   25  C   UNL     1     -11.667  13.137  63.053  1.00  0.00     0.244 A  
ENDBRANCH  19  20
ENDBRANCH   8  19
ENDBRANCH   7   8
BRANCH   7  26
HETATM   26  O   UNL     1      -8.528  11.020  69.561  1.00  0.00     0.069 OA 
HETATM   27  O   UNL     1      -5.377  10.384  68.913  1.00  0.00    -0.042 OA 
HETATM   28  O   UNL     1      -6.518  12.088  69.973  1.00  0.00    -0.102 OA 
HETATM   29  O   UNL     1      -6.957  11.261  67.709  1.00  0.00    -0.071 OA 
HETATM   30  P   UNL     1      -6.865  10.685  69.219  1.00  0.00    -0.113 P  
ENDBRANCH   7  26
ENDBRANCH   6   7
ENDBRANCH   5   6
BRANCH   5  31
HETATM   31  S   UNL     1     -11.468  15.228  68.603  1.00  0.00    -0.351 S  
HETATM   32  O   UNL     1     -12.528  14.556  67.881  1.00  0.00    -0.072 OA 
HETATM   33  O   UNL     1     -11.190  16.615  68.290  1.00  0.00    -0.349 OA 
BRANCH  31  34
HETATM   34  C   UNL     1     -11.956  15.191  70.289  1.00  0.00    -0.319 A  
HETATM   35  N   UNL     1     -12.831  15.112  74.377  1.00  0.00    -0.503 NA 
HETATM   36  C   UNL     1     -12.640  14.096  70.814  1.00  0.00    -0.432 A  
HETATM   37  H1  UNL     1     -12.567  15.893  74.977  1.00  0.00     0.000 HD 
HETATM   38  H2  UNL     1     -12.415  14.262  74.759  1.00  0.00     0.000 HD 
HETATM   39  C   UNL     1     -11.446  16.179  71.134  1.00  0.00    -0.433 A  
HETATM   40  C   UNL     1     -11.750  16.154  72.487  1.00  0.00    -0.525 A  
HETATM   41  C   UNL     1     -12.933  14.077  72.179  1.00  0.00    -0.458 A  
HETATM   42  C   UNL     1     -12.570  15.150  73.004  1.00  0.00    -0.438 A  
ENDBRANCH  31  34
ENDBRANCH   5  31
ENDBRANCH   4   5
TORSDOF 12
ENDMDL
MODEL      198
REMARK 921   NORMALIZED FREE ENERGY PREDICTED BY IDOCK:   -4.61 KCAL/MOL
REMARK 922        TOTAL FREE ENERGY PREDICTED BY IDOCK:  -10.65 KCAL/MOL
REMARK 923 INTER-LIGAND FREE ENERGY PREDICTED BY IDOCK:   -7.73 KCAL/MOL
REMARK 924 INTRA-LIGAND FREE ENERGY PREDICTED BY IDOCK:   -2.92 KCAL/MOL
REMARK 927      BINDING AFFINITY PREDICTED BY RF-SCORE:    0.00 PKD
ROOT
HETATM    1  C   UNL     1     -12.189  13.595  70.615  1.00  0.00    -0.434 C  
HETATM    2  C   UNL     1     -12.148  13.871  69.121  1.00  0.00    -0.377 C  
HETATM    3  C   UNL     1     -12.031  15.355  68.764  1.00  0.00    -0.278 C  
HETATM    4  C   UNL     1     -11.341  13.018  68.137  1.00  0.00    -0.294 C  
ENDROOT
BRANCH   4   5
HETATM    5  N   UNL     1     -10.041  12.322  68.364  1.00  0.00    -0.218 N  
BRANCH   5   6
HETATM    6  C   UNL     1     -10.227  10.860  67.858  1.00  0.00    -0.179 C  
BRANCH   6   7
HETATM    7  C   UNL     1      -9.806   9.701  68.873  1.00  0.00    -0.174 C  
BRANCH   7   8
HETATM    8  C   UNL     1      -8.460   8.966  68.391  1.00  0.00    -0.129 C  
BRANCH   8   9
HETATM    9  N   UNL     1      -8.235   9.079  66.939  1.00  0.00    -0.115 N  
HETATM   10  C   UNL     1      -8.786   8.180  66.062  1.00  0.00    -0.172 C  
HETATM   11  H   UNL     1      -7.659   9.841  66.580  1.00  0.00     0.000 HD 
HETATM   12  O   UNL     1      -9.537   7.265  66.355  1.00  0.00    -0.172 OA 
BRANCH  10  13
HETATM   13  O   UNL     1      -8.387   8.472  64.794  1.00  0.00    -0.160 OA 
BRANCH  13  14
HETATM   14  C   UNL     1      -8.538   9.851  64.412  1.00  0.00    -0.185 C  
HETATM   15  C   UNL     1      -8.212  10.123  62.961  1.00  0.00    -0.158 C  
HETATM   16  O   UNL     1     -10.265  11.191  63.431  1.00  0.00    -0.341 OA 
HETATM   17  C   UNL     1      -9.080  11.315  62.638  1.00  0.00    -0.283 C  
HETATM   18  C   UNL     1     -10.004  10.263  64.494  1.00  0.00    -0.289 C  
ENDBRANCH  13  14
ENDBRANCH  10  13
ENDBRANCH   8   9
BRANCH   8  19
HETATM   19  C   UNL     1      -7.161   9.267  69.175  1.00  0.00    -0.067 C  
BRANCH  19  20
HETATM   20  C   UNL     1      -6.912   8.493  70.442  1.00  0.00    -0.038 A  
HETATM   21  C   UNL     1      -7.373   6.596  71.882  1.00  0.00    -0.086 A  
HETATM   22  C   UNL     1      -6.029   8.430  72.697  1.00  0.00    -0.070 A  
HETATM   23  C   UNL     1      -6.160   9.074  71.469  1.00  0.00    -0.070 A  
HETATM   24  C   UNL     1      -7.512   7.244  70.654  1.00  0.00    -0.079 A  
HETATM   25  C   UNL     1      -6.638   7.193  72.905  1.00  0.00    -0.064 A  
ENDBRANCH  19  20
ENDBRANCH   8  19
ENDBRANCH   7   8
BRANCH   7  26
HETATM   26  O   UNL     1     -10.939   8.829  69.236  1.00  0.00    -0.132 OA 
HETATM   27  O   UNL     1     -11.642   8.498  72.421  1.00  0.00    -0.372 OA 
HETATM   28  O   UNL     1     -12.321   9.921  70.735  1.00  0.00    -0.295 OA 
HETATM   29  O   UNL     1     -10.002   9.481  71.392  1.00  0.00    -0.225 OA 
HETATM   30  P   UNL     1     -11.310   8.655  70.917  1.00  0.00    -0.265 P  
ENDBRANCH   7  26
ENDBRANCH   6   7
ENDBRANCH   5   6
BRANCH   5  31
HETATM   31  S   UNL     1      -8.479  12.887  67.966  1.00  0.00    -0.186 S  
HETATM   32  O   UNL     1      -8.045  12.265  66.732  1.00  0.00    -0.132 OA 
HETATM   33  O   UNL     1      -7.643  12.744  69.142  1.00  0.00     0.074 OA 
BRANCH  31  34
HETATM   34  C   UNL     1      -8.554  14.606  67.621  1.00  0.00    -0.176 A  
HETATM   35  N   UNL     1      -8.932  18.727  67.017  1.00  0.00    -0.284 NA 
HETATM   36  C   UNL     1      -9.006  15.071  66.387  1.00  0.00    -0.286 A  
HETATM   37  H1  UNL     1      -8.676  19.383  67.755  1.00  0.00     0.000 HD 
HETATM   38  H2  UNL     1      -9.902  18.905  66.754  1.00  0.00     0.000 HD 
HETATM   39  C   UNL     1      -8.366  15.491  68.685  1.00  0.00    -0.172 A  
HETATM   40  C   UNL     1      -8.480  16.857  68.475  1.00  0.00    -0.258 A  
HETATM   41  C   UNL     1      -9.127  16.449  66.190  1.00  0.00    -0.362 A  
HETATM   42  C   UNL     1      -8.775  17.350  67.203  1.00  0.00    -0.227 A  
ENDBRANCH  31  34
ENDBRANCH   5  31
ENDBRANCH   4   5
TORSDOF 12
ENDMDL
MODEL      199
REMARK 921   NORMALIZED FREE ENERGY PREDICTED BY IDOCK:   -4.60 KCAL/MOL
REMARK 922        TOTAL FREE ENERGY PREDICTED BY IDOCK:  -10.62 KCAL/MOL
REMARK 923 INTER-LIGAND FREE ENERGY PREDICTED BY IDOCK:   -7.13 KCAL/MOL
REMARK 924 INTRA-LIGAND FREE ENERGY PREDICTED BY IDOCK:   -3.49 KCAL/MOL
REMARK 927      BINDING AFFINITY PREDICTED BY RF-SCORE:    0.00 PKD
ROOT
HETATM    1  C   UNL     1     -12.828  11.323  71.059  1.00  0.00    -0.395 C  
HETATM    2  C   UNL     1     -12.121  10.914  69.776  1.00  0.00    -0.409 C  
HETATM    3  C   UNL     1     -11.192  11.989  69.207  1.00  0.00    -0.291 C  
HETATM    4  C   UNL     1     -11.523   9.520  69.561  1.00  0.00     0.104 C  
ENDROOT
BRANCH   4   5
HETATM    5  N   UNL     1     -10.896   8.616  70.569  1.00  0.00    -0.224 N  
BRANCH   5   6
HETATM    6  C   UNL     1      -9.745   9.427  71.236  1.00  0.00    -0.139 C  
BRANCH   6   7
HETATM    7  C   UNL     1      -8.268   8.852  71.040  1.00  0.00    -0.179 C  
BRANCH   7   8
HETATM    8  C   UNL     1      -7.840   8.865  69.490  1.00  0.00    -0.094 C  
BRANCH   8   9
HETATM    9  N   UNL     1      -8.216   7.629  68.782  1.00  0.00    -0.127 N  
HETATM   10  C   UNL     1      -7.292   6.648  68.525  1.00  0.00    -0.087 C  
HETATM   11  H   UNL     1      -9.181   7.500  68.478  1.00  0.00     0.000 HD 
HETATM   12  O   UNL     1      -6.126   6.653  68.883  1.00  0.00    -0.024 OA 
BRANCH  10  13
HETATM   13  O   UNL     1      -7.874   5.642  67.818  1.00  0.00    -0.096 OA 
BRANCH  13  14
HETATM   14  C   UNL     1      -8.354   6.015  66.514  1.00  0.00    -0.113 C  
HETATM   15  C   UNL     1      -7.364   5.756  65.401  1.00  0.00    -0.076 C  
HETATM   16  O   UNL     1      -9.449   4.903  64.695  1.00  0.00    -0.060 OA 
HETATM   17  C   UNL     1      -8.253   5.518  64.205  1.00  0.00    -0.124 C  
HETATM   18  C   UNL     1      -9.527   5.128  66.111  1.00  0.00    -0.159 C  
ENDBRANCH  13  14
ENDBRANCH  10  13
ENDBRANCH   8   9
BRANCH   8  19
HETATM   19  C   UNL     1      -8.214  10.114  68.657  1.00  0.00    -0.111 C  
BRANCH  19  20
HETATM   20  C   UNL     1      -8.313   9.955  67.163  1.00  0.00    -0.121 A  
HETATM   21  C   UNL     1      -9.638   9.614  65.160  1.00  0.00    -0.324 A  
HETATM   22  C   UNL     1      -7.228   9.483  65.049  1.00  0.00    -0.110 A  
HETATM   23  C   UNL     1      -7.148   9.763  66.411  1.00  0.00    -0.094 A  
HETATM   24  C   UNL     1      -9.559   9.886  66.526  1.00  0.00    -0.243 A  
HETATM   25  C   UNL     1      -8.472   9.405  64.424  1.00  0.00    -0.196 A  
ENDBRANCH  19  20
ENDBRANCH   8  19
ENDBRANCH   7   8
BRANCH   7  26
HETATM   26  O   UNL     1      -8.051   7.589  71.772  1.00  0.00    -0.098 OA 
HETATM   27  O   UNL     1      -6.049   7.662  74.367  1.00  0.00    -0.082 OA 
HETATM   28  O   UNL     1      -8.317   7.944  74.042  1.00  0.00    -0.210 OA 
HETATM   29  O   UNL     1      -6.540   9.158  72.872  1.00  0.00    -0.315 OA 
HETATM   30  P   UNL     1      -6.995   7.628  73.141  1.00  0.00    -0.083 P  
ENDBRANCH   7  26
ENDBRANCH   6   7
ENDBRANCH   5   6
BRANCH   5  31
HETATM   31  S   UNL     1     -11.690   7.654  71.736  1.00  0.00    -0.296 S  
HETATM   32  O   UNL     1     -13.077   7.488  71.354  1.00  0.00    -0.351 OA 
HETATM   33  O   UNL     1     -11.397   8.210  73.042  1.00  0.00    -0.336 OA 
BRANCH  31  34
HETATM   34  C   UNL     1     -11.005   6.039  71.722  1.00  0.00    -0.269 A  
HETATM   35  N   UNL     1      -9.171   2.284  71.886  1.00  0.00    -0.085 NA 
HETATM   36  C   UNL     1     -10.451   5.504  70.560  1.00  0.00    -0.347 A  
HETATM   37  H1  UNL     1      -9.148   1.758  72.759  1.00  0.00     0.000 HD 
HETATM   38  H2  UNL     1      -8.211   2.403  71.560  1.00  0.00     0.000 HD 
HETATM   39  C   UNL     1     -10.826   5.398  72.951  1.00  0.00    -0.318 A  
HETATM   40  C   UNL     1     -10.229   4.148  72.997  1.00  0.00    -0.224 A  
HETATM   41  C   UNL     1      -9.844   4.248  70.620  1.00  0.00    -0.265 A  
HETATM   42  C   UNL     1      -9.813   3.525  71.819  1.00  0.00    -0.160 A  
ENDBRANCH  31  34
ENDBRANCH   5  31
ENDBRANCH   4   5
TORSDOF 12
ENDMDL
MODEL      200
REMARK 921   NORMALIZED FREE ENERGY PREDICTED BY IDOCK:   -4.56 KCAL/MOL
REMARK 922        TOTAL FREE ENERGY PREDICTED BY IDOCK:  -10.57 KCAL/MOL
REMARK 923 INTER-LIGAND FREE ENERGY PREDICTED BY IDOCK:   -7.28 KCAL/MOL
REMARK 924 INTRA-LIGAND FREE ENERGY PREDICTED BY IDOCK:   -3.28 KCAL/MOL
REMARK 927      BINDING AFFINITY PREDICTED BY RF-SCORE:    0.00 PKD
ROOT
HETATM    1  C   UNL     1     -12.473   9.511  71.706  1.00  0.00    -0.484 C  
HETATM    2  C   UNL     1     -11.089   8.965  71.393  1.00  0.00    -0.376 C  
HETATM    3  C   UNL     1     -11.063   7.462  71.103  1.00  0.00    -0.271 C  
HETATM    4  C   UNL     1     -10.084   9.700  70.499  1.00  0.00    -0.274 C  
ENDROOT
BRANCH   4   5
HETATM    5  N   UNL     1     -10.358  10.564  69.314  1.00  0.00    -0.217 N  
BRANCH   5   6
HETATM    6  C   UNL     1     -10.428   9.614  68.081  1.00  0.00    -0.222 C  
BRANCH   6   7
HETATM    7  C   UNL     1      -9.183   9.658  67.082  1.00  0.00    -0.134 C  
BRANCH   7   8
HETATM    8  C   UNL     1      -7.813   9.300  67.845  1.00  0.00    -0.092 C  
BRANCH   8   9
HETATM    9  N   UNL     1      -7.510   7.857  67.830  1.00  0.00    -0.102 N  
HETATM   10  C   UNL     1      -7.225   7.180  68.988  1.00  0.00    -0.086 C  
HETATM   11  H   UNL     1      -7.514   7.354  66.943  1.00  0.00     0.000 HD 
HETATM   12  O   UNL     1      -7.244   7.648  70.114  1.00  0.00    -0.065 OA 
BRANCH  10  13
HETATM   13  O   UNL     1      -6.932   5.882  68.700  1.00  0.00    -0.067 OA 
BRANCH  13  14
HETATM   14  C   UNL     1      -7.997   5.144  68.075  1.00  0.00    -0.091 C  
HETATM   15  C   UNL     1      -7.583   3.779  67.575  1.00  0.00    -0.067 C  
HETATM   16  O   UNL     1      -9.599   3.504  68.772  1.00  0.00    -0.159 OA 
HETATM   17  C   UNL     1      -8.864   2.985  67.660  1.00  0.00    -0.134 C  
HETATM   18  C   UNL     1      -9.070   4.797  69.102  1.00  0.00    -0.110 C  
ENDBRANCH  13  14
ENDBRANCH  10  13
ENDBRANCH   8   9
BRANCH   8  19
HETATM   19  C   UNL     1      -6.558  10.130  67.486  1.00  0.00    -0.068 C  
BRANCH  19  20
HETATM   20  C   UNL     1      -6.430  11.503  68.089  1.00  0.00    -0.053 A  
HETATM   21  C   UNL     1      -5.836  13.847  67.894  1.00  0.00    -0.132 A  
HETATM   22  C   UNL     1      -6.314  12.902  70.064  1.00  0.00     0.014 A  
HETATM   23  C   UNL     1      -6.560  11.664  69.473  1.00  0.00    -0.111 A  
HETATM   24  C   UNL     1      -6.073  12.606  67.301  1.00  0.00    -0.086 A  
HETATM   25  C   UNL     1      -5.950  13.991  69.276  1.00  0.00    -0.095 A  
ENDBRANCH  19  20
ENDBRANCH   8  19
ENDBRANCH   7   8
BRANCH   7  26
HETATM   26  O   UNL     1      -9.171  10.873  66.245  1.00  0.00    -0.167 OA 
HETATM   27  O   UNL     1      -9.187  10.475  62.991  1.00  0.00    -0.234 OA 
HETATM   28  O   UNL     1     -10.807  10.717  64.617  1.00  0.00    -0.216 OA 
HETATM   29  O   UNL     1      -9.007   9.055  64.625  1.00  0.00    -0.174 OA 
HETATM   30  P   UNL     1      -9.180  10.662  64.528  1.00  0.00    -0.249 P  
ENDBRANCH   7  26
ENDBRANCH   6   7
ENDBRANCH   5   6
BRANCH   5  31
HETATM   31  S   UNL     1     -11.536  11.793  69.177  1.00  0.00    -0.336 S  
HETATM   32  O   UNL     1     -11.666  12.475  70.448  1.00  0.00    -0.222 OA 
HETATM   33  O   UNL     1     -12.722  11.206  68.585  1.00  0.00    -0.035 OA 
BRANCH  31  34
HETATM   34  C   UNL     1     -10.974  13.014  68.048  1.00  0.00    -0.250 A  
HETATM   35  N   UNL     1      -9.648  16.118  65.580  1.00  0.00    -0.444 NA 
HETATM   36  C   UNL     1     -11.734  13.365  66.933  1.00  0.00    -0.434 A  
HETATM   37  H1  UNL     1      -8.769  16.597  65.779  1.00  0.00     0.000 HD 
HETATM   38  H2  UNL     1     -10.391  16.817  65.548  1.00  0.00     0.000 HD 
HETATM   39  C   UNL     1      -9.864  13.776  68.416  1.00  0.00    -0.227 A  
HETATM   40  C   UNL     1      -9.422  14.796  67.587  1.00  0.00    -0.204 A  
HETATM   41  C   UNL     1     -11.284  14.400  66.110  1.00  0.00    -0.336 A  
HETATM   42  C   UNL     1     -10.077  15.057  66.383  1.00  0.00    -0.276 A  
ENDBRANCH  31  34
ENDBRANCH   5  31
ENDBRANCH   4   5
TORSDOF 12
ENDMDL
MODEL      201
REMARK 921   NORMALIZED FREE ENERGY PREDICTED BY IDOCK:   -4.56 KCAL/MOL
REMARK 922        TOTAL FREE ENERGY PREDICTED BY IDOCK:  -10.56 KCAL/MOL
REMARK 923 INTER-LIGAND FREE ENERGY PREDICTED BY IDOCK:   -7.80 KCAL/MOL
REMARK 924 INTRA-LIGAND FREE ENERGY PREDICTED BY IDOCK:   -2.76 KCAL/MOL
REMARK 927      BINDING AFFINITY PREDICTED BY RF-SCORE:    0.00 PKD
ROOT
HETATM    1  C   UNL     1     -10.200  12.974  64.559  1.00  0.00    -0.331 C  
HETATM    2  C   UNL     1     -10.417  11.528  64.145  1.00  0.00    -0.408 C  
HETATM    3  C   UNL     1      -9.899  11.197  62.744  1.00  0.00    -0.261 C  
HETATM    4  C   UNL     1     -10.191  10.346  65.093  1.00  0.00    -0.256 C  
ENDROOT
BRANCH   4   5
HETATM    5  N   UNL     1      -9.182  10.214  66.184  1.00  0.00    -0.154 N  
BRANCH   5   6
HETATM    6  C   UNL     1      -9.860   9.388  67.318  1.00  0.00    -0.179 C  
BRANCH   6   7
HETATM    7  C   UNL     1     -10.013  10.118  68.730  1.00  0.00    -0.179 C  
BRANCH   7   8
HETATM    8  C   UNL     1      -9.305   9.273  69.901  1.00  0.00    -0.198 C  
BRANCH   8   9
HETATM    9  N   UNL     1     -10.267   8.736  70.880  1.00  0.00    -0.211 N  
HETATM   10  C   UNL     1      -9.926   8.582  72.200  1.00  0.00    -0.317 C  
HETATM   11  H   UNL     1     -11.203   8.475  70.571  1.00  0.00     0.000 HD 
HETATM   12  O   UNL     1      -8.866   8.908  72.707  1.00  0.00    -0.324 OA 
BRANCH  10  13
HETATM   13  O   UNL     1     -10.963   8.022  72.880  1.00  0.00    -0.378 OA 
BRANCH  13  14
HETATM   14  C   UNL     1     -10.740   6.672  73.324  1.00  0.00    -0.287 C  
HETATM   15  C   UNL     1     -11.279   5.621  72.380  1.00  0.00    -0.336 C  
HETATM   16  O   UNL     1      -9.078   4.986  72.952  1.00  0.00    -0.122 OA 
HETATM   17  C   UNL     1     -10.362   4.447  72.622  1.00  0.00    -0.186 C  
HETATM   18  C   UNL     1      -9.247   6.360  73.331  1.00  0.00    -0.131 C  
ENDBRANCH  13  14
ENDBRANCH  10  13
ENDBRANCH   8   9
BRANCH   8  19
HETATM   19  C   UNL     1      -8.281   8.191  69.483  1.00  0.00    -0.121 C  
BRANCH  19  20
HETATM   20  C   UNL     1      -8.775   6.777  69.342  1.00  0.00    -0.136 A  
HETATM   21  C   UNL     1      -8.405   4.385  69.508  1.00  0.00    -0.074 A  
HETATM   22  C   UNL     1     -10.395   5.224  68.427  1.00  0.00    -0.178 A  
HETATM   23  C   UNL     1      -9.986   6.532  68.685  1.00  0.00    -0.155 A  
HETATM   24  C   UNL     1      -7.990   5.693  69.759  1.00  0.00    -0.098 A  
HETATM   25  C   UNL     1      -9.604   4.152  68.835  1.00  0.00    -0.222 A  
ENDBRANCH  19  20
ENDBRANCH   8  19
ENDBRANCH   7   8
BRANCH   7  26
HETATM   26  O   UNL     1     -11.393  10.570  68.987  1.00  0.00    -0.249 OA 
HETATM   27  O   UNL     1     -12.032  13.768  68.653  1.00  0.00    -0.351 OA 
HETATM   28  O   UNL     1     -12.107  11.931  67.258  1.00  0.00    -0.582 OA 
HETATM   29  O   UNL     1     -10.174  12.645  68.584  1.00  0.00    -0.222 OA 
HETATM   30  P   UNL     1     -11.730  12.257  68.810  1.00  0.00    -0.303 P  
ENDBRANCH   7  26
ENDBRANCH   6   7
ENDBRANCH   5   6
BRANCH   5  31
HETATM   31  S   UNL     1      -7.541   9.762  66.030  1.00  0.00    -0.105 S  
HETATM   32  O   UNL     1      -6.808  10.219  67.192  1.00  0.00    -0.080 OA 
HETATM   33  O   UNL     1      -7.087  10.181  64.719  1.00  0.00    -0.137 OA 
BRANCH  31  34
HETATM   34  C   UNL     1      -7.416   8.011  66.059  1.00  0.00    -0.077 A  
HETATM   35  N   UNL     1      -6.849   3.868  66.003  1.00  0.00    -0.059 NA 
HETATM   36  C   UNL     1      -8.300   7.216  65.330  1.00  0.00    -0.122 A  
HETATM   37  H1  UNL     1      -6.087   3.444  66.533  1.00  0.00     0.000 HD 
HETATM   38  H2  UNL     1      -6.751   3.590  65.026  1.00  0.00     0.000 HD 
HETATM   39  C   UNL     1      -6.278   7.451  66.643  1.00  0.00    -0.044 A  
HETATM   40  C   UNL     1      -6.102   6.076  66.632  1.00  0.00    -0.025 A  
HETATM   41  C   UNL     1      -8.108   5.833  65.319  1.00  0.00    -0.130 A  
HETATM   42  C   UNL     1      -7.062   5.250  66.046  1.00  0.00    -0.068 A  
ENDBRANCH  31  34
ENDBRANCH   5  31
ENDBRANCH   4   5
TORSDOF 12
ENDMDL
MODEL      202
REMARK 921   NORMALIZED FREE ENERGY PREDICTED BY IDOCK:   -4.55 KCAL/MOL
REMARK 922        TOTAL FREE ENERGY PREDICTED BY IDOCK:  -10.55 KCAL/MOL
REMARK 923 INTER-LIGAND FREE ENERGY PREDICTED BY IDOCK:   -9.68 KCAL/MOL
REMARK 924 INTRA-LIGAND FREE ENERGY PREDICTED BY IDOCK:   -0.87 KCAL/MOL
REMARK 927      BINDING AFFINITY PREDICTED BY RF-SCORE:    0.00 PKD
ROOT
HETATM    1  C   UNL     1     -13.033  13.989  65.242  1.00  0.00    -0.315 C  
HETATM    2  C   UNL     1     -12.310  12.661  65.400  1.00  0.00    -0.499 C  
HETATM    3  C   UNL     1     -11.777  12.082  64.087  1.00  0.00    -0.457 C  
HETATM    4  C   UNL     1     -11.335  12.373  66.547  1.00  0.00    -0.340 C  
ENDROOT
BRANCH   4   5
HETATM    5  N   UNL     1     -10.411  13.319  67.237  1.00  0.00    -0.246 N  
BRANCH   5   6
HETATM    6  C   UNL     1      -9.557  12.466  68.223  1.00  0.00    -0.211 C  
BRANCH   6   7
HETATM    7  C   UNL     1     -10.313  11.265  68.954  1.00  0.00    -0.195 C  
BRANCH   7   8
HETATM    8  C   UNL     1      -9.806   9.840  68.408  1.00  0.00    -0.152 C  
BRANCH   8   9
HETATM    9  N   UNL     1      -9.256   9.914  67.042  1.00  0.00    -0.141 N  
HETATM   10  C   UNL     1      -9.572   8.971  66.098  1.00  0.00    -0.272 C  
HETATM   11  H   UNL     1      -8.630  10.680  66.795  1.00  0.00     0.000 HD 
HETATM   12  O   UNL     1     -10.349   8.043  66.246  1.00  0.00    -0.086 OA 
BRANCH  10  13
HETATM   13  O   UNL     1      -8.899   9.233  64.944  1.00  0.00    -0.187 OA 
BRANCH  13  14
HETATM   14  C   UNL     1      -8.004   8.192  64.513  1.00  0.00    -0.142 C  
HETATM   15  C   UNL     1      -7.741   8.189  63.025  1.00  0.00    -0.135 C  
HETATM   16  O   UNL     1      -5.651   7.998  64.107  1.00  0.00    -0.047 OA 
HETATM   17  C   UNL     1      -6.355   7.597  62.928  1.00  0.00    -0.063 C  
HETATM   18  C   UNL     1      -6.610   8.425  65.085  1.00  0.00    -0.063 C  
ENDBRANCH  13  14
ENDBRANCH  10  13
ENDBRANCH   8   9
BRANCH   8  19
HETATM   19  C   UNL     1      -8.882   9.009  69.330  1.00  0.00    -0.139 C  
BRANCH  19  20
HETATM   20  C   UNL     1      -9.311   7.609  69.675  1.00  0.00    -0.156 A  
HETATM   21  C   UNL     1      -8.782   5.273  70.061  1.00  0.00    -0.128 A  
HETATM   22  C   UNL     1     -11.086   5.973  69.881  1.00  0.00    -0.469 A  
HETATM   23  C   UNL     1     -10.674   7.291  69.695  1.00  0.00    -0.249 A  
HETATM   24  C   UNL     1      -8.367   6.591  69.867  1.00  0.00    -0.131 A  
HETATM   25  C   UNL     1     -10.141   4.964  70.060  1.00  0.00    -0.337 A  
ENDBRANCH  19  20
ENDBRANCH   8  19
ENDBRANCH   7   8
BRANCH   7  26
HETATM   26  O   UNL     1     -11.773  11.466  69.011  1.00  0.00    -0.286 OA 
HETATM   27  O   UNL     1     -13.321  10.588  71.765  1.00  0.00    -0.394 OA 
HETATM   28  O   UNL     1     -12.342  12.528  70.986  1.00  0.00    -0.351 OA 
HETATM   29  O   UNL     1     -11.267  10.330  71.110  1.00  0.00    -0.277 OA 
HETATM   30  P   UNL     1     -12.590  11.003  70.464  1.00  0.00    -0.232 P  
ENDBRANCH   7  26
ENDBRANCH   6   7
ENDBRANCH   5   6
BRANCH   5  31
HETATM   31  S   UNL     1      -9.443  14.531  66.519  1.00  0.00    -0.286 S  
HETATM   32  O   UNL     1      -9.794  14.657  65.120  1.00  0.00    -0.303 OA 
HETATM   33  O   UNL     1      -8.062  14.256  66.862  1.00  0.00    -0.112 OA 
BRANCH  31  34
HETATM   34  C   UNL     1      -9.830  16.085  67.239  1.00  0.00    -0.236 A  
HETATM   35  N   UNL     1     -10.502  19.892  68.833  1.00  0.00    -0.544 NA 
HETATM   36  C   UNL     1      -9.901  16.237  68.623  1.00  0.00    -0.230 A  
HETATM   37  H1  UNL     1     -10.634  20.694  68.216  1.00  0.00     0.000 HD 
HETATM   38  H2  UNL     1      -9.725  20.098  69.461  1.00  0.00     0.000 HD 
HETATM   39  C   UNL     1      -9.840  17.203  66.402  1.00  0.00    -0.312 A  
HETATM   40  C   UNL     1     -10.076  18.461  66.935  1.00  0.00    -0.385 A  
HETATM   41  C   UNL     1     -10.130  17.510  69.149  1.00  0.00    -0.231 A  
HETATM   42  C   UNL     1     -10.311  18.612  68.303  1.00  0.00    -0.344 A  
ENDBRANCH  31  34
ENDBRANCH   5  31
ENDBRANCH   4   5
TORSDOF 12
ENDMDL
MODEL      203
REMARK 921   NORMALIZED FREE ENERGY PREDICTED BY IDOCK:   -4.49 KCAL/MOL
REMARK 922        TOTAL FREE ENERGY PREDICTED BY IDOCK:  -10.44 KCAL/MOL
REMARK 923 INTER-LIGAND FREE ENERGY PREDICTED BY IDOCK:   -9.99 KCAL/MOL
REMARK 924 INTRA-LIGAND FREE ENERGY PREDICTED BY IDOCK:   -0.45 KCAL/MOL
REMARK 927      BINDING AFFINITY PREDICTED BY RF-SCORE:    0.00 PKD
ROOT
HETATM    1  C   UNL     1      -5.689  19.763  67.497  1.00  0.00    -0.187 C  
HETATM    2  C   UNL     1      -6.861  19.299  66.647  1.00  0.00    -0.203 C  
HETATM    3  C   UNL     1      -6.519  19.105  65.168  1.00  0.00    -0.286 C  
HETATM    4  C   UNL     1      -7.858  18.233  67.111  1.00  0.00    -0.219 C  
ENDROOT
BRANCH   4   5
HETATM    5  N   UNL     1      -7.606  17.043  67.976  1.00  0.00    -0.177 N  
BRANCH   5   6
HETATM    6  C   UNL     1      -8.963  16.694  68.656  1.00  0.00    -0.246 C  
BRANCH   6   7
HETATM    7  C   UNL     1     -10.105  16.117  67.701  1.00  0.00    -0.248 C  
BRANCH   7   8
HETATM    8  C   UNL     1     -10.731  14.760  68.295  1.00  0.00    -0.242 C  
BRANCH   8   9
HETATM    9  N   UNL     1     -10.375  13.570  67.502  1.00  0.00    -0.236 N  
HETATM   10  C   UNL     1     -11.245  12.517  67.371  1.00  0.00    -0.293 C  
HETATM   11  H   UNL     1      -9.465  13.528  67.042  1.00  0.00     0.000 HD 
HETATM   12  O   UNL     1     -12.378  12.467  67.819  1.00  0.00    -0.281 OA 
BRANCH  10  13
HETATM   13  O   UNL     1     -10.662  11.529  66.639  1.00  0.00    -0.245 OA 
BRANCH  13  14
HETATM   14  C   UNL     1     -10.092  11.955  65.389  1.00  0.00    -0.253 C  
HETATM   15  C   UNL     1      -9.553  10.822  64.545  1.00  0.00    -0.322 C  
HETATM   16  O   UNL     1     -10.862  12.188  63.132  1.00  0.00    -0.366 OA 
HETATM   17  C   UNL     1      -9.704  11.348  63.138  1.00  0.00    -0.393 C  
HETATM   18  C   UNL     1     -11.175  12.538  64.488  1.00  0.00    -0.325 C  
ENDBRANCH  13  14
ENDBRANCH  10  13
ENDBRANCH   8   9
BRANCH   8  19
HETATM   19  C   UNL     1     -10.545  14.491  69.807  1.00  0.00    -0.013 C  
BRANCH  19  20
HETATM   20  C   UNL     1     -11.636  14.945  70.740  1.00  0.00    -0.345 A  
HETATM   21  C   UNL     1     -12.348  16.099  72.751  1.00  0.00    -0.585 A  
HETATM   22  C   UNL     1     -13.920  14.740  71.520  1.00  0.00    -0.548 A  
HETATM   23  C   UNL     1     -12.930  14.434  70.589  1.00  0.00    -0.348 A  
HETATM   24  C   UNL     1     -11.353  15.787  71.825  1.00  0.00    -0.393 A  
HETATM   25  C   UNL     1     -13.629  15.568  72.602  1.00  0.00    -0.657 A  
ENDBRANCH  19  20
ENDBRANCH   8  19
ENDBRANCH   7   8
BRANCH   7  26
HETATM   26  O   UNL     1      -9.695  16.086  66.284  1.00  0.00    -0.263 OA 
HETATM   27  O   UNL     1     -12.065  16.031  64.018  1.00  0.00    -0.810 OA 
HETATM   28  O   UNL     1     -10.868  17.686  65.094  1.00  0.00    -0.664 OA 
HETATM   29  O   UNL     1     -12.126  15.888  66.184  1.00  0.00     0.897 OA 
HETATM   30  P   UNL     1     -10.946  16.057  65.089  1.00  0.00    -0.177 P  
ENDBRANCH   7  26
ENDBRANCH   6   7
ENDBRANCH   5   6
BRANCH   5  31
HETATM   31  S   UNL     1      -6.775  15.611  67.553  1.00  0.00    -0.189 S  
HETATM   32  O   UNL     1      -5.568  15.954  66.831  1.00  0.00    -0.290 OA 
HETATM   33  O   UNL     1      -7.726  14.718  66.921  1.00  0.00    -0.091 OA 
BRANCH  31  34
HETATM   34  C   UNL     1      -6.232  14.802  69.012  1.00  0.00    -0.094 A  
HETATM   35  N   UNL     1      -5.217  12.779  72.529  1.00  0.00    -0.371 NA 
HETATM   36  C   UNL     1      -5.727  15.528  70.090  1.00  0.00    -0.146 A  
HETATM   37  H1  UNL     1      -5.317  11.766  72.589  1.00  0.00     0.000 HD 
HETATM   38  H2  UNL     1      -5.759  13.198  73.285  1.00  0.00     0.000 HD 
HETATM   39  C   UNL     1      -6.529  13.444  69.151  1.00  0.00    -0.105 A  
HETATM   40  C   UNL     1      -6.178  12.776  70.314  1.00  0.00     0.020 A  
HETATM   41  C   UNL     1      -5.386  14.846  71.260  1.00  0.00    -0.108 A  
HETATM   42  C   UNL     1      -5.524  13.455  71.343  1.00  0.00    -0.187 A  
ENDBRANCH  31  34
ENDBRANCH   5  31
ENDBRANCH   4   5
TORSDOF 12
ENDMDL
MODEL      204
REMARK 921   NORMALIZED FREE ENERGY PREDICTED BY IDOCK:   -4.48 KCAL/MOL
REMARK 922        TOTAL FREE ENERGY PREDICTED BY IDOCK:  -10.43 KCAL/MOL
REMARK 923 INTER-LIGAND FREE ENERGY PREDICTED BY IDOCK:   -7.87 KCAL/MOL
REMARK 924 INTRA-LIGAND FREE ENERGY PREDICTED BY IDOCK:   -2.56 KCAL/MOL
REMARK 927      BINDING AFFINITY PREDICTED BY RF-SCORE:    0.00 PKD
ROOT
HETATM    1  C   UNL     1     -12.310  13.269  65.850  1.00  0.00    -0.479 C  
HETATM    2  C   UNL     1     -11.608  12.138  65.117  1.00  0.00    -0.372 C  
HETATM    3  C   UNL     1     -10.896  12.573  63.834  1.00  0.00    -0.472 C  
HETATM    4  C   UNL     1     -10.798  11.053  65.837  1.00  0.00    -0.115 C  
ENDROOT
BRANCH   4   5
HETATM    5  N   UNL     1      -9.983  11.178  67.080  1.00  0.00    -0.183 N  
BRANCH   5   6
HETATM    6  C   UNL     1      -9.573   9.731  67.488  1.00  0.00    -0.150 C  
BRANCH   6   7
HETATM    7  C   UNL     1     -10.152   9.198  68.878  1.00  0.00    -0.197 C  
BRANCH   7   8
HETATM    8  C   UNL     1      -9.766   7.654  69.114  1.00  0.00    -0.164 C  
BRANCH   8   9
HETATM    9  N   UNL     1      -8.708   7.478  70.125  1.00  0.00    -0.141 N  
HETATM   10  C   UNL     1      -7.409   7.235  69.758  1.00  0.00    -0.084 C  
HETATM   11  H   UNL     1      -8.946   7.537  71.115  1.00  0.00     0.000 HD 
HETATM   12  O   UNL     1      -6.984   7.199  68.616  1.00  0.00    -0.076 OA 
BRANCH  10  13
HETATM   13  O   UNL     1      -6.643   7.059  70.869  1.00  0.00    -0.047 OA 
BRANCH  13  14
HETATM   14  C   UNL     1      -7.378   6.942  72.100  1.00  0.00    -0.087 C  
HETATM   15  C   UNL     1      -6.935   5.787  72.969  1.00  0.00    -0.080 C  
HETATM   16  O   UNL     1      -7.092   7.689  74.359  1.00  0.00    -0.107 OA 
HETATM   17  C   UNL     1      -7.260   6.268  74.363  1.00  0.00    -0.089 C  
HETATM   18  C   UNL     1      -7.099   8.143  72.997  1.00  0.00    -0.110 C  
ENDBRANCH  13  14
ENDBRANCH  10  13
ENDBRANCH   8   9
BRANCH   8  19
HETATM   19  C   UNL     1     -10.925   6.657  69.350  1.00  0.00    -0.361 C  
BRANCH  19  20
HETATM   20  C   UNL     1     -10.854   5.774  70.567  1.00  0.00    -0.348 A  
HETATM   21  C   UNL     1     -11.273   5.392  72.925  1.00  0.00    -0.372 A  
HETATM   22  C   UNL     1      -9.900   3.844  71.679  1.00  0.00    -0.247 A  
HETATM   23  C   UNL     1     -10.086   4.604  70.526  1.00  0.00    -0.263 A  
HETATM   24  C   UNL     1     -11.453   6.159  71.774  1.00  0.00    -0.342 A  
HETATM   25  C   UNL     1     -10.490   4.240  72.878  1.00  0.00    -0.246 A  
ENDBRANCH  19  20
ENDBRANCH   8  19
ENDBRANCH   7   8
BRANCH   7  26
HETATM   26  O   UNL     1     -11.568   9.560  69.077  1.00  0.00     0.178 OA 
HETATM   27  O   UNL     1     -12.526  10.323  72.118  1.00  0.00    -0.244 OA 
HETATM   28  O   UNL     1     -11.711  11.509  70.314  1.00  0.00    -0.327 OA 
HETATM   29  O   UNL     1     -10.652   9.552  71.339  1.00  0.00    -0.336 OA 
HETATM   30  P   UNL     1     -12.073   9.963  70.682  1.00  0.00    -0.194 P  
ENDBRANCH   7  26
ENDBRANCH   6   7
ENDBRANCH   5   6
BRANCH   5  31
HETATM   31  S   UNL     1      -8.691  12.258  67.369  1.00  0.00    -0.189 S  
HETATM   32  O   UNL     1      -7.690  12.092  66.335  1.00  0.00     0.077 OA 
HETATM   33  O   UNL     1      -8.285  12.104  68.752  1.00  0.00    -0.073 OA 
BRANCH  31  34
HETATM   34  C   UNL     1      -9.264  13.908  67.202  1.00  0.00    -0.239 A  
HETATM   35  N   UNL     1     -10.349  17.929  66.826  1.00  0.00    -0.357 NA 
HETATM   36  C   UNL     1     -10.107  14.474  68.158  1.00  0.00    -0.227 A  
HETATM   37  H1  UNL     1     -10.019  18.481  66.035  1.00  0.00     0.000 HD 
HETATM   38  H2  UNL     1     -10.063  18.400  67.685  1.00  0.00     0.000 HD 
HETATM   39  C   UNL     1      -8.677  14.703  66.216  1.00  0.00     0.122 A  
HETATM   40  C   UNL     1      -9.050  16.032  66.089  1.00  0.00    -0.387 A  
HETATM   41  C   UNL     1     -10.469  15.816  68.024  1.00  0.00    -0.270 A  
HETATM   42  C   UNL     1     -10.016  16.575  66.937  1.00  0.00    -0.271 A  
ENDBRANCH  31  34
ENDBRANCH   5  31
ENDBRANCH   4   5
TORSDOF 12
ENDMDL
MODEL      205
REMARK 921   NORMALIZED FREE ENERGY PREDICTED BY IDOCK:   -4.47 KCAL/MOL
REMARK 922        TOTAL FREE ENERGY PREDICTED BY IDOCK:  -10.42 KCAL/MOL
REMARK 923 INTER-LIGAND FREE ENERGY PREDICTED BY IDOCK:   -8.44 KCAL/MOL
REMARK 924 INTRA-LIGAND FREE ENERGY PREDICTED BY IDOCK:   -1.98 KCAL/MOL
REMARK 927      BINDING AFFINITY PREDICTED BY RF-SCORE:    0.00 PKD
ROOT
HETATM    1  C   UNL     1     -12.165   8.888  72.367  1.00  0.00    -0.365 C  
HETATM    2  C   UNL     1     -11.403   8.170  71.265  1.00  0.00    -0.300 C  
HETATM    3  C   UNL     1     -12.204   7.065  70.571  1.00  0.00    -0.222 C  
HETATM    4  C   UNL     1     -10.512   8.900  70.254  1.00  0.00    -0.210 C  
ENDROOT
BRANCH   4   5
HETATM    5  N   UNL     1     -10.692  10.264  69.676  1.00  0.00    -0.246 N  
BRANCH   5   6
HETATM    6  C   UNL     1      -9.864  10.299  68.357  1.00  0.00    -0.156 C  
BRANCH   6   7
HETATM    7  C   UNL     1      -8.400  10.930  68.457  1.00  0.00    -0.142 C  
BRANCH   7   8
HETATM    8  C   UNL     1      -8.087  11.877  67.195  1.00  0.00    -0.172 C  
BRANCH   8   9
HETATM    9  N   UNL     1      -7.755  11.115  65.978  1.00  0.00    -0.345 N  
HETATM   10  C   UNL     1      -6.453  10.838  65.647  1.00  0.00    -0.042 C  
HETATM   11  H   UNL     1      -8.507  10.789  65.371  1.00  0.00     0.000 HD 
HETATM   12  O   UNL     1      -5.471  11.119  66.313  1.00  0.00    -0.118 OA 
BRANCH  10  13
HETATM   13  O   UNL     1      -6.412  10.175  64.459  1.00  0.00    -0.125 OA 
BRANCH  13  14
HETATM   14  C   UNL     1      -6.943   8.838  64.493  1.00  0.00    -0.084 C  
HETATM   15  C   UNL     1      -7.983   8.565  63.430  1.00  0.00    -0.161 C  
HETATM   16  O   UNL     1      -6.459   6.762  63.398  1.00  0.00    -0.041 OA 
HETATM   17  C   UNL     1      -7.838   7.083  63.187  1.00  0.00    -0.110 C  
HETATM   18  C   UNL     1      -5.854   7.830  64.141  1.00  0.00    -0.052 C  
ENDBRANCH  13  14
ENDBRANCH  10  13
ENDBRANCH   8   9
BRANCH   8  19
HETATM   19  C   UNL     1      -9.097  13.005  66.881  1.00  0.00    -0.227 C  
BRANCH  19  20
HETATM   20  C   UNL     1      -8.619  14.427  67.003  1.00  0.00    -0.226 A  
HETATM   21  C   UNL     1      -8.620  16.728  66.232  1.00  0.00    -0.340 A  
HETATM   22  C   UNL     1      -7.003  16.008  67.876  1.00  0.00    -0.151 A  
HETATM   23  C   UNL     1      -7.545  14.724  67.850  1.00  0.00    -0.149 A  
HETATM   24  C   UNL     1      -9.158  15.441  66.199  1.00  0.00    -0.339 A  
HETATM   25  C   UNL     1      -7.538  17.007  67.066  1.00  0.00    -0.223 A  
ENDBRANCH  19  20
ENDBRANCH   8  19
ENDBRANCH   7   8
BRANCH   7  26
HETATM   26  O   UNL     1      -7.374   9.926  68.797  1.00  0.00    -0.074 OA 
HETATM   27  O   UNL     1      -5.132  10.748  71.045  1.00  0.00    -0.084 OA 
HETATM   28  O   UNL     1      -7.203   9.729  71.096  1.00  0.00    -0.327 OA 
HETATM   29  O   UNL     1      -6.697  11.896  70.070  1.00  0.00    -0.001 OA 
HETATM   30  P   UNL     1      -6.192  10.360  69.983  1.00  0.00    -0.124 P  
ENDBRANCH   7  26
ENDBRANCH   6   7
ENDBRANCH   5   6
BRANCH   5  31
HETATM   31  S   UNL     1     -12.157  11.118  69.473  1.00  0.00    -0.291 S  
HETATM   32  O   UNL     1     -13.211  10.441  70.200  1.00  0.00    -0.086 OA 
HETATM   33  O   UNL     1     -12.340  11.354  68.054  1.00  0.00    -0.444 OA 
BRANCH  31  34
HETATM   34  C   UNL     1     -12.017  12.699  70.221  1.00  0.00    -0.284 A  
HETATM   35  N   UNL     1     -11.969  16.509  71.945  1.00  0.00    -0.641 NA 
HETATM   36  C   UNL     1     -11.179  13.676  69.684  1.00  0.00    -0.147 A  
HETATM   37  H1  UNL     1     -12.546  16.714  72.761  1.00  0.00     0.000 HD 
HETATM   38  H2  UNL     1     -12.207  17.176  71.210  1.00  0.00     0.000 HD 
HETATM   39  C   UNL     1     -12.929  13.026  71.226  1.00  0.00    -0.330 A  
HETATM   40  C   UNL     1     -12.900  14.286  71.803  1.00  0.00    -0.426 A  
HETATM   41  C   UNL     1     -11.164  14.945  70.267  1.00  0.00    -0.270 A  
HETATM   42  C   UNL     1     -11.957  15.227  71.387  1.00  0.00    -0.368 A  
ENDBRANCH  31  34
ENDBRANCH   5  31
ENDBRANCH   4   5
TORSDOF 12
ENDMDL
MODEL      206
REMARK 921   NORMALIZED FREE ENERGY PREDICTED BY IDOCK:   -4.47 KCAL/MOL
REMARK 922        TOTAL FREE ENERGY PREDICTED BY IDOCK:  -10.41 KCAL/MOL
REMARK 923 INTER-LIGAND FREE ENERGY PREDICTED BY IDOCK:   -9.84 KCAL/MOL
REMARK 924 INTRA-LIGAND FREE ENERGY PREDICTED BY IDOCK:   -0.57 KCAL/MOL
REMARK 927      BINDING AFFINITY PREDICTED BY RF-SCORE:    0.00 PKD
ROOT
HETATM    1  C   UNL     1      -7.552  15.522  67.017  1.00  0.00    -0.228 C  
HETATM    2  C   UNL     1      -7.651  14.612  68.230  1.00  0.00    -0.118 C  
HETATM    3  C   UNL     1      -7.518  15.341  69.569  1.00  0.00    -0.214 C  
HETATM    4  C   UNL     1      -8.672  13.474  68.339  1.00  0.00    -0.140 C  
ENDROOT
BRANCH   4   5
HETATM    5  N   UNL     1     -10.058  13.418  67.788  1.00  0.00    -0.227 N  
BRANCH   5   6
HETATM    6  C   UNL     1     -10.617  12.006  68.137  1.00  0.00    -0.210 C  
BRANCH   6   7
HETATM    7  C   UNL     1      -9.562  10.947  68.698  1.00  0.00    -0.190 C  
BRANCH   7   8
HETATM    8  C   UNL     1      -9.248   9.806  67.609  1.00  0.00    -0.130 C  
BRANCH   8   9
HETATM    9  N   UNL     1      -8.881   8.516  68.222  1.00  0.00    -0.142 N  
HETATM   10  C   UNL     1      -7.674   7.922  67.957  1.00  0.00    -0.125 C  
HETATM   11  H   UNL     1      -9.537   8.058  68.854  1.00  0.00     0.000 HD 
HETATM   12  O   UNL     1      -6.782   8.391  67.269  1.00  0.00    -0.061 OA 
BRANCH  10  13
HETATM   13  O   UNL     1      -7.601   6.724  68.598  1.00  0.00    -0.100 OA 
BRANCH  13  14
HETATM   14  C   UNL     1      -8.719   5.847  68.374  1.00  0.00    -0.112 C  
HETATM   15  C   UNL     1      -8.329   4.470  67.888  1.00  0.00    -0.098 C  
HETATM   16  O   UNL     1      -9.885   4.179  69.640  1.00  0.00    -0.217 OA 
HETATM   17  C   UNL     1      -9.446   3.598  68.408  1.00  0.00    -0.150 C  
HETATM   18  C   UNL     1      -9.417   5.535  69.694  1.00  0.00    -0.138 C  
ENDBRANCH  13  14
ENDBRANCH  10  13
ENDBRANCH   8   9
BRANCH   8  19
HETATM   19  C   UNL     1     -10.276   9.603  66.471  1.00  0.00    -0.294 C  
BRANCH  19  20
HETATM   20  C   UNL     1      -9.887  10.050  65.087  1.00  0.00    -0.388 A  
HETATM   21  C   UNL     1      -8.364   9.989  63.200  1.00  0.00    -0.169 A  
HETATM   22  C   UNL     1     -10.128  11.637  63.273  1.00  0.00    -0.454 A  
HETATM   23  C   UNL     1     -10.559  11.124  64.495  1.00  0.00    -0.397 A  
HETATM   24  C   UNL     1      -8.789   9.480  64.427  1.00  0.00    -0.251 A  
HETATM   25  C   UNL     1      -9.030  11.072  62.628  1.00  0.00    -0.355 A  
ENDBRANCH  19  20
ENDBRANCH   8  19
ENDBRANCH   7   8
BRANCH   7  26
HETATM   26  O   UNL     1      -9.894  10.484  70.059  1.00  0.00    -0.039 OA 
HETATM   27  O   UNL     1     -13.065  10.124  70.809  1.00  0.00    -0.369 OA 
HETATM   28  O   UNL     1     -11.423   8.751  69.945  1.00  0.00    -0.057 OA 
HETATM   29  O   UNL     1     -12.073  10.941  69.059  1.00  0.00    -0.417 OA 
HETATM   30  P   UNL     1     -11.568  10.294  70.454  1.00  0.00    -0.357 P  
ENDBRANCH   7  26
ENDBRANCH   6   7
ENDBRANCH   5   6
BRANCH   5  31
HETATM   31  S   UNL     1     -11.287  14.594  67.952  1.00  0.00    -0.329 S  
HETATM   32  O   UNL     1     -12.486  14.127  67.287  1.00  0.00    -0.253 OA 
HETATM   33  O   UNL     1     -10.732  15.873  67.557  1.00  0.00    -0.310 OA 
BRANCH  31  34
HETATM   34  C   UNL     1     -11.722  14.746  69.646  1.00  0.00    -0.314 A  
HETATM   35  N   UNL     1     -13.038  15.159  73.594  1.00  0.00    -0.599 NA 
HETATM   36  C   UNL     1     -11.187  15.763  70.435  1.00  0.00    -0.383 A  
HETATM   37  H1  UNL     1     -13.724  14.510  73.980  1.00  0.00     0.000 HD 
HETATM   38  H2  UNL     1     -13.404  16.106  73.692  1.00  0.00     0.000 HD 
HETATM   39  C   UNL     1     -12.781  13.967  70.117  1.00  0.00    -0.207 A  
HETATM   40  C   UNL     1     -13.204  14.100  71.430  1.00  0.00    -0.418 A  
HETATM   41  C   UNL     1     -11.628  15.894  71.754  1.00  0.00    -0.541 A  
HETATM   42  C   UNL     1     -12.570  15.003  72.285  1.00  0.00    -0.340 A  
ENDBRANCH  31  34
ENDBRANCH   5  31
ENDBRANCH   4   5
TORSDOF 12
ENDMDL
MODEL      207
REMARK 921   NORMALIZED FREE ENERGY PREDICTED BY IDOCK:   -4.45 KCAL/MOL
REMARK 922        TOTAL FREE ENERGY PREDICTED BY IDOCK:  -10.37 KCAL/MOL
REMARK 923 INTER-LIGAND FREE ENERGY PREDICTED BY IDOCK:   -9.47 KCAL/MOL
REMARK 924 INTRA-LIGAND FREE ENERGY PREDICTED BY IDOCK:   -0.90 KCAL/MOL
REMARK 927      BINDING AFFINITY PREDICTED BY RF-SCORE:    0.00 PKD
ROOT
HETATM    1  C   UNL     1     -10.863  12.967  65.099  1.00  0.00    -0.320 C  
HETATM    2  C   UNL     1     -10.722  11.498  65.466  1.00  0.00    -0.328 C  
HETATM    3  C   UNL     1      -9.835  10.699  64.509  1.00  0.00    -0.388 C  
HETATM    4  C   UNL     1     -10.528  11.013  66.907  1.00  0.00    -0.246 C  
ENDROOT
BRANCH   4   5
HETATM    5  N   UNL     1      -9.802  11.688  68.022  1.00  0.00    -0.184 N  
BRANCH   5   6
HETATM    6  C   UNL     1      -9.561  10.603  69.114  1.00  0.00    -0.177 C  
BRANCH   6   7
HETATM    7  C   UNL     1     -10.515   9.324  69.063  1.00  0.00    -0.216 C  
BRANCH   7   8
HETATM    8  C   UNL     1     -11.726   9.459  70.113  1.00  0.00    -0.015 C  
BRANCH   8   9
HETATM    9  N   UNL     1     -12.198   8.155  70.612  1.00  0.00    -0.491 N  
HETATM   10  C   UNL     1     -11.759   7.653  71.811  1.00  0.00    -0.283 C  
HETATM   11  H   UNL     1     -12.863   7.617  70.057  1.00  0.00     0.000 HD 
HETATM   12  O   UNL     1     -11.014   8.218  72.593  1.00  0.00    -0.352 OA 
BRANCH  10  13
HETATM   13  O   UNL     1     -12.298   6.421  72.017  1.00  0.00    -0.337 OA 
BRANCH  13  14
HETATM   14  C   UNL     1     -11.345   5.346  72.092  1.00  0.00    -0.080 C  
HETATM   15  C   UNL     1     -10.047   5.628  71.371  1.00  0.00    -0.254 C  
HETATM   16  O   UNL     1      -9.494   4.777  73.503  1.00  0.00    -0.128 OA 
HETATM   17  C   UNL     1      -9.045   4.806  72.145  1.00  0.00    -0.127 C  
HETATM   18  C   UNL     1     -10.878   5.156  73.531  1.00  0.00    -0.303 C  
ENDBRANCH  13  14
ENDBRANCH  10  13
ENDBRANCH   8   9
BRANCH   8  19
HETATM   19  C   UNL     1     -11.555  10.466  71.275  1.00  0.00    -0.231 C  
BRANCH  19  20
HETATM   20  C   UNL     1     -12.318  11.761  71.199  1.00  0.00    -0.329 A  
HETATM   21  C   UNL     1     -12.717  13.918  70.164  1.00  0.00    -0.182 A  
HETATM   22  C   UNL     1     -13.794  13.366  72.254  1.00  0.00    -0.671 A  
HETATM   23  C   UNL     1     -13.181  12.115  72.242  1.00  0.00    -0.286 A  
HETATM   24  C   UNL     1     -12.095  12.669  70.154  1.00  0.00    -0.368 A  
HETATM   25  C   UNL     1     -13.559  14.268  71.218  1.00  0.00    -0.355 A  
ENDBRANCH  19  20
ENDBRANCH   8  19
ENDBRANCH   7   8
BRANCH   7  26
HETATM   26  O   UNL     1      -9.762   8.056  69.087  1.00  0.00    -0.159 OA 
HETATM   27  O   UNL     1      -9.929   6.140  66.432  1.00  0.00    -0.151 OA 
HETATM   28  O   UNL     1      -8.533   7.836  67.140  1.00  0.00    -0.122 OA 
HETATM   29  O   UNL     1     -10.974   7.965  66.971  1.00  0.00    -0.219 OA 
HETATM   30  P   UNL     1      -9.850   7.045  67.686  1.00  0.00    -0.170 P  
ENDBRANCH   7  26
ENDBRANCH   6   7
ENDBRANCH   5   6
BRANCH   5  31
HETATM   31  S   UNL     1      -8.440  12.712  67.901  1.00  0.00    -0.184 S  
HETATM   32  O   UNL     1      -7.706  12.392  66.694  1.00  0.00     0.048 OA 
HETATM   33  O   UNL     1      -7.737  12.666  69.168  1.00  0.00     0.116 OA 
BRANCH  31  34
HETATM   34  C   UNL     1      -8.977  14.370  67.695  1.00  0.00    -0.192 A  
HETATM   35  N   UNL     1     -10.535  18.218  67.187  1.00  0.00    -0.395 NA 
HETATM   36  C   UNL     1      -8.587  15.118  66.584  1.00  0.00    -0.279 A  
HETATM   37  H1  UNL     1     -11.175  18.611  67.878  1.00  0.00     0.000 HD 
HETATM   38  H2  UNL     1     -10.996  18.239  66.277  1.00  0.00     0.000 HD 
HETATM   39  C   UNL     1      -9.979  14.839  68.547  1.00  0.00    -0.228 A  
HETATM   40  C   UNL     1     -10.482  16.120  68.381  1.00  0.00    -0.274 A  
HETATM   41  C   UNL     1      -9.107  16.404  66.422  1.00  0.00    -0.341 A  
HETATM   42  C   UNL     1      -9.986  16.945  67.371  1.00  0.00    -0.269 A  
ENDBRANCH  31  34
ENDBRANCH   5  31
ENDBRANCH   4   5
TORSDOF 12
ENDMDL
MODEL      208
REMARK 921   NORMALIZED FREE ENERGY PREDICTED BY IDOCK:   -4.43 KCAL/MOL
REMARK 922        TOTAL FREE ENERGY PREDICTED BY IDOCK:  -10.34 KCAL/MOL
REMARK 923 INTER-LIGAND FREE ENERGY PREDICTED BY IDOCK:  -11.23 KCAL/MOL
REMARK 924 INTRA-LIGAND FREE ENERGY PREDICTED BY IDOCK:    0.89 KCAL/MOL
REMARK 927      BINDING AFFINITY PREDICTED BY RF-SCORE:    0.00 PKD
ROOT
HETATM    1  C   UNL     1     -12.597  13.476  65.228  1.00  0.00    -0.517 C  
HETATM    2  C   UNL     1     -11.313  14.274  65.068  1.00  0.00    -0.365 C  
HETATM    3  C   UNL     1     -11.517  15.669  64.471  1.00  0.00    -0.304 C  
HETATM    4  C   UNL     1     -10.209  14.303  66.131  1.00  0.00    -0.307 C  
ENDROOT
BRANCH   4   5
HETATM    5  N   UNL     1     -10.350  14.227  67.614  1.00  0.00    -0.246 N  
BRANCH   5   6
HETATM    6  C   UNL     1      -9.599  12.940  68.066  1.00  0.00    -0.221 C  
BRANCH   6   7
HETATM    7  C   UNL     1      -9.891  11.617  67.221  1.00  0.00    -0.187 C  
BRANCH   7   8
HETATM    8  C   UNL     1     -10.738  10.553  68.080  1.00  0.00    -0.245 C  
BRANCH   8   9
HETATM    9  N   UNL     1     -11.007   9.306  67.341  1.00  0.00    -0.404 N  
HETATM   10  C   UNL     1     -10.286   8.166  67.587  1.00  0.00    -0.234 C  
HETATM   11  H   UNL     1     -11.743   9.291  66.635  1.00  0.00     0.000 HD 
HETATM   12  O   UNL     1      -9.424   8.035  68.440  1.00  0.00    -0.144 OA 
BRANCH  10  13
HETATM   13  O   UNL     1     -10.689   7.177  66.743  1.00  0.00    -0.307 OA 
BRANCH  13  14
HETATM   14  C   UNL     1      -9.780   6.067  66.631  1.00  0.00    -0.157 C  
HETATM   15  C   UNL     1     -10.434   4.785  66.168  1.00  0.00    -0.332 C  
HETATM   16  O   UNL     1      -8.475   5.076  64.883  1.00  0.00    -0.135 OA 
HETATM   17  C   UNL     1      -9.310   4.068  65.461  1.00  0.00    -0.159 C  
HETATM   18  C   UNL     1      -8.766   6.327  65.523  1.00  0.00    -0.082 C  
ENDBRANCH  13  14
ENDBRANCH  10  13
ENDBRANCH   8   9
BRANCH   8  19
HETATM   19  C   UNL     1     -10.255  10.249  69.517  1.00  0.00    -0.261 C  
BRANCH  19  20
HETATM   20  C   UNL     1     -11.300   9.969  70.564  1.00  0.00    -0.409 A  
HETATM   21  C   UNL     1     -12.526   8.409  71.959  1.00  0.00    -0.407 A  
HETATM   22  C   UNL     1     -13.240  10.711  71.811  1.00  0.00    -0.526 A  
HETATM   23  C   UNL     1     -12.184  10.985  70.944  1.00  0.00    -0.471 A  
HETATM   24  C   UNL     1     -11.473   8.679  71.084  1.00  0.00    -0.332 A  
HETATM   25  C   UNL     1     -13.413   9.424  72.315  1.00  0.00    -0.539 A  
ENDBRANCH  19  20
ENDBRANCH   8  19
ENDBRANCH   7   8
BRANCH   7  26
HETATM   26  O   UNL     1      -8.688  11.103  66.540  1.00  0.00    -0.162 OA 
HETATM   27  O   UNL     1      -5.781  11.706  67.932  1.00  0.00    -0.044 OA 
HETATM   28  O   UNL     1      -7.336  10.005  68.062  1.00  0.00    -0.085 OA 
HETATM   29  O   UNL     1      -7.787  12.388  68.409  1.00  0.00    -0.138 OA 
HETATM   30  P   UNL     1      -7.154  11.421  67.275  1.00  0.00    -0.137 P  
ENDBRANCH   7  26
ENDBRANCH   6   7
ENDBRANCH   5   6
BRANCH   5  31
HETATM   31  S   UNL     1     -10.096  15.483  68.745  1.00  0.00    -0.220 S  
HETATM   32  O   UNL     1     -10.265  16.761  68.085  1.00  0.00    -0.273 OA 
HETATM   33  O   UNL     1      -8.845  15.219  69.427  1.00  0.00    -0.238 OA 
BRANCH  31  34
HETATM   34  C   UNL     1     -11.350  15.422  69.972  1.00  0.00    -0.306 A  
HETATM   35  N   UNL     1     -14.123  15.225  73.096  1.00  0.00    -0.393 NA 
HETATM   36  C   UNL     1     -12.342  14.443  69.936  1.00  0.00    -0.365 A  
HETATM   37  H1  UNL     1     -14.086  15.898  73.862  1.00  0.00     0.000 HD 
HETATM   38  H2  UNL     1     -14.064  14.287  73.492  1.00  0.00     0.000 HD 
HETATM   39  C   UNL     1     -11.195  16.232  71.099  1.00  0.00    -0.184 A  
HETATM   40  C   UNL     1     -12.124  16.171  72.126  1.00  0.00    -0.593 A  
HETATM   41  C   UNL     1     -13.268  14.385  70.980  1.00  0.00    -0.395 A  
HETATM   42  C   UNL     1     -13.218  15.309  72.032  1.00  0.00    -0.407 A  
ENDBRANCH  31  34
ENDBRANCH   5  31
ENDBRANCH   4   5
TORSDOF 12
ENDMDL
MODEL      209
REMARK 921   NORMALIZED FREE ENERGY PREDICTED BY IDOCK:   -4.41 KCAL/MOL
REMARK 922        TOTAL FREE ENERGY PREDICTED BY IDOCK:  -10.30 KCAL/MOL
REMARK 923 INTER-LIGAND FREE ENERGY PREDICTED BY IDOCK:   -8.40 KCAL/MOL
REMARK 924 INTRA-LIGAND FREE ENERGY PREDICTED BY IDOCK:   -1.90 KCAL/MOL
REMARK 927      BINDING AFFINITY PREDICTED BY RF-SCORE:    0.00 PKD
ROOT
HETATM    1  C   UNL     1     -10.603  14.924  66.236  1.00  0.00    -0.309 C  
HETATM    2  C   UNL     1      -9.946  14.828  67.603  1.00  0.00    -0.226 C  
HETATM    3  C   UNL     1     -10.653  15.637  68.693  1.00  0.00    -0.243 C  
HETATM    4  C   UNL     1      -9.402  13.516  68.178  1.00  0.00    -0.213 C  
ENDROOT
BRANCH   4   5
HETATM    5  N   UNL     1      -9.925  12.132  67.982  1.00  0.00    -0.197 N  
BRANCH   5   6
HETATM    6  C   UNL     1      -9.092  11.206  68.917  1.00  0.00    -0.089 C  
BRANCH   6   7
HETATM    7  C   UNL     1      -8.128  10.157  68.197  1.00  0.00    -0.105 C  
BRANCH   7   8
HETATM    8  C   UNL     1      -8.513   8.646  68.594  1.00  0.00    -0.130 C  
BRANCH   8   9
HETATM    9  N   UNL     1      -7.775   7.642  67.806  1.00  0.00    -0.119 N  
HETATM   10  C   UNL     1      -8.017   7.474  66.466  1.00  0.00    -0.107 C  
HETATM   11  H   UNL     1      -7.073   7.063  68.266  1.00  0.00     0.000 HD 
HETATM   12  O   UNL     1      -8.784   8.137  65.789  1.00  0.00    -0.151 OA 
BRANCH  10  13
HETATM   13  O   UNL     1      -7.250   6.457  65.986  1.00  0.00    -0.071 OA 
BRANCH  13  14
HETATM   14  C   UNL     1      -7.964   5.242  65.699  1.00  0.00    -0.106 C  
HETATM   15  C   UNL     1      -9.360   5.201  66.278  1.00  0.00    -0.155 C  
HETATM   16  O   UNL     1      -9.516   4.506  64.027  1.00  0.00    -0.125 OA 
HETATM   17  C   UNL     1     -10.099   4.302  65.318  1.00  0.00    -0.218 C  
HETATM   18  C   UNL     1      -8.236   5.132  64.202  1.00  0.00    -0.131 C  
ENDBRANCH  13  14
ENDBRANCH  10  13
ENDBRANCH   8   9
BRANCH   8  19
HETATM   19  C   UNL     1      -8.509   8.279  70.097  1.00  0.00    -0.126 C  
BRANCH  19  20
HETATM   20  C   UNL     1      -9.811   7.851  70.718  1.00  0.00    -0.188 A  
HETATM   21  C   UNL     1     -11.911   6.642  70.596  1.00  0.00    -0.443 A  
HETATM   22  C   UNL     1     -11.504   8.170  72.421  1.00  0.00    -0.462 A  
HETATM   23  C   UNL     1     -10.243   8.457  71.903  1.00  0.00    -0.340 A  
HETATM   24  C   UNL     1     -10.651   6.934  70.071  1.00  0.00    -0.254 A  
HETATM   25  C   UNL     1     -12.338   7.266  71.766  1.00  0.00    -0.375 A  
ENDBRANCH  19  20
ENDBRANCH   8  19
ENDBRANCH   7   8
BRANCH   7  26
HETATM   26  O   UNL     1      -6.704  10.524  68.312  1.00  0.00    -0.059 OA 
HETATM   27  O   UNL     1      -5.210  11.671  65.628  1.00  0.00    -0.196 OA 
HETATM   28  O   UNL     1      -6.359  12.618  67.392  1.00  0.00    -0.151 OA 
HETATM   29  O   UNL     1      -7.187  10.828  65.939  1.00  0.00    -0.144 OA 
HETATM   30  P   UNL     1      -5.916  11.130  66.896  1.00  0.00    -0.133 P  
ENDBRANCH   7  26
ENDBRANCH   6   7
ENDBRANCH   5   6
BRANCH   5  31
HETATM   31  S   UNL     1     -11.560  11.634  67.968  1.00  0.00    -0.294 S  
HETATM   32  O   UNL     1     -11.620  10.195  67.817  1.00  0.00    -0.239 OA 
HETATM   33  O   UNL     1     -12.266  12.458  67.007  1.00  0.00    -0.508 OA 
BRANCH  31  34
HETATM   34  C   UNL     1     -12.283  11.970  69.532  1.00  0.00    -0.117 A  
HETATM   35  N   UNL     1     -13.760  12.926  73.326  1.00  0.00     0.292 NA 
HETATM   36  C   UNL     1     -12.563  10.940  70.429  1.00  0.00    -0.376 A  
HETATM   37  H1  UNL     1     -13.934  13.898  73.582  1.00  0.00     0.000 HD 
HETATM   38  H2  UNL     1     -13.118  12.525  74.009  1.00  0.00     0.000 HD 
HETATM   39  C   UNL     1     -12.358  13.304  69.939  1.00  0.00    -0.228 A  
HETATM   40  C   UNL     1     -12.860  13.615  71.194  1.00  0.00    -0.399 A  
HETATM   41  C   UNL     1     -13.060  11.265  71.693  1.00  0.00    -0.513 A  
HETATM   42  C   UNL     1     -13.298  12.600  72.046  1.00  0.00    -0.454 A  
ENDBRANCH  31  34
ENDBRANCH   5  31
ENDBRANCH   4   5
TORSDOF 12
ENDMDL
MODEL      210
REMARK 921   NORMALIZED FREE ENERGY PREDICTED BY IDOCK:   -4.40 KCAL/MOL
REMARK 922        TOTAL FREE ENERGY PREDICTED BY IDOCK:  -10.30 KCAL/MOL
REMARK 923 INTER-LIGAND FREE ENERGY PREDICTED BY IDOCK:   -8.01 KCAL/MOL
REMARK 924 INTRA-LIGAND FREE ENERGY PREDICTED BY IDOCK:   -2.29 KCAL/MOL
REMARK 927      BINDING AFFINITY PREDICTED BY RF-SCORE:    0.00 PKD
ROOT
HETATM    1  C   UNL     1      -7.770   9.008  63.987  1.00  0.00    -0.125 C  
HETATM    2  C   UNL     1      -7.451   8.733  65.448  1.00  0.00    -0.086 C  
HETATM    3  C   UNL     1      -6.379   9.655  66.035  1.00  0.00    -0.073 C  
HETATM    4  C   UNL     1      -8.528   8.429  66.495  1.00  0.00    -0.113 C  
ENDROOT
BRANCH   4   5
HETATM    5  N   UNL     1      -9.921   8.958  66.570  1.00  0.00    -0.273 N  
BRANCH   5   6
HETATM    6  C   UNL     1     -10.802   7.807  67.144  1.00  0.00    -0.156 C  
BRANCH   6   7
HETATM    7  C   UNL     1     -10.151   6.933  68.310  1.00  0.00    -0.167 C  
BRANCH   7   8
HETATM    8  C   UNL     1      -9.346   5.675  67.714  1.00  0.00    -0.110 C  
BRANCH   8   9
HETATM    9  N   UNL     1      -8.501   5.007  68.721  1.00  0.00    -0.087 N  
HETATM   10  C   UNL     1      -7.133   5.022  68.624  1.00  0.00    -0.057 C  
HETATM   11  H   UNL     1      -8.942   4.526  69.505  1.00  0.00     0.000 HD 
HETATM   12  O   UNL     1      -6.484   5.608  67.773  1.00  0.00    -0.044 OA 
BRANCH  10  13
HETATM   13  O   UNL     1      -6.592   4.296  69.639  1.00  0.00    -0.032 OA 
BRANCH  13  14
HETATM   14  C   UNL     1      -6.029   5.076  70.710  1.00  0.00    -0.018 C  
HETATM   15  C   UNL     1      -5.943   6.555  70.409  1.00  0.00    -0.023 C  
HETATM   16  O   UNL     1      -6.883   6.332  72.564  1.00  0.00    -0.068 OA 
HETATM   17  C   UNL     1      -6.046   7.185  71.777  1.00  0.00    -0.037 C  
HETATM   18  C   UNL     1      -6.952   5.049  71.923  1.00  0.00    -0.065 C  
ENDBRANCH  13  14
ENDBRANCH  10  13
ENDBRANCH   8   9
BRANCH   8  19
HETATM   19  C   UNL     1     -10.148   4.638  66.893  1.00  0.00    -0.227 C  
BRANCH  19  20
HETATM   20  C   UNL     1      -9.821   4.497  65.431  1.00  0.00    -0.204 A  
HETATM   21  C   UNL     1      -8.547   5.168  63.479  1.00  0.00    -0.082 A  
HETATM   22  C   UNL     1     -10.444   3.694  63.232  1.00  0.00    -0.237 A  
HETATM   23  C   UNL     1     -10.653   3.729  64.609  1.00  0.00    -0.120 A  
HETATM   24  C   UNL     1      -8.760   5.212  64.857  1.00  0.00    -0.140 A  
HETATM   25  C   UNL     1      -9.394   4.415  62.667  1.00  0.00    -0.121 A  
ENDBRANCH  19  20
ENDBRANCH   8  19
ENDBRANCH   7   8
BRANCH   7  26
HETATM   26  O   UNL     1     -11.101   6.649  69.402  1.00  0.00    -0.288 OA 
HETATM   27  O   UNL     1     -10.238   7.539  72.437  1.00  0.00    -0.191 OA 
HETATM   28  O   UNL     1     -11.387   8.540  70.704  1.00  0.00    -0.259 OA 
HETATM   29  O   UNL     1      -9.150   7.551  70.558  1.00  0.00    -0.154 OA 
HETATM   30  P   UNL     1     -10.645   7.119  71.003  1.00  0.00    -0.226 P  
ENDBRANCH   7  26
ENDBRANCH   6   7
ENDBRANCH   5   6
BRANCH   5  31
HETATM   31  S   UNL     1     -10.427  10.459  67.211  1.00  0.00    -0.266 S  
HETATM   32  O   UNL     1      -9.289  11.136  67.798  1.00  0.00    -0.159 OA 
HETATM   33  O   UNL     1     -11.590  10.217  68.042  1.00  0.00    -0.330 OA 
BRANCH  31  34
HETATM   34  C   UNL     1     -10.963  11.498  65.902  1.00  0.00    -0.243 A  
HETATM   35  N   UNL     1     -12.520  13.924  62.872  1.00  0.00    -0.877 NA 
HETATM   36  C   UNL     1     -10.725  11.157  64.571  1.00  0.00    -0.368 A  
HETATM   37  H1  UNL     1     -13.048  14.765  63.104  1.00  0.00     0.000 HD 
HETATM   38  H2  UNL     1     -13.106  13.332  62.283  1.00  0.00     0.000 HD 
HETATM   39  C   UNL     1     -11.825  12.550  66.219  1.00  0.00    -0.453 A  
HETATM   40  C   UNL     1     -12.328  13.358  65.211  1.00  0.00    -0.513 A  
HETATM   41  C   UNL     1     -11.244  11.973  63.564  1.00  0.00    -0.526 A  
HETATM   42  C   UNL     1     -11.969  13.129  63.882  1.00  0.00    -0.488 A  
ENDBRANCH  31  34
ENDBRANCH   5  31
ENDBRANCH   4   5
TORSDOF 12
ENDMDL
MODEL      211
REMARK 921   NORMALIZED FREE ENERGY PREDICTED BY IDOCK:   -4.40 KCAL/MOL
REMARK 922        TOTAL FREE ENERGY PREDICTED BY IDOCK:  -10.29 KCAL/MOL
REMARK 923 INTER-LIGAND FREE ENERGY PREDICTED BY IDOCK:   -8.28 KCAL/MOL
REMARK 924 INTRA-LIGAND FREE ENERGY PREDICTED BY IDOCK:   -2.01 KCAL/MOL
REMARK 927      BINDING AFFINITY PREDICTED BY RF-SCORE:    0.00 PKD
ROOT
HETATM    1  C   UNL     1      -6.939   9.239  65.831  1.00  0.00    -0.089 C  
HETATM    2  C   UNL     1      -7.056   9.782  67.246  1.00  0.00    -0.085 C  
HETATM    3  C   UNL     1      -6.301  11.094  67.475  1.00  0.00    -0.065 C  
HETATM    4  C   UNL     1      -8.369   9.775  68.036  1.00  0.00    -0.110 C  
ENDROOT
BRANCH   4   5
HETATM    5  N   UNL     1      -9.761   9.933  67.521  1.00  0.00    -0.156 N  
BRANCH   5   6
HETATM    6  C   UNL     1     -10.465   8.557  67.718  1.00  0.00    -0.223 C  
BRANCH   6   7
HETATM    7  C   UNL     1     -10.095   7.757  69.050  1.00  0.00    -0.196 C  
BRANCH   7   8
HETATM    8  C   UNL     1      -9.082   6.547  68.740  1.00  0.00    -0.126 C  
BRANCH   8   9
HETATM    9  N   UNL     1      -8.011   6.426  69.745  1.00  0.00    -0.117 N  
HETATM   10  C   UNL     1      -6.691   6.378  69.375  1.00  0.00    -0.052 C  
HETATM   11  H   UNL     1      -8.256   6.377  70.734  1.00  0.00     0.000 HD 
HETATM   12  O   UNL     1      -6.264   6.484  68.238  1.00  0.00    -0.029 OA 
BRANCH  10  13
HETATM   13  O   UNL     1      -5.911   6.212  70.478  1.00  0.00    -0.017 OA 
BRANCH  13  14
HETATM   14  C   UNL     1      -5.421   7.432  71.063  1.00  0.00    -0.027 C  
HETATM   15  C   UNL     1      -5.488   8.625  70.136  1.00  0.00    -0.024 C  
HETATM   16  O   UNL     1      -6.382   9.301  72.214  1.00  0.00    -0.283 OA 
HETATM   17  C   UNL     1      -5.642   9.785  71.089  1.00  0.00    -0.074 C  
HETATM   18  C   UNL     1      -6.326   7.867  72.210  1.00  0.00    -0.052 C  
ENDBRANCH  13  14
ENDBRANCH  10  13
ENDBRANCH   8   9
BRANCH   8  19
HETATM   19  C   UNL     1      -9.698   5.165  68.421  1.00  0.00    -0.200 C  
BRANCH  19  20
HETATM   20  C   UNL     1      -9.444   4.043  69.392  1.00  0.00    -0.259 A  
HETATM   21  C   UNL     1      -9.678   3.072  71.603  1.00  0.00    -0.228 A  
HETATM   22  C   UNL     1      -8.186   2.062  69.994  1.00  0.00    -0.061 A  
HETATM   23  C   UNL     1      -8.534   3.034  69.058  1.00  0.00    -0.100 A  
HETATM   24  C   UNL     1     -10.021   4.051  70.670  1.00  0.00    -0.141 A  
HETATM   25  C   UNL     1      -8.755   2.083  71.266  1.00  0.00    -0.104 A  
ENDBRANCH  19  20
ENDBRANCH   8  19
ENDBRANCH   7   8
BRANCH   7  26
HETATM   26  O   UNL     1     -11.282   7.430  69.861  1.00  0.00    -0.228 OA 
HETATM   27  O   UNL     1     -11.084   7.895  73.101  1.00  0.00    -0.382 OA 
HETATM   28  O   UNL     1     -11.754   9.177  71.302  1.00  0.00    -0.282 OA 
HETATM   29  O   UNL     1      -9.599   8.032  71.522  1.00  0.00    -0.153 OA 
HETATM   30  P   UNL     1     -11.178   7.676  71.570  1.00  0.00    -0.262 P  
ENDBRANCH   7  26
ENDBRANCH   6   7
ENDBRANCH   5   6
BRANCH   5  31
HETATM   31  S   UNL     1     -10.853  11.204  67.856  1.00  0.00    -0.257 S  
HETATM   32  O   UNL     1     -10.187  12.204  68.665  1.00  0.00    -0.220 OA 
HETATM   33  O   UNL     1     -12.078  10.615  68.358  1.00  0.00    -0.423 OA 
BRANCH  31  34
HETATM   34  C   UNL     1     -11.272  12.018  66.359  1.00  0.00    -0.337 A  
HETATM   35  N   UNL     1     -12.559  13.925  62.867  1.00  0.00    -0.788 NA 
HETATM   36  C   UNL     1     -10.945  11.462  65.123  1.00  0.00    -0.259 A  
HETATM   37  H1  UNL     1     -13.086  14.797  62.919  1.00  0.00     0.000 HD 
HETATM   38  H2  UNL     1     -13.112  13.249  62.340  1.00  0.00     0.000 HD 
HETATM   39  C   UNL     1     -12.135  13.114  66.435  1.00  0.00    -0.447 A  
HETATM   40  C   UNL     1     -12.548  13.749  65.275  1.00  0.00    -0.510 A  
HETATM   41  C   UNL     1     -11.374  12.105  63.960  1.00  0.00    -0.468 A  
HETATM   42  C   UNL     1     -12.098  13.303  64.031  1.00  0.00    -0.447 A  
ENDBRANCH  31  34
ENDBRANCH   5  31
ENDBRANCH   4   5
TORSDOF 12
ENDMDL
MODEL      212
REMARK 921   NORMALIZED FREE ENERGY PREDICTED BY IDOCK:   -4.40 KCAL/MOL
REMARK 922        TOTAL FREE ENERGY PREDICTED BY IDOCK:  -10.29 KCAL/MOL
REMARK 923 INTER-LIGAND FREE ENERGY PREDICTED BY IDOCK:   -8.36 KCAL/MOL
REMARK 924 INTRA-LIGAND FREE ENERGY PREDICTED BY IDOCK:   -1.93 KCAL/MOL
REMARK 927      BINDING AFFINITY PREDICTED BY RF-SCORE:    0.00 PKD
ROOT
HETATM    1  C   UNL     1     -14.056   7.288  71.336  1.00  0.00    -0.456 C  
HETATM    2  C   UNL     1     -13.564   8.722  71.448  1.00  0.00    -0.292 C  
HETATM    3  C   UNL     1     -13.915   9.399  72.775  1.00  0.00    -0.112 C  
HETATM    4  C   UNL     1     -12.179   9.168  70.968  1.00  0.00    -0.242 C  
ENDROOT
BRANCH   4   5
HETATM    5  N   UNL     1     -10.903   8.395  70.975  1.00  0.00    -0.231 N  
BRANCH   5   6
HETATM    6  C   UNL     1      -9.923   9.149  70.027  1.00  0.00    -0.199 C  
BRANCH   6   7
HETATM    7  C   UNL     1      -9.828   8.604  68.530  1.00  0.00    -0.169 C  
BRANCH   7   8
HETATM    8  C   UNL     1      -9.377   9.767  67.515  1.00  0.00    -0.133 C  
BRANCH   8   9
HETATM    9  N   UNL     1      -8.054   9.520  66.914  1.00  0.00    -0.109 N  
HETATM   10  C   UNL     1      -7.235  10.557  66.546  1.00  0.00    -0.124 C  
HETATM   11  H   UNL     1      -7.741   8.560  66.769  1.00  0.00     0.000 HD 
HETATM   12  O   UNL     1      -7.464  11.743  66.718  1.00  0.00    -0.131 OA 
BRANCH  10  13
HETATM   13  O   UNL     1      -6.103  10.068  65.972  1.00  0.00    -0.067 OA 
BRANCH  13  14
HETATM   14  C   UNL     1      -6.263   9.592  64.624  1.00  0.00    -0.082 C  
HETATM   15  C   UNL     1      -6.510   8.104  64.525  1.00  0.00    -0.064 C  
HETATM   16  O   UNL     1      -8.105   9.170  63.150  1.00  0.00    -0.145 OA 
HETATM   17  C   UNL     1      -7.321   7.978  63.259  1.00  0.00    -0.107 C  
HETATM   18  C   UNL     1      -7.534  10.168  64.009  1.00  0.00    -0.117 C  
ENDBRANCH  13  14
ENDBRANCH  10  13
ENDBRANCH   8   9
BRANCH   8  19
HETATM   19  C   UNL     1     -10.396  10.212  66.440  1.00  0.00    -0.258 C  
BRANCH  19  20
HETATM   20  C   UNL     1     -11.102  11.525  66.644  1.00  0.00    -0.355 A  
HETATM   21  C   UNL     1     -12.155  13.518  65.748  1.00  0.00    -0.473 A  
HETATM   22  C   UNL     1     -11.684  13.364  68.111  1.00  0.00    -0.397 A  
HETATM   23  C   UNL     1     -11.152  12.089  67.924  1.00  0.00    -0.289 A  
HETATM   24  C   UNL     1     -11.615  12.246  65.557  1.00  0.00    -0.422 A  
HETATM   25  C   UNL     1     -12.182  14.079  67.024  1.00  0.00    -0.387 A  
ENDBRANCH  19  20
ENDBRANCH   8  19
ENDBRANCH   7   8
BRANCH   7  26
HETATM   26  O   UNL     1     -11.011   7.813  68.139  1.00  0.00    -0.015 OA 
HETATM   27  O   UNL     1     -10.494   4.970  66.592  1.00  0.00    -0.264 OA 
HETATM   28  O   UNL     1     -10.733   5.613  68.796  1.00  0.00    -0.241 OA 
HETATM   29  O   UNL     1      -9.143   6.561  67.191  1.00  0.00    -0.118 OA 
HETATM   30  P   UNL     1     -10.738   6.313  67.323  1.00  0.00    -0.387 P  
ENDBRANCH   7  26
ENDBRANCH   6   7
ENDBRANCH   5   6
BRANCH   5  31
HETATM   31  S   UNL     1     -10.060   7.797  72.336  1.00  0.00    -0.249 S  
HETATM   32  O   UNL     1     -10.984   7.648  73.442  1.00  0.00    -0.371 OA 
HETATM   33  O   UNL     1      -8.884   8.622  72.527  1.00  0.00    -0.356 OA 
BRANCH  31  34
HETATM   34  C   UNL     1      -9.477   6.178  71.993  1.00  0.00    -0.152 A  
HETATM   35  N   UNL     1      -8.065   2.399  70.890  1.00  0.00    -0.049 NA 
HETATM   36  C   UNL     1     -10.288   5.063  72.205  1.00  0.00    -0.276 A  
HETATM   37  H1  UNL     1      -7.132   2.292  70.492  1.00  0.00     0.000 HD 
HETATM   38  H2  UNL     1      -8.740   2.005  70.233  1.00  0.00     0.000 HD 
HETATM   39  C   UNL     1      -8.274   6.055  71.295  1.00  0.00    -0.123 A  
HETATM   40  C   UNL     1      -7.805   4.799  70.944  1.00  0.00    -0.081 A  
HETATM   41  C   UNL     1      -9.810   3.804  71.838  1.00  0.00    -0.248 A  
HETATM   42  C   UNL     1      -8.528   3.657  71.292  1.00  0.00    -0.068 A  
ENDBRANCH  31  34
ENDBRANCH   5  31
ENDBRANCH   4   5
TORSDOF 12
ENDMDL
MODEL      213
REMARK 921   NORMALIZED FREE ENERGY PREDICTED BY IDOCK:   -4.39 KCAL/MOL
REMARK 922        TOTAL FREE ENERGY PREDICTED BY IDOCK:  -10.27 KCAL/MOL
REMARK 923 INTER-LIGAND FREE ENERGY PREDICTED BY IDOCK:   -8.60 KCAL/MOL
REMARK 924 INTRA-LIGAND FREE ENERGY PREDICTED BY IDOCK:   -1.67 KCAL/MOL
REMARK 927      BINDING AFFINITY PREDICTED BY RF-SCORE:    0.00 PKD
ROOT
HETATM    1  C   UNL     1     -12.031  13.485  68.366  1.00  0.00    -0.378 C  
HETATM    2  C   UNL     1     -10.984  12.425  68.672  1.00  0.00    -0.283 C  
HETATM    3  C   UNL     1     -11.493  11.283  69.554  1.00  0.00    -0.376 C  
HETATM    4  C   UNL     1     -10.003  11.895  67.621  1.00  0.00    -0.189 C  
ENDROOT
BRANCH   4   5
HETATM    5  N   UNL     1     -10.225  11.706  66.158  1.00  0.00    -0.219 N  
BRANCH   5   6
HETATM    6  C   UNL     1     -10.612  10.210  65.958  1.00  0.00    -0.001 C  
BRANCH   6   7
HETATM    7  C   UNL     1      -9.430   9.224  65.532  1.00  0.00    -0.240 C  
BRANCH   7   8
HETATM    8  C   UNL     1      -9.277   8.013  66.579  1.00  0.00    -0.188 C  
BRANCH   8   9
HETATM    9  N   UNL     1      -9.682   6.713  66.013  1.00  0.00    -0.396 N  
HETATM   10  C   UNL     1     -10.642   5.943  66.618  1.00  0.00    -0.264 C  
HETATM   11  H   UNL     1      -9.241   6.381  65.156  1.00  0.00     0.000 HD 
HETATM   12  O   UNL     1     -11.285   6.250  67.609  1.00  0.00    -0.327 OA 
BRANCH  10  13
HETATM   13  O   UNL     1     -10.795   4.777  65.934  1.00  0.00    -0.304 OA 
BRANCH  13  14
HETATM   14  C   UNL     1      -9.604   4.295  65.285  1.00  0.00    -0.185 C  
HETATM   15  C   UNL     1      -9.006   3.070  65.938  1.00  0.00    -0.145 C  
HETATM   16  O   UNL     1      -9.094   2.653  63.616  1.00  0.00    -0.095 OA 
HETATM   17  C   UNL     1      -8.322   2.373  64.787  1.00  0.00    -0.088 C  
HETATM   18  C   UNL     1      -9.937   3.782  63.888  1.00  0.00    -0.189 C  
ENDBRANCH  13  14
ENDBRANCH  10  13
ENDBRANCH   8   9
BRANCH   8  19
HETATM   19  C   UNL     1      -7.934   7.890  67.337  1.00  0.00    -0.122 C  
BRANCH  19  20
HETATM   20  C   UNL     1      -7.824   6.830  68.400  1.00  0.00    -0.114 A  
HETATM   21  C   UNL     1      -8.118   6.104  70.696  1.00  0.00    -0.116 A  
HETATM   22  C   UNL     1      -6.878   4.728  69.146  1.00  0.00    -0.050 A  
HETATM   23  C   UNL     1      -7.104   5.660  68.135  1.00  0.00    -0.071 A  
HETATM   24  C   UNL     1      -8.337   7.043  69.687  1.00  0.00    -0.133 A  
HETATM   25  C   UNL     1      -7.382   4.951  70.426  1.00  0.00    -0.054 A  
ENDBRANCH  19  20
ENDBRANCH   8  19
ENDBRANCH   7   8
BRANCH   7  26
HETATM   26  O   UNL     1      -8.194   9.945  65.175  1.00  0.00    -0.131 OA 
HETATM   27  O   UNL     1      -6.603   8.986  62.474  1.00  0.00    -0.095 OA 
HETATM   28  O   UNL     1      -8.249  10.535  62.939  1.00  0.00    -0.153 OA 
HETATM   29  O   UNL     1      -8.315   8.156  63.520  1.00  0.00    -0.104 OA 
HETATM   30  P   UNL     1      -7.355   9.439  63.749  1.00  0.00    -0.119 P  
ENDBRANCH   7  26
ENDBRANCH   6   7
ENDBRANCH   5   6
BRANCH   5  31
HETATM   31  S   UNL     1     -11.147  12.695  65.113  1.00  0.00    -0.305 S  
HETATM   32  O   UNL     1     -12.534  12.666  65.527  1.00  0.00    -0.622 OA 
HETATM   33  O   UNL     1     -10.826  12.320  63.750  1.00  0.00    -0.366 OA 
BRANCH  31  34
HETATM   34  C   UNL     1     -10.640  14.365  65.298  1.00  0.00    -0.382 A  
HETATM   35  N   UNL     1      -9.460  18.309  66.032  1.00  0.00    -0.513 NA 
HETATM   36  C   UNL     1     -11.403  15.409  64.777  1.00  0.00    -0.381 A  
HETATM   37  H1  UNL     1      -8.613  18.504  66.567  1.00  0.00     0.000 HD 
HETATM   38  H2  UNL     1     -10.242  18.777  66.492  1.00  0.00     0.000 HD 
HETATM   39  C   UNL     1      -9.581  14.629  66.169  1.00  0.00    -0.336 A  
HETATM   40  C   UNL     1      -9.186  15.939  66.398  1.00  0.00    -0.344 A  
HETATM   41  C   UNL     1     -11.002  16.724  65.022  1.00  0.00    -0.118 A  
HETATM   42  C   UNL     1      -9.839  16.992  65.756  1.00  0.00    -0.102 A  
ENDBRANCH  31  34
ENDBRANCH   5  31
ENDBRANCH   4   5
TORSDOF 12
ENDMDL
MODEL      214
REMARK 921   NORMALIZED FREE ENERGY PREDICTED BY IDOCK:   -4.38 KCAL/MOL
REMARK 922        TOTAL FREE ENERGY PREDICTED BY IDOCK:  -10.26 KCAL/MOL
REMARK 923 INTER-LIGAND FREE ENERGY PREDICTED BY IDOCK:   -9.70 KCAL/MOL
REMARK 924 INTRA-LIGAND FREE ENERGY PREDICTED BY IDOCK:   -0.56 KCAL/MOL
REMARK 927      BINDING AFFINITY PREDICTED BY RF-SCORE:    0.00 PKD
ROOT
HETATM    1  C   UNL     1     -12.394  12.394  64.376  1.00  0.00    -0.532 C  
HETATM    2  C   UNL     1     -11.572  13.672  64.332  1.00  0.00    -0.421 C  
HETATM    3  C   UNL     1     -12.408  14.946  64.186  1.00  0.00    -0.212 C  
HETATM    4  C   UNL     1     -10.369  13.923  65.249  1.00  0.00    -0.378 C  
ENDROOT
BRANCH   4   5
HETATM    5  N   UNL     1     -10.164  13.464  66.654  1.00  0.00    -0.269 N  
BRANCH   5   6
HETATM    6  C   UNL     1     -10.475  14.687  67.569  1.00  0.00    -0.247 C  
BRANCH   6   7
HETATM    7  C   UNL     1      -9.409  15.874  67.548  1.00  0.00    -0.217 C  
BRANCH   7   8
HETATM    8  C   UNL     1      -8.183  15.573  68.545  1.00  0.00    -0.148 C  
BRANCH   8   9
HETATM    9  N   UNL     1      -8.015  14.136  68.827  1.00  0.00    -0.218 N  
HETATM   10  C   UNL     1      -7.043  13.399  68.201  1.00  0.00    -0.116 C  
HETATM   11  H   UNL     1      -8.632  13.682  69.500  1.00  0.00     0.000 HD 
HETATM   12  O   UNL     1      -6.207  13.830  67.424  1.00  0.00    -0.332 OA 
BRANCH  10  13
HETATM   13  O   UNL     1      -7.130  12.098  68.591  1.00  0.00    -0.092 OA 
BRANCH  13  14
HETATM   14  C   UNL     1      -6.074  11.654  69.462  1.00  0.00    -0.103 C  
HETATM   15  C   UNL     1      -5.782  12.602  70.603  1.00  0.00    -0.151 C  
HETATM   16  O   UNL     1      -5.932  10.430  71.517  1.00  0.00    -0.313 OA 
HETATM   17  C   UNL     1      -5.261  11.684  71.681  1.00  0.00     0.091 C  
HETATM   18  C   UNL     1      -6.496  10.387  70.198  1.00  0.00    -0.137 C  
ENDBRANCH  13  14
ENDBRANCH  10  13
ENDBRANCH   8   9
BRANCH   8  19
HETATM   19  C   UNL     1      -6.822  16.235  68.224  1.00  0.00    -0.134 C  
BRANCH  19  20
HETATM   20  C   UNL     1      -6.410  17.425  69.049  1.00  0.00    -0.220 A  
HETATM   21  C   UNL     1      -6.107  19.819  69.296  1.00  0.00    -0.328 A  
HETATM   22  C   UNL     1      -5.215  18.313  70.960  1.00  0.00    -0.271 A  
HETATM   23  C   UNL     1      -5.720  17.225  70.250  1.00  0.00    -0.185 A  
HETATM   24  C   UNL     1      -6.606  18.731  68.580  1.00  0.00    -0.260 A  
HETATM   25  C   UNL     1      -5.404  19.608  70.482  1.00  0.00    -0.256 A  
ENDBRANCH  19  20
ENDBRANCH   8  19
ENDBRANCH   7   8
BRANCH   7  26
HETATM   26  O   UNL     1     -10.039  17.203  67.664  1.00  0.00    -0.284 OA 
HETATM   27  O   UNL     1      -9.164  19.494  65.488  1.00  0.00    -0.197 OA 
HETATM   28  O   UNL     1     -10.815  17.885  65.594  1.00  0.00    -0.397 OA 
HETATM   29  O   UNL     1      -8.413  17.493  65.868  1.00  0.00    -0.533 OA 
HETATM   30  P   UNL     1      -9.578  18.412  66.516  1.00  0.00    -0.298 P  
ENDBRANCH   7  26
ENDBRANCH   6   7
ENDBRANCH   5   6
BRANCH   5  31
HETATM   31  S   UNL     1     -10.751  12.029  67.372  1.00  0.00    -0.239 S  
HETATM   32  O   UNL     1     -12.157  11.879  67.061  1.00  0.00    -0.600 OA 
HETATM   33  O   UNL     1     -10.349  12.034  68.764  1.00  0.00    -0.218 OA 
BRANCH  31  34
HETATM   34  C   UNL     1      -9.960  10.646  66.634  1.00  0.00    -0.212 A  
HETATM   35  N   UNL     1      -8.010   7.257  65.152  1.00  0.00    -0.123 NA 
HETATM   36  C   UNL     1      -8.850  10.811  65.807  1.00  0.00    -0.201 A  
HETATM   37  H1  UNL     1      -8.355   6.324  65.375  1.00  0.00     0.000 HD 
HETATM   38  H2  UNL     1      -7.035   7.316  65.448  1.00  0.00     0.000 HD 
HETATM   39  C   UNL     1     -10.330   9.375  67.077  1.00  0.00    -0.322 A  
HETATM   40  C   UNL     1      -9.688   8.254  66.572  1.00  0.00    -0.323 A  
HETATM   41  C   UNL     1      -8.205   9.676  65.312  1.00  0.00    -0.131 A  
HETATM   42  C   UNL     1      -8.679   8.393  65.618  1.00  0.00    -0.172 A  
ENDBRANCH  31  34
ENDBRANCH   5  31
ENDBRANCH   4   5
TORSDOF 12
ENDMDL
MODEL      215
REMARK 921   NORMALIZED FREE ENERGY PREDICTED BY IDOCK:   -4.38 KCAL/MOL
REMARK 922        TOTAL FREE ENERGY PREDICTED BY IDOCK:  -10.26 KCAL/MOL
REMARK 923 INTER-LIGAND FREE ENERGY PREDICTED BY IDOCK:   -7.89 KCAL/MOL
REMARK 924 INTRA-LIGAND FREE ENERGY PREDICTED BY IDOCK:   -2.37 KCAL/MOL
REMARK 927      BINDING AFFINITY PREDICTED BY RF-SCORE:    0.00 PKD
ROOT
HETATM    1  C   UNL     1     -10.911  13.858  70.059  1.00  0.00     0.202 C  
HETATM    2  C   UNL     1     -11.896  13.316  69.036  1.00  0.00    -0.365 C  
HETATM    3  C   UNL     1     -12.353  14.349  68.003  1.00  0.00     0.001 C  
HETATM    4  C   UNL     1     -11.750  11.937  68.386  1.00  0.00    -0.326 C  
ENDROOT
BRANCH   4   5
HETATM    5  N   UNL     1     -10.497  11.207  68.033  1.00  0.00    -0.181 N  
BRANCH   5   6
HETATM    6  C   UNL     1     -10.844   9.688  68.067  1.00  0.00    -0.196 C  
BRANCH   6   7
HETATM    7  C   UNL     1     -10.664   8.953  69.472  1.00  0.00    -0.199 C  
BRANCH   7   8
HETATM    8  C   UNL     1      -9.305   8.094  69.510  1.00  0.00    -0.155 C  
BRANCH   8   9
HETATM    9  N   UNL     1      -8.287   8.593  68.569  1.00  0.00    -0.122 N  
HETATM   10  C   UNL     1      -7.505   7.730  67.844  1.00  0.00    -0.104 C  
HETATM   11  H   UNL     1      -8.161   9.599  68.454  1.00  0.00     0.000 HD 
HETATM   12  O   UNL     1      -7.594   6.514  67.844  1.00  0.00    -0.099 OA 
BRANCH  10  13
HETATM   13  O   UNL     1      -6.615   8.436  67.095  1.00  0.00    -0.057 OA 
BRANCH  13  14
HETATM   14  C   UNL     1      -6.931   8.516  65.693  1.00  0.00    -0.071 C  
HETATM   15  C   UNL     1      -6.266   9.673  64.981  1.00  0.00    -0.087 C  
HETATM   16  O   UNL     1      -5.935   7.749  63.653  1.00  0.00    -0.056 OA 
HETATM   17  C   UNL     1      -6.127   9.165  63.567  1.00  0.00    -0.088 C  
HETATM   18  C   UNL     1      -6.356   7.313  64.954  1.00  0.00    -0.037 C  
ENDBRANCH  13  14
ENDBRANCH  10  13
ENDBRANCH   8   9
BRANCH   8  19
HETATM   19  C   UNL     1      -8.681   7.805  70.895  1.00  0.00    -0.137 C  
BRANCH  19  20
HETATM   20  C   UNL     1      -8.875   6.431  71.479  1.00  0.00    -0.137 A  
HETATM   21  C   UNL     1      -9.576   4.120  71.250  1.00  0.00    -0.242 A  
HETATM   22  C   UNL     1      -9.061   5.013  73.434  1.00  0.00    -0.121 A  
HETATM   23  C   UNL     1      -8.756   6.246  72.860  1.00  0.00    -0.125 A  
HETATM   24  C   UNL     1      -9.280   5.356  70.675  1.00  0.00    -0.183 A  
HETATM   25  C   UNL     1      -9.474   3.952  72.630  1.00  0.00    -0.166 A  
ENDBRANCH  19  20
ENDBRANCH   8  19
ENDBRANCH   7   8
BRANCH   7  26
HETATM   26  O   UNL     1     -11.892   8.261  69.910  1.00  0.00     0.278 OA 
HETATM   27  O   UNL     1     -13.142   9.086  72.826  1.00  0.00    -0.386 OA 
HETATM   28  O   UNL     1     -13.441   9.810  70.654  1.00  0.00    -0.181 OA 
HETATM   29  O   UNL     1     -11.296   9.646  71.829  1.00  0.00    -0.347 OA 
HETATM   30  P   UNL     1     -12.552   8.697  71.448  1.00  0.00    -0.212 P  
ENDBRANCH   7  26
ENDBRANCH   6   7
ENDBRANCH   5   6
BRANCH   5  31
HETATM   31  S   UNL     1      -9.434  11.538  66.738  1.00  0.00    -0.193 S  
HETATM   32  O   UNL     1      -9.477  10.442  65.792  1.00  0.00    -0.176 OA 
HETATM   33  O   UNL     1      -8.152  11.913  67.301  1.00  0.00    -0.154 OA 
BRANCH  31  34
HETATM   34  C   UNL     1     -10.014  12.940  65.855  1.00  0.00    -0.268 A  
HETATM   35  N   UNL     1     -11.445  16.410  64.012  1.00  0.00    -1.573 NA 
HETATM   36  C   UNL     1     -11.140  12.858  65.037  1.00  0.00    -0.320 A  
HETATM   37  H1  UNL     1     -10.964  17.300  64.142  1.00  0.00     0.000 HD 
HETATM   38  H2  UNL     1     -12.416  16.528  64.304  1.00  0.00     0.000 HD 
HETATM   39  C   UNL     1      -9.456  14.181  66.168  1.00  0.00    -0.229 A  
HETATM   40  C   UNL     1      -9.927  15.326  65.545  1.00  0.00    -0.383 A  
HETATM   41  C   UNL     1     -11.611  14.019  64.422  1.00  0.00    -0.385 A  
HETATM   42  C   UNL     1     -10.950  15.241  64.599  1.00  0.00    -0.304 A  
ENDBRANCH  31  34
ENDBRANCH   5  31
ENDBRANCH   4   5
TORSDOF 12
ENDMDL
MODEL      216
REMARK 921   NORMALIZED FREE ENERGY PREDICTED BY IDOCK:   -4.38 KCAL/MOL
REMARK 922        TOTAL FREE ENERGY PREDICTED BY IDOCK:  -10.25 KCAL/MOL
REMARK 923 INTER-LIGAND FREE ENERGY PREDICTED BY IDOCK:   -8.20 KCAL/MOL
REMARK 924 INTRA-LIGAND FREE ENERGY PREDICTED BY IDOCK:   -2.06 KCAL/MOL
REMARK 927      BINDING AFFINITY PREDICTED BY RF-SCORE:    0.00 PKD
ROOT
HETATM    1  C   UNL     1      -6.411  11.870  68.850  1.00  0.00    -0.073 C  
HETATM    2  C   UNL     1      -7.728  12.605  68.656  1.00  0.00    -0.066 C  
HETATM    3  C   UNL     1      -7.622  13.851  67.775  1.00  0.00    -0.175 C  
HETATM    4  C   UNL     1      -9.056  11.883  68.406  1.00  0.00    -0.167 C  
ENDROOT
BRANCH   4   5
HETATM    5  N   UNL     1      -9.293  10.609  67.666  1.00  0.00    -0.146 N  
BRANCH   5   6
HETATM    6  C   UNL     1     -10.568   9.965  68.290  1.00  0.00    -0.229 C  
BRANCH   6   7
HETATM    7  C   UNL     1     -10.329   8.707  69.243  1.00  0.00    -0.221 C  
BRANCH   7   8
HETATM    8  C   UNL     1      -9.536   7.537  68.476  1.00  0.00    -0.150 C  
BRANCH   8   9
HETATM    9  N   UNL     1      -8.432   6.974  69.274  1.00  0.00    -0.132 N  
HETATM   10  C   UNL     1      -7.141   7.404  69.102  1.00  0.00    -0.079 C  
HETATM   11  H   UNL     1      -8.632   6.253  69.967  1.00  0.00     0.000 HD 
HETATM   12  O   UNL     1      -6.778   8.296  68.354  1.00  0.00    -0.061 OA 
BRANCH  10  13
HETATM   13  O   UNL     1      -6.310   6.697  69.915  1.00  0.00    -0.036 OA 
BRANCH  13  14
HETATM   14  C   UNL     1      -6.825   6.441  71.234  1.00  0.00    -0.067 C  
HETATM   15  C   UNL     1      -6.268   5.190  71.875  1.00  0.00    -0.030 C  
HETATM   16  O   UNL     1      -6.134   6.918  73.479  1.00  0.00    -0.058 OA 
HETATM   17  C   UNL     1      -6.335   5.507  73.350  1.00  0.00    -0.065 C  
HETATM   18  C   UNL     1      -6.364   7.527  72.200  1.00  0.00    -0.043 C  
ENDBRANCH  13  14
ENDBRANCH  10  13
ENDBRANCH   8   9
BRANCH   8  19
HETATM   19  C   UNL     1     -10.377   6.411  67.828  1.00  0.00    -0.238 C  
BRANCH  19  20
HETATM   20  C   UNL     1      -9.857   5.790  66.559  1.00  0.00    -0.193 A  
HETATM   21  C   UNL     1     -10.045   4.152  64.779  1.00  0.00    -0.204 A  
HETATM   22  C   UNL     1      -8.024   5.454  65.011  1.00  0.00    -0.110 A  
HETATM   23  C   UNL     1      -8.574   6.116  66.107  1.00  0.00    -0.141 A  
HETATM   24  C   UNL     1     -10.594   4.807  65.882  1.00  0.00    -0.290 A  
HETATM   25  C   UNL     1      -8.758   4.471  64.350  1.00  0.00    -0.149 A  
ENDBRANCH  19  20
ENDBRANCH   8  19
ENDBRANCH   7   8
BRANCH   7  26
HETATM   26  O   UNL     1     -11.549   8.308  69.970  1.00  0.00    -0.015 OA 
HETATM   27  O   UNL     1     -11.323   7.907  73.216  1.00  0.00    -0.312 OA 
HETATM   28  O   UNL     1     -11.842   9.668  71.817  1.00  0.00    -0.386 OA 
HETATM   29  O   UNL     1      -9.822   8.287  71.693  1.00  0.00    -0.169 OA 
HETATM   30  P   UNL     1     -11.430   8.097  71.683  1.00  0.00    -0.315 P  
ENDBRANCH   7  26
ENDBRANCH   6   7
ENDBRANCH   5   6
BRANCH   5  31
HETATM   31  S   UNL     1      -9.287  10.377  65.973  1.00  0.00    -0.188 S  
HETATM   32  O   UNL     1      -9.979   9.145  65.657  1.00  0.00    -0.232 OA 
HETATM   33  O   UNL     1      -7.923  10.540  65.509  1.00  0.00    -0.155 OA 
BRANCH  31  34
HETATM   34  C   UNL     1     -10.224  11.648  65.209  1.00  0.00    -0.272 A  
HETATM   35  N   UNL     1     -12.617  14.697  63.638  1.00  0.00    -0.980 NA 
HETATM   36  C   UNL     1     -10.989  11.391  64.072  1.00  0.00    -0.428 A  
HETATM   37  H1  UNL     1     -12.624  15.622  64.068  1.00  0.00     0.000 HD 
HETATM   38  H2  UNL     1     -13.575  14.348  63.617  1.00  0.00     0.000 HD 
HETATM   39  C   UNL     1     -10.361  12.856  65.896  1.00  0.00    -0.297 A  
HETATM   40  C   UNL     1     -11.146  13.868  65.363  1.00  0.00    -0.310 A  
HETATM   41  C   UNL     1     -11.783  12.415  63.549  1.00  0.00    -0.592 A  
HETATM   42  C   UNL     1     -11.792  13.685  64.140  1.00  0.00    -0.422 A  
ENDBRANCH  31  34
ENDBRANCH   5  31
ENDBRANCH   4   5
TORSDOF 12
ENDMDL
MODEL      217
REMARK 921   NORMALIZED FREE ENERGY PREDICTED BY IDOCK:   -4.37 KCAL/MOL
REMARK 922        TOTAL FREE ENERGY PREDICTED BY IDOCK:  -10.24 KCAL/MOL
REMARK 923 INTER-LIGAND FREE ENERGY PREDICTED BY IDOCK:   -6.92 KCAL/MOL
REMARK 924 INTRA-LIGAND FREE ENERGY PREDICTED BY IDOCK:   -3.32 KCAL/MOL
REMARK 927      BINDING AFFINITY PREDICTED BY RF-SCORE:    0.00 PKD
ROOT
HETATM    1  C   UNL     1     -10.337   8.772  66.921  1.00  0.00    -0.344 C  
HETATM    2  C   UNL     1     -10.417   7.480  67.718  1.00  0.00    -0.288 C  
HETATM    3  C   UNL     1     -11.153   6.348  66.997  1.00  0.00    -0.405 C  
HETATM    4  C   UNL     1      -9.241   6.924  68.527  1.00  0.00    -0.129 C  
ENDROOT
BRANCH   4   5
HETATM    5  N   UNL     1      -7.782   7.018  68.225  1.00  0.00    -0.114 N  
BRANCH   5   6
HETATM    6  C   UNL     1      -7.034   6.472  69.478  1.00  0.00    -0.067 C  
BRANCH   6   7
HETATM    7  C   UNL     1      -7.831   6.533  70.860  1.00  0.00    -0.106 C  
BRANCH   7   8
HETATM    8  C   UNL     1      -7.609   7.945  71.598  1.00  0.00    -0.080 C  
BRANCH   8   9
HETATM    9  N   UNL     1      -7.187   9.013  70.674  1.00  0.00    -0.081 N  
HETATM   10  C   UNL     1      -6.315   9.993  71.073  1.00  0.00     0.030 C  
HETATM   11  H   UNL     1      -7.549   9.022  69.720  1.00  0.00     0.000 HD 
HETATM   12  O   UNL     1      -5.766  10.063  72.160  1.00  0.00    -0.293 OA 
BRANCH  10  13
HETATM   13  O   UNL     1      -6.128  10.882  70.059  1.00  0.00    -0.089 OA 
BRANCH  13  14
HETATM   14  C   UNL     1      -6.781  10.539  68.824  1.00  0.00    -0.054 C  
HETATM   15  C   UNL     1      -7.760  11.584  68.339  1.00  0.00    -0.129 C  
HETATM   16  O   UNL     1      -6.412  10.978  66.497  1.00  0.00    -0.112 OA 
HETATM   17  C   UNL     1      -7.735  11.401  66.841  1.00  0.00    -0.155 C  
HETATM   18  C   UNL     1      -5.767  10.497  67.686  1.00  0.00    -0.044 C  
ENDBRANCH  13  14
ENDBRANCH  10  13
ENDBRANCH   8   9
BRANCH   8  19
HETATM   19  C   UNL     1      -8.731   8.443  72.540  1.00  0.00    -0.277 C  
BRANCH  19  20
HETATM   20  C   UNL     1     -10.085   8.707  71.938  1.00  0.00    -0.398 A  
HETATM   21  C   UNL     1     -11.510   9.922  70.397  1.00  0.00    -0.372 A  
HETATM   22  C   UNL     1     -12.494   8.486  72.070  1.00  0.00    -0.417 A  
HETATM   23  C   UNL     1     -11.223   8.147  72.531  1.00  0.00    -0.459 A  
HETATM   24  C   UNL     1     -10.237   9.592  70.862  1.00  0.00    -0.356 A  
HETATM   25  C   UNL     1     -12.638   9.375  71.007  1.00  0.00    -0.291 A  
ENDBRANCH  19  20
ENDBRANCH   8  19
ENDBRANCH   7   8
BRANCH   7  26
HETATM   26  O   UNL     1      -7.633   5.324  71.682  1.00  0.00    -0.096 OA 
HETATM   27  O   UNL     1     -10.199   3.321  72.079  1.00  0.00    -0.141 OA 
HETATM   28  O   UNL     1      -8.462   3.475  70.566  1.00  0.00    -0.059 OA 
HETATM   29  O   UNL     1     -10.015   5.277  71.152  1.00  0.00    -0.182 OA 
HETATM   30  P   UNL     1      -8.987   4.267  71.890  1.00  0.00    -0.126 P  
ENDBRANCH   7  26
ENDBRANCH   6   7
ENDBRANCH   5   6
BRANCH   5  31
HETATM   31  S   UNL     1      -6.984   6.518  66.800  1.00  0.00    -0.069 S  
HETATM   32  O   UNL     1      -5.665   6.026  67.139  1.00  0.00    -0.015 OA 
HETATM   33  O   UNL     1      -7.093   7.590  65.831  1.00  0.00    -0.063 OA 
BRANCH  31  34
HETATM   34  C   UNL     1      -7.832   5.143  66.112  1.00  0.00    -0.103 A  
HETATM   35  N   UNL     1     -10.071   2.054  64.400  1.00  0.00    -0.344 NA 
HETATM   36  C   UNL     1      -8.234   4.074  66.912  1.00  0.00    -0.100 A  
HETATM   37  H1  UNL     1     -10.301   2.072  63.407  1.00  0.00     0.000 HD 
HETATM   38  H2  UNL     1     -10.942   1.985  64.928  1.00  0.00     0.000 HD 
HETATM   39  C   UNL     1      -8.288   5.254  64.797  1.00  0.00    -0.145 A  
HETATM   40  C   UNL     1      -9.019   4.221  64.231  1.00  0.00    -0.148 A  
HETATM   41  C   UNL     1      -8.978   3.044  66.334  1.00  0.00    -0.159 A  
HETATM   42  C   UNL     1      -9.294   3.068  64.969  1.00  0.00    -0.142 A  
ENDBRANCH  31  34
ENDBRANCH   5  31
ENDBRANCH   4   5
TORSDOF 12
ENDMDL
MODEL      218
REMARK 921   NORMALIZED FREE ENERGY PREDICTED BY IDOCK:   -4.36 KCAL/MOL
REMARK 922        TOTAL FREE ENERGY PREDICTED BY IDOCK:  -10.23 KCAL/MOL
REMARK 923 INTER-LIGAND FREE ENERGY PREDICTED BY IDOCK:   -8.97 KCAL/MOL
REMARK 924 INTRA-LIGAND FREE ENERGY PREDICTED BY IDOCK:   -1.26 KCAL/MOL
REMARK 927      BINDING AFFINITY PREDICTED BY RF-SCORE:    0.00 PKD
ROOT
HETATM    1  C   UNL     1      -6.876   9.638  65.554  1.00  0.00    -0.089 C  
HETATM    2  C   UNL     1      -6.401  10.425  66.765  1.00  0.00    -0.075 C  
HETATM    3  C   UNL     1      -5.598  11.680  66.416  1.00  0.00     0.012 C  
HETATM    4  C   UNL     1      -7.281  10.678  67.994  1.00  0.00    -0.087 C  
ENDROOT
BRANCH   4   5
HETATM    5  N   UNL     1      -8.760  10.874  68.050  1.00  0.00    -0.128 N  
BRANCH   5   6
HETATM    6  C   UNL     1      -9.064  12.179  67.255  1.00  0.00    -0.181 C  
BRANCH   6   7
HETATM    7  C   UNL     1      -8.901  13.550  68.058  1.00  0.00    -0.181 C  
BRANCH   7   8
HETATM    8  C   UNL     1     -10.316  14.296  68.228  1.00  0.00    -0.242 C  
BRANCH   8   9
HETATM    9  N   UNL     1     -10.301  15.675  67.710  1.00  0.00    -0.260 N  
HETATM   10  C   UNL     1     -10.574  16.744  68.525  1.00  0.00    -0.354 C  
HETATM   11  H   UNL     1     -10.083  15.838  66.727  1.00  0.00     0.000 HD 
HETATM   12  O   UNL     1     -10.790  16.690  69.724  1.00  0.00    -0.333 OA 
BRANCH  10  13
HETATM   13  O   UNL     1     -10.548  17.894  67.799  1.00  0.00    -0.392 OA 
BRANCH  13  14
HETATM   14  C   UNL     1      -9.557  18.852  68.215  1.00  0.00    -0.352 C  
HETATM   15  C   UNL     1      -8.153  18.513  67.768  1.00  0.00    -0.264 C  
HETATM   16  O   UNL     1      -8.521  20.789  67.257  1.00  0.00    -0.301 OA 
HETATM   17  C   UNL     1      -7.499  19.868  67.652  1.00  0.00    -0.285 C  
HETATM   18  C   UNL     1      -9.798  20.191  67.527  1.00  0.00    -0.435 C  
ENDBRANCH  13  14
ENDBRANCH  10  13
ENDBRANCH   8   9
BRANCH   8  19
HETATM   19  C   UNL     1     -11.582  13.543  67.756  1.00  0.00    -0.374 C  
BRANCH  19  20
HETATM   20  C   UNL     1     -11.916  13.585  66.289  1.00  0.00    -0.457 A  
HETATM   21  C   UNL     1     -12.966  12.605  64.334  1.00  0.00    -0.232 A  
HETATM   22  C   UNL     1     -11.479  14.492  64.085  1.00  0.00    -0.072 A  
HETATM   23  C   UNL     1     -11.284  14.523  65.465  1.00  0.00    -0.335 A  
HETATM   24  C   UNL     1     -12.765  12.629  65.715  1.00  0.00     0.297 A  
HETATM   25  C   UNL     1     -12.317  13.531  63.520  1.00  0.00    -0.343 A  
ENDBRANCH  19  20
ENDBRANCH   8  19
ENDBRANCH   7   8
BRANCH   7  26
HETATM   26  O   UNL     1      -7.782  14.369  67.556  1.00  0.00    -0.165 OA 
HETATM   27  O   UNL     1      -6.115  16.161  69.738  1.00  0.00    -0.167 OA 
HETATM   28  O   UNL     1      -5.911  14.030  68.874  1.00  0.00    -0.079 OA 
HETATM   29  O   UNL     1      -7.920  14.967  69.918  1.00  0.00    -0.094 OA 
HETATM   30  P   UNL     1      -6.902  15.314  68.708  1.00  0.00    -0.125 P  
ENDBRANCH   7  26
ENDBRANCH   6   7
ENDBRANCH   5   6
BRANCH   5  31
HETATM   31  S   UNL     1      -9.972   9.708  67.750  1.00  0.00    -0.182 S  
HETATM   32  O   UNL     1      -9.353   8.413  67.558  1.00  0.00    -0.143 OA 
HETATM   33  O   UNL     1     -10.834  10.223  66.705  1.00  0.00    -0.159 OA 
BRANCH  31  34
HETATM   34  C   UNL     1     -10.978   9.536  69.179  1.00  0.00    -0.125 A  
HETATM   35  N   UNL     1     -13.230   9.360  72.698  1.00  0.00    -0.549 NA 
HETATM   36  C   UNL     1     -10.920   8.385  69.963  1.00  0.00    -0.194 A  
HETATM   37  H1  UNL     1     -13.830  10.140  72.967  1.00  0.00     0.000 HD 
HETATM   38  H2  UNL     1     -12.580   9.179  73.463  1.00  0.00     0.000 HD 
HETATM   39  C   UNL     1     -11.663  10.666  69.630  1.00  0.00    -0.368 A  
HETATM   40  C   UNL     1     -12.418  10.598  70.791  1.00  0.00    -0.480 A  
HETATM   41  C   UNL     1     -11.677   8.331  71.135  1.00  0.00    -0.308 A  
HETATM   42  C   UNL     1     -12.502   9.401  71.504  1.00  0.00    -0.366 A  
ENDBRANCH  31  34
ENDBRANCH   5  31
ENDBRANCH   4   5
TORSDOF 12
ENDMDL
MODEL      219
REMARK 921   NORMALIZED FREE ENERGY PREDICTED BY IDOCK:   -4.36 KCAL/MOL
REMARK 922        TOTAL FREE ENERGY PREDICTED BY IDOCK:  -10.22 KCAL/MOL
REMARK 923 INTER-LIGAND FREE ENERGY PREDICTED BY IDOCK:   -9.46 KCAL/MOL
REMARK 924 INTRA-LIGAND FREE ENERGY PREDICTED BY IDOCK:   -0.76 KCAL/MOL
REMARK 927      BINDING AFFINITY PREDICTED BY RF-SCORE:    0.00 PKD
ROOT
HETATM    1  C   UNL     1      -8.793   7.316  68.608  1.00  0.00    -0.129 C  
HETATM    2  C   UNL     1      -9.636   7.919  67.496  1.00  0.00    -0.190 C  
HETATM    3  C   UNL     1     -10.847   7.070  67.103  1.00  0.00    -0.427 C  
HETATM    4  C   UNL     1      -9.981   9.410  67.425  1.00  0.00    -0.199 C  
ENDROOT
BRANCH   4   5
HETATM    5  N   UNL     1     -10.218  10.360  68.552  1.00  0.00    -0.165 N  
BRANCH   5   6
HETATM    6  C   UNL     1      -8.827  10.946  68.937  1.00  0.00    -0.138 C  
BRANCH   6   7
HETATM    7  C   UNL     1      -8.119  11.866  67.841  1.00  0.00    -0.147 C  
BRANCH   7   8
HETATM    8  C   UNL     1      -8.515  13.413  68.035  1.00  0.00    -0.173 C  
BRANCH   8   9
HETATM    9  N   UNL     1      -7.672  14.098  69.032  1.00  0.00    -0.275 N  
HETATM   10  C   UNL     1      -6.414  14.541  68.713  1.00  0.00    -0.089 C  
HETATM   11  H   UNL     1      -8.031  14.245  69.975  1.00  0.00     0.000 HD 
HETATM   12  O   UNL     1      -5.892  14.481  67.613  1.00  0.00    -0.298 OA 
BRANCH  10  13
HETATM   13  O   UNL     1      -5.828  15.088  69.813  1.00  0.00    -0.105 OA 
BRANCH  13  14
HETATM   14  C   UNL     1      -5.360  16.438  69.644  1.00  0.00    -0.136 C  
HETATM   15  C   UNL     1      -6.325  17.330  68.897  1.00  0.00    -0.199 C  
HETATM   16  O   UNL     1      -5.619  18.513  70.815  1.00  0.00    -0.225 OA 
HETATM   17  C   UNL     1      -6.020  18.700  69.454  1.00  0.00    -0.252 C  
HETATM   18  C   UNL     1      -5.262  17.135  70.997  1.00  0.00    -0.151 C  
ENDBRANCH  13  14
ENDBRANCH  10  13
ENDBRANCH   8   9
BRANCH   8  19
HETATM   19  C   UNL     1      -8.672  14.275  66.761  1.00  0.00    -0.161 C  
BRANCH  19  20
HETATM   20  C   UNL     1      -9.275  15.646  66.912  1.00  0.00    -0.257 A  
HETATM   21  C   UNL     1      -9.299  18.012  66.378  1.00  0.00    -0.267 A  
HETATM   22  C   UNL     1     -10.696  17.164  68.156  1.00  0.00    -0.366 A  
HETATM   23  C   UNL     1     -10.225  15.875  67.914  1.00  0.00    -0.251 A  
HETATM   24  C   UNL     1      -8.820  16.724  66.139  1.00  0.00    -0.298 A  
HETATM   25  C   UNL     1     -10.230  18.232  67.391  1.00  0.00    -0.385 A  
ENDBRANCH  19  20
ENDBRANCH   8  19
ENDBRANCH   7   8
BRANCH   7  26
HETATM   26  O   UNL     1      -8.248  11.321  66.476  1.00  0.00    -0.163 OA 
HETATM   27  O   UNL     1      -5.487  10.589  64.866  1.00  0.00    -0.123 OA 
HETATM   28  O   UNL     1      -6.923   9.437  66.257  1.00  0.00    -0.084 OA 
HETATM   29  O   UNL     1      -5.838  11.573  66.770  1.00  0.00    -0.120 OA 
HETATM   30  P   UNL     1      -6.791  10.935  65.627  1.00  0.00     0.249 P  
ENDBRANCH   7  26
ENDBRANCH   6   7
ENDBRANCH   5   6
BRANCH   5  31
HETATM   31  S   UNL     1     -11.415  11.576  68.648  1.00  0.00    -0.323 S  
HETATM   32  O   UNL     1     -10.944  12.643  69.507  1.00  0.00    -0.065 OA 
HETATM   33  O   UNL     1     -12.673  10.934  68.972  1.00  0.00    -0.239 OA 
BRANCH  31  34
HETATM   34  C   UNL     1     -11.627  12.309  67.067  1.00  0.00    -0.349 A  
HETATM   35  N   UNL     1     -12.426  14.047  63.349  1.00  0.00    -1.123 NA 
HETATM   36  C   UNL     1     -11.225  11.645  65.909  1.00  0.00    -0.296 A  
HETATM   37  H1  UNL     1     -12.888  14.954  63.292  1.00  0.00     0.000 HD 
HETATM   38  H2  UNL     1     -12.975  13.375  62.813  1.00  0.00     0.000 HD 
HETATM   39  C   UNL     1     -12.408  13.463  66.987  1.00  0.00    -0.231 A  
HETATM   40  C   UNL     1     -12.659  14.042  65.752  1.00  0.00    -0.512 A  
HETATM   41  C   UNL     1     -11.491  12.232  64.670  1.00  0.00    -0.392 A  
HETATM   42  C   UNL     1     -12.126  13.479  64.591  1.00  0.00    -0.409 A  
ENDBRANCH  31  34
ENDBRANCH   5  31
ENDBRANCH   4   5
TORSDOF 12
ENDMDL
MODEL      220
REMARK 921   NORMALIZED FREE ENERGY PREDICTED BY IDOCK:   -4.35 KCAL/MOL
REMARK 922        TOTAL FREE ENERGY PREDICTED BY IDOCK:  -10.20 KCAL/MOL
REMARK 923 INTER-LIGAND FREE ENERGY PREDICTED BY IDOCK:   -8.98 KCAL/MOL
REMARK 924 INTRA-LIGAND FREE ENERGY PREDICTED BY IDOCK:   -1.23 KCAL/MOL
REMARK 927      BINDING AFFINITY PREDICTED BY RF-SCORE:    0.00 PKD
ROOT
HETATM    1  C   UNL     1      -6.430  10.618  69.271  1.00  0.00    -0.062 C  
HETATM    2  C   UNL     1      -6.224  10.618  67.765  1.00  0.00    -0.054 C  
HETATM    3  C   UNL     1      -5.132   9.658  67.286  1.00  0.00    -0.035 C  
HETATM    4  C   UNL     1      -7.383  10.653  66.764  1.00  0.00    -0.120 C  
ENDROOT
BRANCH   4   5
HETATM    5  N   UNL     1      -8.740  10.046  66.897  1.00  0.00    -0.129 N  
BRANCH   5   6
HETATM    6  C   UNL     1      -9.638  10.729  65.822  1.00  0.00    -0.208 C  
BRANCH   6   7
HETATM    7  C   UNL     1     -10.693  11.801  66.360  1.00  0.00    -0.266 C  
BRANCH   7   8
HETATM    8  C   UNL     1     -10.732  11.822  67.968  1.00  0.00    -0.208 C  
BRANCH   8   9
HETATM    9  N   UNL     1     -10.810  13.186  68.520  1.00  0.00    -0.255 N  
HETATM   10  C   UNL     1     -11.834  14.033  68.180  1.00  0.00    -0.367 C  
HETATM   11  H   UNL     1     -10.089  13.507  69.167  1.00  0.00     0.000 HD 
HETATM   12  O   UNL     1     -12.784  13.755  67.468  1.00  0.00     0.193 OA 
BRANCH  10  13
HETATM   13  O   UNL     1     -11.649  15.241  68.778  1.00  0.00    -0.326 OA 
BRANCH  13  14
HETATM   14  C   UNL     1     -11.538  15.198  70.212  1.00  0.00    -0.289 C  
HETATM   15  C   UNL     1     -11.274  16.545  70.846  1.00  0.00    -0.034 C  
HETATM   16  O   UNL     1     -13.019  15.525  72.067  1.00  0.00    -0.375 OA 
HETATM   17  C   UNL     1     -11.898  16.404  72.213  1.00  0.00    -0.445 C  
HETATM   18  C   UNL     1     -12.876  14.809  70.832  1.00  0.00    -0.362 C  
ENDBRANCH  13  14
ENDBRANCH  10  13
ENDBRANCH   8   9
BRANCH   8  19
HETATM   19  C   UNL     1     -11.743  10.885  68.670  1.00  0.00    -0.334 C  
BRANCH  19  20
HETATM   20  C   UNL     1     -11.234  10.017  69.790  1.00  0.00    -0.307 A  
HETATM   21  C   UNL     1     -11.638   8.655  71.756  1.00  0.00    -0.403 A  
HETATM   22  C   UNL     1      -9.380   9.270  71.159  1.00  0.00    -0.259 A  
HETATM   23  C   UNL     1      -9.859   9.960  70.047  1.00  0.00    -0.291 A  
HETATM   24  C   UNL     1     -12.121   9.353  70.648  1.00  0.00    -0.191 A  
HETATM   25  C   UNL     1     -10.268   8.621  72.014  1.00  0.00    -0.407 A  
ENDBRANCH  19  20
ENDBRANCH   8  19
ENDBRANCH   7   8
BRANCH   7  26
HETATM   26  O   UNL     1     -11.994  11.709  65.672  1.00  0.00    -0.262 OA 
HETATM   27  O   UNL     1     -12.560  13.799  63.210  1.00  0.00    -0.830 OA 
HETATM   28  O   UNL     1     -11.668  11.677  63.382  1.00  0.00    -0.402 OA 
HETATM   29  O   UNL     1     -10.931  13.647  64.638  1.00  0.00    -0.357 OA 
HETATM   30  P   UNL     1     -12.292  12.812  64.373  1.00  0.00    -0.395 P  
ENDBRANCH   7  26
ENDBRANCH   6   7
ENDBRANCH   5   6
BRANCH   5  31
HETATM   31  S   UNL     1      -9.126   8.385  67.015  1.00  0.00    -0.150 S  
HETATM   32  O   UNL     1     -10.555   8.215  66.854  1.00  0.00    -0.329 OA 
HETATM   33  O   UNL     1      -8.500   7.870  68.216  1.00  0.00    -0.123 OA 
BRANCH  31  34
HETATM   34  C   UNL     1      -8.399   7.523  65.670  1.00  0.00    -0.140 A  
HETATM   35  N   UNL     1      -6.571   5.266  62.661  1.00  0.00    -0.025 NA 
HETATM   36  C   UNL     1      -7.384   8.103  64.910  1.00  0.00    -0.087 A  
HETATM   37  H1  UNL     1      -6.879   4.313  62.471  1.00  0.00     0.000 HD 
HETATM   38  H2  UNL     1      -5.572   5.244  62.865  1.00  0.00     0.000 HD 
HETATM   39  C   UNL     1      -8.704   6.168  65.526  1.00  0.00    -0.105 A  
HETATM   40  C   UNL     1      -8.104   5.428  64.519  1.00  0.00    -0.122 A  
HETATM   41  C   UNL     1      -6.780   7.346  63.904  1.00  0.00    -0.052 A  
HETATM   42  C   UNL     1      -7.203   6.036  63.643  1.00  0.00    -0.060 A  
ENDBRANCH  31  34
ENDBRANCH   5  31
ENDBRANCH   4   5
TORSDOF 12
ENDMDL
MODEL      221
REMARK 921   NORMALIZED FREE ENERGY PREDICTED BY IDOCK:   -4.35 KCAL/MOL
REMARK 922        TOTAL FREE ENERGY PREDICTED BY IDOCK:  -10.20 KCAL/MOL
REMARK 923 INTER-LIGAND FREE ENERGY PREDICTED BY IDOCK:   -9.07 KCAL/MOL
REMARK 924 INTRA-LIGAND FREE ENERGY PREDICTED BY IDOCK:   -1.14 KCAL/MOL
REMARK 927      BINDING AFFINITY PREDICTED BY RF-SCORE:    0.00 PKD
ROOT
HETATM    1  C   UNL     1     -11.669   8.729  72.377  1.00  0.00    -0.337 C  
HETATM    2  C   UNL     1     -10.919   8.079  71.226  1.00  0.00    -0.269 C  
HETATM    3  C   UNL     1     -11.650   6.891  70.597  1.00  0.00    -0.402 C  
HETATM    4  C   UNL     1     -10.181   8.885  70.151  1.00  0.00    -0.196 C  
ENDROOT
BRANCH   4   5
HETATM    5  N   UNL     1     -10.540  10.217  69.582  1.00  0.00    -0.239 N  
BRANCH   5   6
HETATM    6  C   UNL     1      -9.725  10.370  68.264  1.00  0.00    -0.151 C  
BRANCH   6   7
HETATM    7  C   UNL     1      -8.323  11.125  68.383  1.00  0.00    -0.149 C  
BRANCH   7   8
HETATM    8  C   UNL     1      -8.050  12.052  67.097  1.00  0.00    -0.177 C  
BRANCH   8   9
HETATM    9  N   UNL     1      -7.760  11.271  65.881  1.00  0.00    -0.372 N  
HETATM   10  C   UNL     1      -6.470  11.022  65.487  1.00  0.00     0.171 C  
HETATM   11  H   UNL     1      -8.533  10.910  65.322  1.00  0.00     0.000 HD 
HETATM   12  O   UNL     1      -5.463  11.344  66.094  1.00  0.00    -0.195 OA 
BRANCH  10  13
HETATM   13  O   UNL     1      -6.473  10.332  64.315  1.00  0.00    -0.130 OA 
BRANCH  13  14
HETATM   14  C   UNL     1      -6.920   8.968  64.414  1.00  0.00    -0.089 C  
HETATM   15  C   UNL     1      -8.228   8.700  63.705  1.00  0.00    -0.148 C  
HETATM   16  O   UNL     1      -6.728   6.987  63.078  1.00  0.00    -0.049 OA 
HETATM   17  C   UNL     1      -8.115   7.244  63.324  1.00  0.00    -0.011 C  
HETATM   18  C   UNL     1      -5.960   8.043  63.674  1.00  0.00    -0.063 C  
ENDBRANCH  13  14
ENDBRANCH  10  13
ENDBRANCH   8   9
BRANCH   8  19
HETATM   19  C   UNL     1      -9.067  13.178  66.800  1.00  0.00    -0.214 C  
BRANCH  19  20
HETATM   20  C   UNL     1     -10.129  12.909  65.768  1.00  0.00    -0.294 A  
HETATM   21  C   UNL     1     -11.181  11.432  64.156  1.00  0.00    -0.327 A  
HETATM   22  C   UNL     1     -11.802  13.765  64.238  1.00  0.00    -0.451 A  
HETATM   23  C   UNL     1     -10.907  13.969  65.286  1.00  0.00    -0.352 A  
HETATM   24  C   UNL     1     -10.277  11.636  65.200  1.00  0.00    -0.319 A  
HETATM   25  C   UNL     1     -11.936  12.499  63.671  1.00  0.00    -0.621 A  
ENDBRANCH  19  20
ENDBRANCH   8  19
ENDBRANCH   7   8
BRANCH   7  26
HETATM   26  O   UNL     1      -7.227  10.224  68.788  1.00  0.00    -0.076 OA 
HETATM   27  O   UNL     1      -5.329  11.170  71.288  1.00  0.00    -0.228 OA 
HETATM   28  O   UNL     1      -7.264   9.929  71.083  1.00  0.00    -0.305 OA 
HETATM   29  O   UNL     1      -6.910  12.188  70.202  1.00  0.00     0.164 OA 
HETATM   30  P   UNL     1      -6.226  10.723  70.108  1.00  0.00    -0.126 P  
ENDBRANCH   7  26
ENDBRANCH   6   7
ENDBRANCH   5   6
BRANCH   5  31
HETATM   31  S   UNL     1     -12.106  10.871  69.384  1.00  0.00    -0.205 S  
HETATM   32  O   UNL     1     -13.076   9.979  69.983  1.00  0.00     0.121 OA 
HETATM   33  O   UNL     1     -12.265  11.225  67.987  1.00  0.00    -0.621 OA 
BRANCH  31  34
HETATM   34  C   UNL     1     -12.228  12.370  70.289  1.00  0.00    -0.267 A  
HETATM   35  N   UNL     1     -12.222  15.952  72.447  1.00  0.00    -0.451 NA 
HETATM   36  C   UNL     1     -12.797  12.395  71.562  1.00  0.00    -0.377 A  
HETATM   37  H1  UNL     1     -11.828  16.800  72.039  1.00  0.00     0.000 HD 
HETATM   38  H2  UNL     1     -11.743  15.771  73.330  1.00  0.00     0.000 HD 
HETATM   39  C   UNL     1     -11.540  13.482  69.799  1.00  0.00    -0.313 A  
HETATM   40  C   UNL     1     -11.552  14.670  70.514  1.00  0.00    -0.319 A  
HETATM   41  C   UNL     1     -12.796  13.595  72.276  1.00  0.00    -0.332 A  
HETATM   42  C   UNL     1     -12.256  14.760  71.715  1.00  0.00    -0.347 A  
ENDBRANCH  31  34
ENDBRANCH   5  31
ENDBRANCH   4   5
TORSDOF 12
ENDMDL
MODEL      222
REMARK 921   NORMALIZED FREE ENERGY PREDICTED BY IDOCK:   -4.32 KCAL/MOL
REMARK 922        TOTAL FREE ENERGY PREDICTED BY IDOCK:  -10.16 KCAL/MOL
REMARK 923 INTER-LIGAND FREE ENERGY PREDICTED BY IDOCK:   -6.60 KCAL/MOL
REMARK 924 INTRA-LIGAND FREE ENERGY PREDICTED BY IDOCK:   -3.56 KCAL/MOL
REMARK 927      BINDING AFFINITY PREDICTED BY RF-SCORE:    0.00 PKD
ROOT
HETATM    1  C   UNL     1      -9.782  13.941  68.579  1.00  0.00    -0.202 C  
HETATM    2  C   UNL     1     -11.070  13.139  68.662  1.00  0.00    -0.304 C  
HETATM    3  C   UNL     1     -12.146  13.585  67.669  1.00  0.00    -0.321 C  
HETATM    4  C   UNL     1     -11.096  11.617  68.832  1.00  0.00    -0.232 C  
ENDROOT
BRANCH   4   5
HETATM    5  N   UNL     1     -10.131  10.609  68.301  1.00  0.00    -0.153 N  
BRANCH   5   6
HETATM    6  C   UNL     1     -10.647   9.214  68.764  1.00  0.00    -0.181 C  
BRANCH   6   7
HETATM    7  C   UNL     1     -10.864   9.026  70.335  1.00  0.00    -0.246 C  
BRANCH   7   8
HETATM    8  C   UNL     1      -9.478   8.687  71.077  1.00  0.00    -0.207 C  
BRANCH   8   9
HETATM    9  N   UNL     1      -9.645   7.743  72.197  1.00  0.00    -0.166 N  
HETATM   10  C   UNL     1      -8.940   7.894  73.364  1.00  0.00    -0.277 C  
HETATM   11  H   UNL     1     -10.297   6.964  72.103  1.00  0.00     0.000 HD 
HETATM   12  O   UNL     1      -8.178   8.810  73.625  1.00  0.00    -0.366 OA 
BRANCH  10  13
HETATM   13  O   UNL     1      -9.233   6.872  74.213  1.00  0.00    -0.194 OA 
BRANCH  13  14
HETATM   14  C   UNL     1      -9.555   5.624  73.572  1.00  0.00    -0.140 C  
HETATM   15  C   UNL     1      -8.378   4.686  73.432  1.00  0.00    -0.103 C  
HETATM   16  O   UNL     1     -10.180   3.426  74.291  1.00  0.00    -0.140 OA 
HETATM   17  C   UNL     1      -9.027   3.324  73.450  1.00  0.00    -0.086 C  
HETATM   18  C   UNL     1     -10.508   4.815  74.444  1.00  0.00    -0.285 C  
ENDBRANCH  13  14
ENDBRANCH  10  13
ENDBRANCH   8   9
BRANCH   8  19
HETATM   19  C   UNL     1      -8.274   8.285  70.193  1.00  0.00    -0.118 C  
BRANCH  19  20
HETATM   20  C   UNL     1      -7.946   6.820  70.079  1.00  0.00    -0.116 A  
HETATM   21  C   UNL     1      -6.319   5.026  69.943  1.00  0.00    -0.030 A  
HETATM   22  C   UNL     1      -8.654   4.571  69.524  1.00  0.00    -0.105 A  
HETATM   23  C   UNL     1      -8.960   5.909  69.764  1.00  0.00    -0.135 A  
HETATM   24  C   UNL     1      -6.623   6.368  70.174  1.00  0.00    -0.045 A  
HETATM   25  C   UNL     1      -7.335   4.130  69.610  1.00  0.00    -0.050 A  
ENDBRANCH  19  20
ENDBRANCH   8  19
ENDBRANCH   7   8
BRANCH   7  26
HETATM   26  O   UNL     1     -12.009   8.149  70.646  1.00  0.00    -0.185 OA 
HETATM   27  O   UNL     1     -14.214   9.242  72.813  1.00  0.00    -0.502 OA 
HETATM   28  O   UNL     1     -13.978   9.356  70.520  1.00  0.00     0.205 OA 
HETATM   29  O   UNL     1     -12.297  10.035  72.168  1.00  0.00    -0.262 OA 
HETATM   30  P   UNL     1     -13.172   8.726  71.789  1.00  0.00    -0.387 P  
ENDBRANCH   7  26
ENDBRANCH   6   7
ENDBRANCH   5   6
BRANCH   5  31
HETATM   31  S   UNL     1      -9.505  10.508  66.715  1.00  0.00    -0.166 S  
HETATM   32  O   UNL     1      -8.499  11.532  66.531  1.00  0.00    -0.170 OA 
HETATM   33  O   UNL     1     -10.627  10.471  65.798  1.00  0.00    -0.176 OA 
BRANCH  31  34
HETATM   34  C   UNL     1      -8.659   8.982  66.521  1.00  0.00    -0.120 A  
HETATM   35  N   UNL     1      -6.817   5.236  66.272  1.00  0.00    -0.057 NA 
HETATM   36  C   UNL     1      -7.295   8.878  66.793  1.00  0.00    -0.082 A  
HETATM   37  H1  UNL     1      -7.354   4.414  65.995  1.00  0.00     0.000 HD 
HETATM   38  H2  UNL     1      -6.392   5.048  67.180  1.00  0.00     0.000 HD 
HETATM   39  C   UNL     1      -9.428   7.836  66.308  1.00  0.00    -0.201 A  
HETATM   40  C   UNL     1      -8.809   6.598  66.214  1.00  0.00    -0.156 A  
HETATM   41  C   UNL     1      -6.685   7.625  66.704  1.00  0.00    -0.062 A  
HETATM   42  C   UNL     1      -7.422   6.496  66.323  1.00  0.00    -0.081 A  
ENDBRANCH  31  34
ENDBRANCH   5  31
ENDBRANCH   4   5
TORSDOF 12
ENDMDL
MODEL      223
REMARK 921   NORMALIZED FREE ENERGY PREDICTED BY IDOCK:   -4.32 KCAL/MOL
REMARK 922        TOTAL FREE ENERGY PREDICTED BY IDOCK:  -10.16 KCAL/MOL
REMARK 923 INTER-LIGAND FREE ENERGY PREDICTED BY IDOCK:   -6.98 KCAL/MOL
REMARK 924 INTRA-LIGAND FREE ENERGY PREDICTED BY IDOCK:   -3.17 KCAL/MOL
REMARK 927      BINDING AFFINITY PREDICTED BY RF-SCORE:    0.00 PKD
ROOT
HETATM    1  C   UNL     1     -11.648  11.982  69.546  1.00  0.00    -0.389 C  
HETATM    2  C   UNL     1     -11.329  11.196  68.284  1.00  0.00    -0.365 C  
HETATM    3  C   UNL     1     -10.503  11.974  67.258  1.00  0.00    -0.241 C  
HETATM    4  C   UNL     1     -10.909   9.722  68.303  1.00  0.00    -0.210 C  
ENDROOT
BRANCH   4   5
HETATM    5  N   UNL     1     -10.110   9.000  69.336  1.00  0.00    -0.192 N  
BRANCH   5   6
HETATM    6  C   UNL     1     -10.664   7.545  69.388  1.00  0.00    -0.193 C  
BRANCH   6   7
HETATM    7  C   UNL     1     -11.225   7.051  70.799  1.00  0.00    -0.285 C  
BRANCH   7   8
HETATM    8  C   UNL     1     -10.528   5.674  71.252  1.00  0.00    -0.236 C  
BRANCH   8   9
HETATM    9  N   UNL     1      -9.571   5.162  70.255  1.00  0.00    -0.170 N  
HETATM   10  C   UNL     1      -9.250   3.830  70.198  1.00  0.00    -0.148 C  
HETATM   11  H   UNL     1      -9.140   5.810  69.596  1.00  0.00     0.000 HD 
HETATM   12  O   UNL     1      -9.735   2.947  70.886  1.00  0.00    -0.154 OA 
BRANCH  10  13
HETATM   13  O   UNL     1      -8.312   3.624  69.234  1.00  0.00    -0.063 OA 
BRANCH  13  14
HETATM   14  C   UNL     1      -8.775   3.820  67.885  1.00  0.00    -0.104 C  
HETATM   15  C   UNL     1      -7.702   4.294  66.932  1.00  0.00    -0.093 C  
HETATM   16  O   UNL     1      -8.839   2.514  65.877  1.00  0.00    -0.124 OA 
HETATM   17  C   UNL     1      -8.162   3.745  65.604  1.00  0.00    -0.105 C  
HETATM   18  C   UNL     1      -9.183   2.485  67.270  1.00  0.00    -0.130 C  
ENDBRANCH  13  14
ENDBRANCH  10  13
ENDBRANCH   8   9
BRANCH   8  19
HETATM   19  C   UNL     1      -9.927   5.613  72.676  1.00  0.00    -0.198 C  
BRANCH  19  20
HETATM   20  C   UNL     1      -8.734   6.482  72.971  1.00  0.00    -0.130 A  
HETATM   21  C   UNL     1      -7.790   8.585  73.727  1.00  0.00    -0.092 A  
HETATM   22  C   UNL     1      -6.371   6.931  72.685  1.00  0.00    -0.053 A  
HETATM   23  C   UNL     1      -7.465   6.081  72.539  1.00  0.00    -0.098 A  
HETATM   24  C   UNL     1      -8.888   7.738  73.574  1.00  0.00    -0.312 A  
HETATM   25  C   UNL     1      -6.534   8.183  73.275  1.00  0.00    -0.107 A  
ENDBRANCH  19  20
ENDBRANCH   8  19
ENDBRANCH   7   8
BRANCH   7  26
HETATM   26  O   UNL     1     -12.697   7.098  70.870  1.00  0.00    -0.314 OA 
HETATM   27  O   UNL     1     -14.051   9.312  72.875  1.00  0.00    -0.443 OA 
HETATM   28  O   UNL     1     -13.423   9.284  70.654  1.00  0.00     0.099 OA 
HETATM   29  O   UNL     1     -11.987   8.714  72.556  1.00  0.00    -0.368 OA 
HETATM   30  P   UNL     1     -13.411   8.267  71.928  1.00  0.00    -0.297 P  
ENDBRANCH   7  26
ENDBRANCH   6   7
ENDBRANCH   5   6
BRANCH   5  31
HETATM   31  S   UNL     1      -8.410   8.987  69.510  1.00  0.00    -0.122 S  
HETATM   32  O   UNL     1      -7.950   7.618  69.608  1.00  0.00    -0.118 OA 
HETATM   33  O   UNL     1      -8.067   9.908  70.575  1.00  0.00    -0.230 OA 
BRANCH  31  34
HETATM   34  C   UNL     1      -7.673   9.624  68.050  1.00  0.00    -0.086 A  
HETATM   35  N   UNL     1      -5.705  10.934  64.600  1.00  0.00    -0.401 NA 
HETATM   36  C   UNL     1      -7.179  10.928  68.005  1.00  0.00    -0.086 A  
HETATM   37  H1  UNL     1      -5.607  10.315  63.795  1.00  0.00     0.000 HD 
HETATM   38  H2  UNL     1      -4.773  11.240  64.882  1.00  0.00     0.000 HD 
HETATM   39  C   UNL     1      -7.391   8.725  67.019  1.00  0.00    -0.080 A  
HETATM   40  C   UNL     1      -6.750   9.168  65.873  1.00  0.00    -0.079 A  
HETATM   41  C   UNL     1      -6.527  11.360  66.849  1.00  0.00    -0.138 A  
HETATM   42  C   UNL     1      -6.392  10.511  65.743  1.00  0.00    -0.129 A  
ENDBRANCH  31  34
ENDBRANCH   5  31
ENDBRANCH   4   5
TORSDOF 12
ENDMDL
MODEL      224
REMARK 921   NORMALIZED FREE ENERGY PREDICTED BY IDOCK:   -4.32 KCAL/MOL
REMARK 922        TOTAL FREE ENERGY PREDICTED BY IDOCK:  -10.15 KCAL/MOL
REMARK 923 INTER-LIGAND FREE ENERGY PREDICTED BY IDOCK:   -9.17 KCAL/MOL
REMARK 924 INTRA-LIGAND FREE ENERGY PREDICTED BY IDOCK:   -0.99 KCAL/MOL
REMARK 927      BINDING AFFINITY PREDICTED BY RF-SCORE:    0.00 PKD
ROOT
HETATM    1  C   UNL     1      -6.094  19.148  67.936  1.00  0.00    -0.218 C  
HETATM    2  C   UNL     1      -7.130  18.652  66.940  1.00  0.00    -0.218 C  
HETATM    3  C   UNL     1      -6.637  18.620  65.491  1.00  0.00    -0.307 C  
HETATM    4  C   UNL     1      -8.051  17.459  67.218  1.00  0.00    -0.201 C  
ENDROOT
BRANCH   4   5
HETATM    5  N   UNL     1      -7.758  16.227  68.009  1.00  0.00    -0.145 N  
BRANCH   5   6
HETATM    6  C   UNL     1      -9.136  15.625  68.417  1.00  0.00    -0.190 C  
BRANCH   6   7
HETATM    7  C   UNL     1     -10.101  15.194  67.220  1.00  0.00    -0.235 C  
BRANCH   7   8
HETATM    8  C   UNL     1     -10.512  13.643  67.334  1.00  0.00    -0.251 C  
BRANCH   8   9
HETATM    9  N   UNL     1     -10.206  12.879  66.111  1.00  0.00    -0.272 N  
HETATM   10  C   UNL     1     -11.203  12.303  65.365  1.00  0.00    -0.328 C  
HETATM   11  H   UNL     1      -9.235  12.777  65.814  1.00  0.00     0.000 HD 
HETATM   12  O   UNL     1     -12.400  12.399  65.577  1.00  0.00    -0.621 OA 
BRANCH  10  13
HETATM   13  O   UNL     1     -10.658  11.616  64.324  1.00  0.00    -0.290 OA 
BRANCH  13  14
HETATM   14  C   UNL     1      -9.436  10.920  64.630  1.00  0.00    -0.244 C  
HETATM   15  C   UNL     1      -9.508  10.080  65.885  1.00  0.00    -0.260 C  
HETATM   16  O   UNL     1      -8.538   8.741  64.199  1.00  0.00    -0.158 OA 
HETATM   17  C   UNL     1      -8.514   8.978  65.611  1.00  0.00    -0.150 C  
HETATM   18  C   UNL     1      -9.145   9.873  63.560  1.00  0.00    -0.256 C  
ENDBRANCH  13  14
ENDBRANCH  10  13
ENDBRANCH   8   9
BRANCH   8  19
HETATM   19  C   UNL     1     -10.053  12.873  68.594  1.00  0.00    -0.136 C  
BRANCH  19  20
HETATM   20  C   UNL     1     -11.098  12.127  69.380  1.00  0.00    -0.183 A  
HETATM   21  C   UNL     1     -12.828  12.082  71.080  1.00  0.00    -0.331 A  
HETATM   22  C   UNL     1     -12.020  10.015  70.127  1.00  0.00    -0.204 A  
HETATM   23  C   UNL     1     -11.149  10.731  69.308  1.00  0.00    -0.312 A  
HETATM   24  C   UNL     1     -11.950  12.800  70.267  1.00  0.00    -0.358 A  
HETATM   25  C   UNL     1     -12.856  10.690  71.015  1.00  0.00    -0.496 A  
ENDBRANCH  19  20
ENDBRANCH   8  19
ENDBRANCH   7   8
BRANCH   7  26
HETATM   26  O   UNL     1      -9.611  15.649  65.905  1.00  0.00    -0.318 OA 
HETATM   27  O   UNL     1     -11.847  16.452  63.646  1.00  0.00    -0.871 OA 
HETATM   28  O   UNL     1     -10.704  17.594  65.293  1.00  0.00    -0.649 OA 
HETATM   29  O   UNL     1     -12.033  15.562  65.618  1.00  0.00     0.236 OA 
HETATM   30  P   UNL     1     -10.791  16.073  64.714  1.00  0.00     0.132 P  
ENDBRANCH   7  26
ENDBRANCH   6   7
ENDBRANCH   5   6
BRANCH   5  31
HETATM   31  S   UNL     1      -6.664  14.976  67.612  1.00  0.00    -0.155 S  
HETATM   32  O   UNL     1      -5.466  15.553  67.038  1.00  0.00    -0.260 OA 
HETATM   33  O   UNL     1      -7.387  13.983  66.843  1.00  0.00     0.140 OA 
BRANCH  31  34
HETATM   34  C   UNL     1      -6.139  14.176  69.083  1.00  0.00    -0.097 A  
HETATM   35  N   UNL     1      -5.156  12.143  72.602  1.00  0.00    -0.336 NA 
HETATM   36  C   UNL     1      -5.798  14.911  70.217  1.00  0.00    -0.149 A  
HETATM   37  H1  UNL     1      -5.144  11.123  72.624  1.00  0.00     0.000 HD 
HETATM   38  H2  UNL     1      -5.794  12.470  73.328  1.00  0.00     0.000 HD 
HETATM   39  C   UNL     1      -6.288  12.789  69.157  1.00  0.00    -0.106 A  
HETATM   40  C   UNL     1      -5.949  12.120  70.322  1.00  0.00    -0.137 A  
HETATM   41  C   UNL     1      -5.467  14.227  71.389  1.00  0.00    -0.193 A  
HETATM   42  C   UNL     1      -5.451  12.826  71.418  1.00  0.00    -0.038 A  
ENDBRANCH  31  34
ENDBRANCH   5  31
ENDBRANCH   4   5
TORSDOF 12
ENDMDL
MODEL      225
REMARK 921   NORMALIZED FREE ENERGY PREDICTED BY IDOCK:   -4.31 KCAL/MOL
REMARK 922        TOTAL FREE ENERGY PREDICTED BY IDOCK:  -10.14 KCAL/MOL
REMARK 923 INTER-LIGAND FREE ENERGY PREDICTED BY IDOCK:  -10.16 KCAL/MOL
REMARK 924 INTRA-LIGAND FREE ENERGY PREDICTED BY IDOCK:    0.03 KCAL/MOL
REMARK 927      BINDING AFFINITY PREDICTED BY RF-SCORE:    0.00 PKD
ROOT
HETATM    1  C   UNL     1      -6.581  13.012  67.666  1.00  0.00    -0.160 C  
HETATM    2  C   UNL     1      -8.067  12.994  67.988  1.00  0.00    -0.157 C  
HETATM    3  C   UNL     1      -8.891  13.998  67.179  1.00  0.00    -0.239 C  
HETATM    4  C   UNL     1      -8.859  11.700  68.203  1.00  0.00    -0.164 C  
ENDROOT
BRANCH   4   5
HETATM    5  N   UNL     1      -8.663  10.374  67.546  1.00  0.00    -0.125 N  
BRANCH   5   6
HETATM    6  C   UNL     1      -8.565   9.323  68.692  1.00  0.00    -0.127 C  
BRANCH   6   7
HETATM    7  C   UNL     1      -9.831   9.208  69.656  1.00  0.00    -0.180 C  
BRANCH   7   8
HETATM    8  C   UNL     1      -9.979   7.719  70.248  1.00  0.00    -0.189 C  
BRANCH   8   9
HETATM    9  N   UNL     1     -10.055   7.694  71.720  1.00  0.00    -0.172 N  
HETATM   10  C   UNL     1      -8.935   7.494  72.485  1.00  0.00    -0.134 C  
HETATM   11  H   UNL     1     -10.957   7.828  72.177  1.00  0.00     0.000 HD 
HETATM   12  O   UNL     1      -7.795   7.380  72.067  1.00  0.00    -0.087 OA 
BRANCH  10  13
HETATM   13  O   UNL     1      -9.278   7.461  73.802  1.00  0.00    -0.215 OA 
BRANCH  13  14
HETATM   14  C   UNL     1      -9.373   6.144  74.371  1.00  0.00    -0.173 C  
HETATM   15  C   UNL     1     -10.480   5.301  73.781  1.00  0.00    -0.304 C  
HETATM   16  O   UNL     1      -8.534   3.965  73.831  1.00  0.00    -0.090 OA 
HETATM   17  C   UNL     1      -9.959   3.894  73.945  1.00  0.00    -0.126 C  
HETATM   18  C   UNL     1      -8.131   5.329  74.026  1.00  0.00    -0.107 C  
ENDBRANCH  13  14
ENDBRANCH  10  13
ENDBRANCH   8   9
BRANCH   8  19
HETATM   19  C   UNL     1     -11.062   6.807  69.624  1.00  0.00    -0.343 C  
BRANCH  19  20
HETATM   20  C   UNL     1     -10.609   5.727  68.679  1.00  0.00    -0.305 A  
HETATM   21  C   UNL     1      -9.332   3.715  68.229  1.00  0.00    -0.228 A  
HETATM   22  C   UNL     1     -10.328   4.943  66.404  1.00  0.00    -0.328 A  
HETATM   23  C   UNL     1     -10.854   5.864  67.308  1.00  0.00    -0.351 A  
HETATM   24  C   UNL     1      -9.850   4.641  69.135  1.00  0.00    -0.242 A  
HETATM   25  C   UNL     1      -9.565   3.872  66.864  1.00  0.00    -0.226 A  
ENDBRANCH  19  20
ENDBRANCH   8  19
ENDBRANCH   7   8
BRANCH   7  26
HETATM   26  O   UNL     1     -11.046   9.806  69.070  1.00  0.00    -0.196 OA 
HETATM   27  O   UNL     1     -13.133  11.309  71.102  1.00  0.00    -0.310 OA 
HETATM   28  O   UNL     1     -11.310  11.968  69.849  1.00  0.00    -0.196 OA 
HETATM   29  O   UNL     1     -11.347  10.130  71.469  1.00  0.00    -0.233 OA 
HETATM   30  P   UNL     1     -12.147  10.599  70.142  1.00  0.00    -0.317 P  
ENDBRANCH   7  26
ENDBRANCH   6   7
ENDBRANCH   5   6
BRANCH   5  31
HETATM   31  S   UNL     1      -9.541   9.729  66.230  1.00  0.00    -0.231 S  
HETATM   32  O   UNL     1     -10.617   8.901  66.734  1.00  0.00    -0.243 OA 
HETATM   33  O   UNL     1      -8.590   9.139  65.310  1.00  0.00    -0.147 OA 
BRANCH  31  34
HETATM   34  C   UNL     1     -10.325  11.035  65.359  1.00  0.00    -0.268 A  
HETATM   35  N   UNL     1     -12.455  14.016  63.343  1.00  0.00    -1.123 NA 
HETATM   36  C   UNL     1     -10.088  11.236  64.000  1.00  0.00    -0.382 A  
HETATM   37  H1  UNL     1     -13.123  14.602  63.844  1.00  0.00     0.000 HD 
HETATM   38  H2  UNL     1     -12.944  13.567  62.568  1.00  0.00     0.000 HD 
HETATM   39  C   UNL     1     -11.357  11.719  66.006  1.00  0.00    -0.335 A  
HETATM   40  C   UNL     1     -12.051  12.715  65.336  1.00  0.00    -0.516 A  
HETATM   41  C   UNL     1     -10.799  12.236  63.333  1.00  0.00    -0.457 A  
HETATM   42  C   UNL     1     -11.716  13.041  64.021  1.00  0.00    -0.436 A  
ENDBRANCH  31  34
ENDBRANCH   5  31
ENDBRANCH   4   5
TORSDOF 12
ENDMDL
MODEL      226
REMARK 921   NORMALIZED FREE ENERGY PREDICTED BY IDOCK:   -4.31 KCAL/MOL
REMARK 922        TOTAL FREE ENERGY PREDICTED BY IDOCK:  -10.13 KCAL/MOL
REMARK 923 INTER-LIGAND FREE ENERGY PREDICTED BY IDOCK:   -7.21 KCAL/MOL
REMARK 924 INTRA-LIGAND FREE ENERGY PREDICTED BY IDOCK:   -2.93 KCAL/MOL
REMARK 927      BINDING AFFINITY PREDICTED BY RF-SCORE:    0.00 PKD
ROOT
HETATM    1  C   UNL     1      -6.560   5.198  68.691  1.00  0.00    -0.048 C  
HETATM    2  C   UNL     1      -7.924   5.231  69.360  1.00  0.00    -0.088 C  
HETATM    3  C   UNL     1      -8.334   3.905  70.004  1.00  0.00    -0.079 C  
HETATM    4  C   UNL     1      -8.409   6.411  70.209  1.00  0.00    -0.126 C  
ENDROOT
BRANCH   4   5
HETATM    5  N   UNL     1      -7.605   7.313  71.085  1.00  0.00    -0.079 N  
BRANCH   5   6
HETATM    6  C   UNL     1      -7.958   8.771  70.662  1.00  0.00    -0.122 C  
BRANCH   6   7
HETATM    7  C   UNL     1      -9.431   9.006  70.094  1.00  0.00    -0.195 C  
BRANCH   7   8
HETATM    8  C   UNL     1      -9.391   9.579  68.592  1.00  0.00    -0.142 C  
BRANCH   8   9
HETATM    9  N   UNL     1      -9.137  11.030  68.541  1.00  0.00    -0.168 N  
HETATM   10  C   UNL     1     -10.170  11.933  68.551  1.00  0.00    -0.215 C  
HETATM   11  H   UNL     1      -8.176  11.369  68.497  1.00  0.00     0.000 HD 
HETATM   12  O   UNL     1     -11.354  11.663  68.660  1.00  0.00    -0.219 OA 
BRANCH  10  13
HETATM   13  O   UNL     1      -9.676  13.196  68.443  1.00  0.00    -0.227 OA 
BRANCH  13  14
HETATM   14  C   UNL     1     -10.664  14.216  68.213  1.00  0.00    -0.249 C  
HETATM   15  C   UNL     1     -10.590  15.371  69.186  1.00  0.00    -0.248 C  
HETATM   16  O   UNL     1     -10.757  16.291  67.018  1.00  0.00    -0.306 OA 
HETATM   17  C   UNL     1     -11.128  16.528  68.380  1.00  0.00    -0.333 C  
HETATM   18  C   UNL     1     -10.409  14.906  66.878  1.00  0.00    -0.264 C  
ENDBRANCH  13  14
ENDBRANCH  10  13
ENDBRANCH   8   9
BRANCH   8  19
HETATM   19  C   UNL     1      -8.512   8.829  67.564  1.00  0.00    -0.120 C  
BRANCH  19  20
HETATM   20  C   UNL     1      -9.074   7.579  66.941  1.00  0.00    -0.166 A  
HETATM   21  C   UNL     1     -10.851   5.942  66.727  1.00  0.00    -0.347 A  
HETATM   22  C   UNL     1      -8.706   5.534  65.695  1.00  0.00    -0.153 A  
HETATM   23  C   UNL     1      -8.242   6.759  66.170  1.00  0.00    -0.124 A  
HETATM   24  C   UNL     1     -10.386   7.166  67.211  1.00  0.00    -0.342 A  
HETATM   25  C   UNL     1     -10.008   5.124  65.977  1.00  0.00    -0.187 A  
ENDBRANCH  19  20
ENDBRANCH   8  19
ENDBRANCH   7   8
BRANCH   7  26
HETATM   26  O   UNL     1     -10.298   9.722  71.049  1.00  0.00    -0.273 OA 
HETATM   27  O   UNL     1     -13.267   8.465  71.643  1.00  0.00    -0.335 OA 
HETATM   28  O   UNL     1     -11.173   8.230  72.584  1.00  0.00    -0.378 OA 
HETATM   29  O   UNL     1     -11.722   7.924  70.216  1.00  0.00    -0.105 OA 
HETATM   30  P   UNL     1     -11.865   9.058  71.362  1.00  0.00    -0.370 P  
ENDBRANCH   7  26
ENDBRANCH   6   7
ENDBRANCH   5   6
BRANCH   5  31
HETATM   31  S   UNL     1      -7.427   7.221  72.782  1.00  0.00    -0.077 S  
HETATM   32  O   UNL     1      -8.139   8.321  73.398  1.00  0.00    -0.215 OA 
HETATM   33  O   UNL     1      -6.015   7.065  73.071  1.00  0.00    -0.054 OA 
BRANCH  31  34
HETATM   34  C   UNL     1      -8.214   5.767  73.371  1.00  0.00    -0.112 A  
HETATM   35  N   UNL     1      -9.993   2.164  74.529  1.00  0.00    -0.104 NA 
HETATM   36  C   UNL     1      -9.598   5.717  73.535  1.00  0.00    -0.140 A  
HETATM   37  H1  UNL     1      -9.420   1.340  74.710  1.00  0.00     0.000 HD 
HETATM   38  H2  UNL     1     -10.681   1.924  73.815  1.00  0.00     0.000 HD 
HETATM   39  C   UNL     1      -7.449   4.602  73.452  1.00  0.00    -0.083 A  
HETATM   40  C   UNL     1      -8.042   3.413  73.849  1.00  0.00    -0.074 A  
HETATM   41  C   UNL     1     -10.186   4.512  73.926  1.00  0.00    -0.244 A  
HETATM   42  C   UNL     1      -9.399   3.380  74.175  1.00  0.00    -0.092 A  
ENDBRANCH  31  34
ENDBRANCH   5  31
ENDBRANCH   4   5
TORSDOF 12
ENDMDL
MODEL      227
REMARK 921   NORMALIZED FREE ENERGY PREDICTED BY IDOCK:   -4.30 KCAL/MOL
REMARK 922        TOTAL FREE ENERGY PREDICTED BY IDOCK:  -10.12 KCAL/MOL
REMARK 923 INTER-LIGAND FREE ENERGY PREDICTED BY IDOCK:   -8.04 KCAL/MOL
REMARK 924 INTRA-LIGAND FREE ENERGY PREDICTED BY IDOCK:   -2.09 KCAL/MOL
REMARK 927      BINDING AFFINITY PREDICTED BY RF-SCORE:    0.00 PKD
ROOT
HETATM    1  C   UNL     1     -10.544  13.724  69.607  1.00  0.00     0.271 C  
HETATM    2  C   UNL     1     -11.687  13.070  68.849  1.00  0.00    -0.371 C  
HETATM    3  C   UNL     1     -12.392  14.000  67.859  1.00  0.00    -0.018 C  
HETATM    4  C   UNL     1     -11.607  11.648  68.283  1.00  0.00    -0.310 C  
ENDROOT
BRANCH   4   5
HETATM    5  N   UNL     1     -10.416  10.935  67.735  1.00  0.00    -0.192 N  
BRANCH   5   6
HETATM    6  C   UNL     1     -10.632   9.420  68.030  1.00  0.00    -0.226 C  
BRANCH   6   7
HETATM    7  C   UNL     1     -10.541   8.978  69.561  1.00  0.00    -0.225 C  
BRANCH   7   8
HETATM    8  C   UNL     1      -9.125   8.286  69.884  1.00  0.00    -0.147 C  
BRANCH   8   9
HETATM    9  N   UNL     1      -9.255   7.084  70.727  1.00  0.00    -0.157 N  
HETATM   10  C   UNL     1      -8.431   6.881  71.805  1.00  0.00    -0.115 C  
HETATM   11  H   UNL     1      -9.970   6.392  70.506  1.00  0.00     0.000 HD 
HETATM   12  O   UNL     1      -7.580   7.654  72.210  1.00  0.00    -0.075 OA 
BRANCH  10  13
HETATM   13  O   UNL     1      -8.718   5.682  72.382  1.00  0.00    -0.128 OA 
BRANCH  13  14
HETATM   14  C   UNL     1      -8.820   4.577  71.467  1.00  0.00    -0.119 C  
HETATM   15  C   UNL     1      -7.534   4.269  70.734  1.00  0.00    -0.051 C  
HETATM   16  O   UNL     1      -8.383   2.222  71.549  1.00  0.00    -0.057 OA 
HETATM   17  C   UNL     1      -7.646   2.789  70.461  1.00  0.00    -0.043 C  
HETATM   18  C   UNL     1      -9.071   3.281  72.230  1.00  0.00    -0.101 C  
ENDBRANCH  13  14
ENDBRANCH  10  13
ENDBRANCH   8   9
BRANCH   8  19
HETATM   19  C   UNL     1      -8.171   8.024  68.695  1.00  0.00    -0.126 C  
BRANCH  19  20
HETATM   20  C   UNL     1      -8.308   6.718  67.960  1.00  0.00    -0.120 A  
HETATM   21  C   UNL     1      -9.617   4.771  67.342  1.00  0.00    -0.186 A  
HETATM   22  C   UNL     1      -7.257   4.847  66.835  1.00  0.00    -0.077 A  
HETATM   23  C   UNL     1      -7.174   6.117  67.403  1.00  0.00    -0.076 A  
HETATM   24  C   UNL     1      -9.534   6.039  67.919  1.00  0.00    -0.112 A  
HETATM   25  C   UNL     1      -8.477   4.174  66.808  1.00  0.00    -0.104 A  
ENDBRANCH  19  20
ENDBRANCH   8  19
ENDBRANCH   7   8
BRANCH   7  26
HETATM   26  O   UNL     1     -11.744   8.254  70.014  1.00  0.00     0.075 OA 
HETATM   27  O   UNL     1     -12.789   8.808  73.072  1.00  0.00    -0.272 OA 
HETATM   28  O   UNL     1     -13.222   9.734  71.002  1.00  0.00    -0.353 OA 
HETATM   29  O   UNL     1     -11.007   9.450  72.009  1.00  0.00    -0.250 OA 
HETATM   30  P   UNL     1     -12.296   8.547  71.627  1.00  0.00    -0.356 P  
ENDBRANCH   7  26
ENDBRANCH   6   7
ENDBRANCH   5   6
BRANCH   5  31
HETATM   31  S   UNL     1      -9.702  11.138  66.196  1.00  0.00    -0.228 S  
HETATM   32  O   UNL     1     -10.111  10.050  65.333  1.00  0.00    -0.310 OA 
HETATM   33  O   UNL     1      -8.285  11.368  66.391  1.00  0.00    -0.166 OA 
BRANCH  31  34
HETATM   34  C   UNL     1     -10.340  12.592  65.448  1.00  0.00    -0.282 A  
HETATM   35  N   UNL     1     -11.873  16.177  63.937  1.00  0.00    -1.382 NA 
HETATM   36  C   UNL     1     -11.561  12.576  64.775  1.00  0.00    -0.387 A  
HETATM   37  H1  UNL     1     -11.350  17.047  64.040  1.00  0.00     0.000 HD 
HETATM   38  H2  UNL     1     -12.796  16.309  64.351  1.00  0.00     0.000 HD 
HETATM   39  C   UNL     1      -9.708  13.803  65.738  1.00  0.00    -0.175 A  
HETATM   40  C   UNL     1     -10.214  14.986  65.224  1.00  0.00    -0.409 A  
HETATM   41  C   UNL     1     -12.066  13.776  64.269  1.00  0.00    -0.481 A  
HETATM   42  C   UNL     1     -11.348  14.971  64.411  1.00  0.00    -0.198 A  
ENDBRANCH  31  34
ENDBRANCH   5  31
ENDBRANCH   4   5
TORSDOF 12
ENDMDL
MODEL      228
REMARK 921   NORMALIZED FREE ENERGY PREDICTED BY IDOCK:   -4.30 KCAL/MOL
REMARK 922        TOTAL FREE ENERGY PREDICTED BY IDOCK:  -10.11 KCAL/MOL
REMARK 923 INTER-LIGAND FREE ENERGY PREDICTED BY IDOCK:   -7.68 KCAL/MOL
REMARK 924 INTRA-LIGAND FREE ENERGY PREDICTED BY IDOCK:   -2.43 KCAL/MOL
REMARK 927      BINDING AFFINITY PREDICTED BY RF-SCORE:    0.00 PKD
ROOT
HETATM    1  C   UNL     1     -10.733  13.172  64.491  1.00  0.00    -0.416 C  
HETATM    2  C   UNL     1     -11.649  14.128  65.239  1.00  0.00    -0.341 C  
HETATM    3  C   UNL     1     -13.129  13.747  65.181  1.00  0.00    -0.137 C  
HETATM    4  C   UNL     1     -11.300  14.715  66.611  1.00  0.00    -0.356 C  
ENDROOT
BRANCH   4   5
HETATM    5  N   UNL     1     -10.531  14.080  67.722  1.00  0.00    -0.234 N  
BRANCH   5   6
HETATM    6  C   UNL     1     -11.242  12.731  68.038  1.00  0.00    -0.270 C  
BRANCH   6   7
HETATM    7  C   UNL     1     -11.378  12.348  69.582  1.00  0.00    -0.123 C  
BRANCH   7   8
HETATM    8  C   UNL     1     -11.041  10.795  69.829  1.00  0.00    -0.281 C  
BRANCH   8   9
HETATM    9  N   UNL     1      -9.593  10.532  69.922  1.00  0.00    -0.395 N  
HETATM   10  C   UNL     1      -8.874  10.122  68.828  1.00  0.00    -0.146 C  
HETATM   11  H   UNL     1      -9.118  10.658  70.815  1.00  0.00     0.000 HD 
HETATM   12  O   UNL     1      -9.308   9.990  67.696  1.00  0.00    -0.143 OA 
BRANCH  10  13
HETATM   13  O   UNL     1      -7.581   9.898  69.186  1.00  0.00    -0.078 OA 
BRANCH  13  14
HETATM   14  C   UNL     1      -7.365   8.715  69.975  1.00  0.00    -0.052 C  
HETATM   15  C   UNL     1      -7.977   7.465  69.383  1.00  0.00    -0.124 C  
HETATM   16  O   UNL     1      -5.764   6.933  70.011  1.00  0.00    -0.022 OA 
HETATM   17  C   UNL     1      -7.075   6.370  69.899  1.00  0.00    -0.072 C  
HETATM   18  C   UNL     1      -5.882   8.363  70.003  1.00  0.00    -0.024 C  
ENDBRANCH  13  14
ENDBRANCH  10  13
ENDBRANCH   8   9
BRANCH   8  19
HETATM   19  C   UNL     1     -11.806  10.069  70.960  1.00  0.00    -0.476 C  
BRANCH  19  20
HETATM   20  C   UNL     1     -11.350   8.685  71.339  1.00  0.00    -0.350 A  
HETATM   21  C   UNL     1      -9.918   7.215  72.632  1.00  0.00    -0.208 A  
HETATM   22  C   UNL     1     -11.253   6.319  70.830  1.00  0.00    -0.387 A  
HETATM   23  C   UNL     1     -11.768   7.589  70.577  1.00  0.00    -0.183 A  
HETATM   24  C   UNL     1     -10.426   8.489  72.375  1.00  0.00    -0.367 A  
HETATM   25  C   UNL     1     -10.327   6.133  71.854  1.00  0.00    -0.244 A  
ENDBRANCH  19  20
ENDBRANCH   8  19
ENDBRANCH   7   8
BRANCH   7  26
HETATM   26  O   UNL     1     -12.628  12.853  70.182  1.00  0.00    -0.106 OA 
HETATM   27  O   UNL     1     -12.453  15.588  71.981  1.00  0.00    -0.335 OA 
HETATM   28  O   UNL     1     -12.843  15.116  69.755  1.00  0.00    -0.089 OA 
HETATM   29  O   UNL     1     -10.919  14.354  71.066  1.00  0.00     0.239 OA 
HETATM   30  P   UNL     1     -12.535  14.296  71.131  1.00  0.00    -0.395 P  
ENDBRANCH   7  26
ENDBRANCH   6   7
ENDBRANCH   5   6
BRANCH   5  31
HETATM   31  S   UNL     1      -8.837  13.892  67.834  1.00  0.00    -0.195 S  
HETATM   32  O   UNL     1      -8.367  13.110  66.709  1.00  0.00    -0.078 OA 
HETATM   33  O   UNL     1      -8.530  13.428  69.173  1.00  0.00     0.286 OA 
BRANCH  31  34
HETATM   34  C   UNL     1      -8.066  15.460  67.667  1.00  0.00    -0.150 A  
HETATM   35  N   UNL     1      -6.435  19.305  67.453  1.00  0.00    -0.189 NA 
HETATM   36  C   UNL     1      -8.017  16.108  66.433  1.00  0.00    -0.252 A  
HETATM   37  H1  UNL     1      -6.059  19.754  68.288  1.00  0.00     0.000 HD 
HETATM   38  H2  UNL     1      -7.152  19.915  67.059  1.00  0.00     0.000 HD 
HETATM   39  C   UNL     1      -7.708  16.136  68.835  1.00  0.00    -0.207 A  
HETATM   40  C   UNL     1      -7.157  17.406  68.757  1.00  0.00    -0.246 A  
HETATM   41  C   UNL     1      -7.468  17.390  66.367  1.00  0.00    -0.341 A  
HETATM   42  C   UNL     1      -6.950  18.006  67.514  1.00  0.00    -0.192 A  
ENDBRANCH  31  34
ENDBRANCH   5  31
ENDBRANCH   4   5
TORSDOF 12
ENDMDL
MODEL      229
REMARK 921   NORMALIZED FREE ENERGY PREDICTED BY IDOCK:   -4.29 KCAL/MOL
REMARK 922        TOTAL FREE ENERGY PREDICTED BY IDOCK:  -10.11 KCAL/MOL
REMARK 923 INTER-LIGAND FREE ENERGY PREDICTED BY IDOCK:   -7.63 KCAL/MOL
REMARK 924 INTRA-LIGAND FREE ENERGY PREDICTED BY IDOCK:   -2.48 KCAL/MOL
REMARK 927      BINDING AFFINITY PREDICTED BY RF-SCORE:    0.00 PKD
ROOT
HETATM    1  C   UNL     1      -8.939   8.597  64.898  1.00  0.00    -0.007 C  
HETATM    2  C   UNL     1      -7.604   8.434  65.606  1.00  0.00    -0.089 C  
HETATM    3  C   UNL     1      -6.401   8.905  64.786  1.00  0.00    -0.066 C  
HETATM    4  C   UNL     1      -7.401   8.761  67.090  1.00  0.00    -0.080 C  
ENDROOT
BRANCH   4   5
HETATM    5  N   UNL     1      -8.062   9.824  67.903  1.00  0.00    -0.112 N  
BRANCH   5   6
HETATM    6  C   UNL     1      -7.838   9.443  69.397  1.00  0.00    -0.087 C  
BRANCH   6   7
HETATM    7  C   UNL     1      -8.427   8.034  69.863  1.00  0.00    -0.126 C  
BRANCH   7   8
HETATM    8  C   UNL     1      -9.947   7.848  69.372  1.00  0.00    -0.189 C  
BRANCH   8   9
HETATM    9  N   UNL     1     -10.107   6.741  68.411  1.00  0.00    -0.155 N  
HETATM   10  C   UNL     1      -9.889   5.439  68.785  1.00  0.00    -0.150 C  
HETATM   11  H   UNL     1     -10.384   6.947  67.452  1.00  0.00     0.000 HD 
HETATM   12  O   UNL     1      -9.613   5.055  69.909  1.00  0.00    -0.145 OA 
BRANCH  10  13
HETATM   13  O   UNL     1     -10.049   4.620  67.711  1.00  0.00    -0.122 OA 
BRANCH  13  14
HETATM   14  C   UNL     1      -8.830   4.078  67.174  1.00  0.00    -0.119 C  
HETATM   15  C   UNL     1      -8.924   2.617  66.795  1.00  0.00    -0.160 C  
HETATM   16  O   UNL     1      -7.904   3.745  64.988  1.00  0.00    -0.084 OA 
HETATM   17  C   UNL     1      -7.916   2.491  65.679  1.00  0.00    -0.082 C  
HETATM   18  C   UNL     1      -8.505   4.735  65.837  1.00  0.00    -0.117 C  
ENDBRANCH  13  14
ENDBRANCH  10  13
ENDBRANCH   8   9
BRANCH   8  19
HETATM   19  C   UNL     1     -11.048   7.797  70.458  1.00  0.00    -0.265 C  
BRANCH  19  20
HETATM   20  C   UNL     1     -11.654   9.101  70.903  1.00  0.00    -0.350 A  
HETATM   21  C   UNL     1     -13.215  10.341  72.286  1.00  0.00    -0.324 A  
HETATM   22  C   UNL     1     -12.043  11.457  70.493  1.00  0.00    -0.487 A  
HETATM   23  C   UNL     1     -11.389  10.268  70.177  1.00  0.00    -0.388 A  
HETATM   24  C   UNL     1     -12.567   9.147  71.966  1.00  0.00    -0.463 A  
HETATM   25  C   UNL     1     -12.958  11.492  71.544  1.00  0.00    -0.485 A  
ENDBRANCH  19  20
ENDBRANCH   8  19
ENDBRANCH   7   8
BRANCH   7  26
HETATM   26  O   UNL     1      -8.156   7.750  71.285  1.00  0.00    -0.091 OA 
HETATM   27  O   UNL     1      -5.515   5.942  71.996  1.00  0.00    -0.021 OA 
HETATM   28  O   UNL     1      -5.938   8.199  71.764  1.00  0.00    -0.035 OA 
HETATM   29  O   UNL     1      -6.446   6.469  70.106  1.00  0.00    -0.038 OA 
HETATM   30  P   UNL     1      -6.762   6.796  71.660  1.00  0.00    -0.063 P  
ENDBRANCH   7  26
ENDBRANCH   6   7
ENDBRANCH   5   6
BRANCH   5  31
HETATM   31  S   UNL     1      -7.930  11.515  67.702  1.00  0.00    -0.134 S  
HETATM   32  O   UNL     1      -6.857  11.804  66.772  1.00  0.00    -0.127 OA 
HETATM   33  O   UNL     1      -7.880  12.116  69.020  1.00  0.00     0.008 OA 
BRANCH  31  34
HETATM   34  C   UNL     1      -9.387  12.125  66.936  1.00  0.00    -0.203 A  
HETATM   35  N   UNL     1     -13.012  13.471  65.344  1.00  0.00    -0.661 NA 
HETATM   36  C   UNL     1      -9.809  11.632  65.702  1.00  0.00    -0.270 A  
HETATM   37  H1  UNL     1     -13.567  14.167  65.841  1.00  0.00     0.000 HD 
HETATM   38  H2  UNL     1     -13.595  12.649  65.186  1.00  0.00     0.000 HD 
HETATM   39  C   UNL     1     -10.224  12.945  67.695  1.00  0.00    -0.220 A  
HETATM   40  C   UNL     1     -11.419  13.398  67.157  1.00  0.00    -0.373 A  
HETATM   41  C   UNL     1     -11.019  12.088  65.174  1.00  0.00    -0.359 A  
HETATM   42  C   UNL     1     -11.782  13.044  65.857  1.00  0.00    -0.394 A  
ENDBRANCH  31  34
ENDBRANCH   5  31
ENDBRANCH   4   5
TORSDOF 12
ENDMDL
MODEL      230
REMARK 921   NORMALIZED FREE ENERGY PREDICTED BY IDOCK:   -4.29 KCAL/MOL
REMARK 922        TOTAL FREE ENERGY PREDICTED BY IDOCK:  -10.11 KCAL/MOL
REMARK 923 INTER-LIGAND FREE ENERGY PREDICTED BY IDOCK:   -8.15 KCAL/MOL
REMARK 924 INTRA-LIGAND FREE ENERGY PREDICTED BY IDOCK:   -1.96 KCAL/MOL
REMARK 927      BINDING AFFINITY PREDICTED BY RF-SCORE:    0.00 PKD
ROOT
HETATM    1  C   UNL     1      -9.159   5.632  71.655  1.00  0.00    -0.150 C  
HETATM    2  C   UNL     1     -10.639   5.896  71.426  1.00  0.00    -0.309 C  
HETATM    3  C   UNL     1     -11.287   6.775  72.498  1.00  0.00    -0.292 C  
HETATM    4  C   UNL     1     -11.227   6.211  70.047  1.00  0.00    -0.401 C  
ENDROOT
BRANCH   4   5
HETATM    5  N   UNL     1     -10.595   6.958  68.919  1.00  0.00    -0.211 N  
BRANCH   5   6
HETATM    6  C   UNL     1      -9.711   8.068  69.563  1.00  0.00    -0.170 C  
BRANCH   6   7
HETATM    7  C   UNL     1     -10.213   9.571  69.371  1.00  0.00    -0.206 C  
BRANCH   7   8
HETATM    8  C   UNL     1      -9.323  10.347  68.279  1.00  0.00    -0.149 C  
BRANCH   8   9
HETATM    9  N   UNL     1     -10.034  10.556  67.005  1.00  0.00    -0.193 N  
HETATM   10  C   UNL     1      -9.387  10.431  65.802  1.00  0.00    -0.186 C  
HETATM   11  H   UNL     1     -11.025  10.797  67.018  1.00  0.00     0.000 HD 
HETATM   12  O   UNL     1      -8.226  10.092  65.646  1.00  0.00    -0.132 OA 
BRANCH  10  13
HETATM   13  O   UNL     1     -10.245  10.723  64.787  1.00  0.00    -0.306 OA 
BRANCH  13  14
HETATM   14  C   UNL     1     -10.773  12.061  64.805  1.00  0.00    -0.306 C  
HETATM   15  C   UNL     1     -11.226  12.559  63.451  1.00  0.00    -0.460 C  
HETATM   16  O   UNL     1     -12.945  13.057  64.991  1.00  0.00    -0.723 OA 
HETATM   17  C   UNL     1     -12.318  13.541  63.799  1.00  0.00    -0.327 C  
HETATM   18  C   UNL     1     -12.067  12.106  65.611  1.00  0.00    -0.104 C  
ENDBRANCH  13  14
ENDBRANCH  10  13
ENDBRANCH   8   9
BRANCH   8  19
HETATM   19  C   UNL     1      -8.609  11.643  68.730  1.00  0.00    -0.023 C  
BRANCH  19  20
HETATM   20  C   UNL     1      -9.147  12.953  68.221  1.00  0.00    -0.180 A  
HETATM   21  C   UNL     1     -10.944  14.574  68.051  1.00  0.00    -0.269 A  
HETATM   22  C   UNL     1      -8.977  14.806  66.669  1.00  0.00    -0.286 A  
HETATM   23  C   UNL     1      -8.433  13.661  67.248  1.00  0.00    -0.203 A  
HETATM   24  C   UNL     1     -10.405  13.422  68.625  1.00  0.00    -0.213 A  
HETATM   25  C   UNL     1     -10.233  15.260  67.068  1.00  0.00    -0.260 A  
ENDBRANCH  19  20
ENDBRANCH   8  19
ENDBRANCH   7   8
BRANCH   7  26
HETATM   26  O   UNL     1     -10.430  10.264  70.655  1.00  0.00    -0.155 OA 
HETATM   27  O   UNL     1     -13.268  11.854  71.063  1.00  0.00    -0.063 OA 
HETATM   28  O   UNL     1     -12.513   9.717  71.499  1.00  0.00    -0.334 OA 
HETATM   29  O   UNL     1     -12.394  10.866  69.338  1.00  0.00    -0.349 OA 
HETATM   30  P   UNL     1     -11.928  11.103  70.870  1.00  0.00     0.007 P  
ENDBRANCH   7  26
ENDBRANCH   6   7
ENDBRANCH   5   6
BRANCH   5  31
HETATM   31  S   UNL     1      -9.809   6.300  67.552  1.00  0.00    -0.129 S  
HETATM   32  O   UNL     1      -8.859   7.264  67.038  1.00  0.00    -0.123 OA 
HETATM   33  O   UNL     1     -10.829   5.792  66.656  1.00  0.00    -0.297 OA 
BRANCH  31  34
HETATM   34  C   UNL     1      -8.850   4.915  68.044  1.00  0.00    -0.104 A  
HETATM   35  N   UNL     1      -6.389   1.666  68.981  1.00  0.00    -0.025 NA 
HETATM   36  C   UNL     1      -9.400   3.634  68.068  1.00  0.00    -0.237 A  
HETATM   37  H1  UNL     1      -5.406   1.813  69.210  1.00  0.00     0.000 HD 
HETATM   38  H2  UNL     1      -6.441   1.013  68.199  1.00  0.00     0.000 HD 
HETATM   39  C   UNL     1      -7.473   5.097  68.189  1.00  0.00    -0.076 A  
HETATM   40  C   UNL     1      -6.665   4.019  68.513  1.00  0.00    -0.046 A  
HETATM   41  C   UNL     1      -8.574   2.553  68.386  1.00  0.00    -0.110 A  
HETATM   42  C   UNL     1      -7.223   2.754  68.701  1.00  0.00    -0.048 A  
ENDBRANCH  31  34
ENDBRANCH   5  31
ENDBRANCH   4   5
TORSDOF 12
ENDMDL
MODEL      231
REMARK 921   NORMALIZED FREE ENERGY PREDICTED BY IDOCK:   -4.29 KCAL/MOL
REMARK 922        TOTAL FREE ENERGY PREDICTED BY IDOCK:  -10.10 KCAL/MOL
REMARK 923 INTER-LIGAND FREE ENERGY PREDICTED BY IDOCK:   -9.24 KCAL/MOL
REMARK 924 INTRA-LIGAND FREE ENERGY PREDICTED BY IDOCK:   -0.86 KCAL/MOL
REMARK 927      BINDING AFFINITY PREDICTED BY RF-SCORE:    0.00 PKD
ROOT
HETATM    1  C   UNL     1     -11.671  15.579  72.105  1.00  0.00    -0.566 C  
HETATM    2  C   UNL     1     -12.399  14.294  71.747  1.00  0.00    -0.362 C  
HETATM    3  C   UNL     1     -13.913  14.455  71.598  1.00  0.00    -0.506 C  
HETATM    4  C   UNL     1     -11.864  13.290  70.719  1.00  0.00     0.064 C  
ENDROOT
BRANCH   4   5
HETATM    5  N   UNL     1     -11.078  13.564  69.480  1.00  0.00    -0.121 N  
BRANCH   5   6
HETATM    6  C   UNL     1     -11.154  12.272  68.613  1.00  0.00    -0.249 C  
BRANCH   6   7
HETATM    7  C   UNL     1      -9.760  11.658  68.136  1.00  0.00    -0.189 C  
BRANCH   7   8
HETATM    8  C   UNL     1      -9.794  10.050  68.159  1.00  0.00    -0.142 C  
BRANCH   8   9
HETATM    9  N   UNL     1      -9.429   9.452  66.862  1.00  0.00    -0.149 N  
HETATM   10  C   UNL     1      -9.902   8.219  66.490  1.00  0.00    -0.253 C  
HETATM   11  H   UNL     1      -8.814   9.964  66.230  1.00  0.00     0.000 HD 
HETATM   12  O   UNL     1     -10.686   7.533  67.124  1.00  0.00    -0.326 OA 
BRANCH  10  13
HETATM   13  O   UNL     1      -9.380   7.872  65.282  1.00  0.00     0.274 OA 
BRANCH  13  14
HETATM   14  C   UNL     1      -8.204   7.045  65.344  1.00  0.00    -0.133 C  
HETATM   15  C   UNL     1      -8.346   5.848  66.256  1.00  0.00    -0.117 C  
HETATM   16  O   UNL     1      -7.419   5.076  64.226  1.00  0.00    -0.061 OA 
HETATM   17  C   UNL     1      -7.410   4.839  65.637  1.00  0.00    -0.077 C  
HETATM   18  C   UNL     1      -7.951   6.389  63.991  1.00  0.00    -0.090 C  
ENDBRANCH  13  14
ENDBRANCH  10  13
ENDBRANCH   8   9
BRANCH   8  19
HETATM   19  C   UNL     1      -9.063   9.336  69.320  1.00  0.00    -0.151 C  
BRANCH  19  20
HETATM   20  C   UNL     1      -9.905   8.697  70.391  1.00  0.00    -0.207 A  
HETATM   21  C   UNL     1     -11.629   8.847  72.091  1.00  0.00    -0.400 A  
HETATM   22  C   UNL     1     -10.266   6.860  71.929  1.00  0.00    -0.206 A  
HETATM   23  C   UNL     1      -9.582   7.415  70.849  1.00  0.00    -0.166 A  
HETATM   24  C   UNL     1     -10.940   9.408  71.016  1.00  0.00    -0.409 A  
HETATM   25  C   UNL     1     -11.286   7.577  72.552  1.00  0.00    -0.384 A  
ENDBRANCH  19  20
ENDBRANCH   8  19
ENDBRANCH   7   8
BRANCH   7  26
HETATM   26  O   UNL     1      -8.605  12.300  68.791  1.00  0.00    -0.029 OA 
HETATM   27  O   UNL     1      -5.881  12.706  67.011  1.00  0.00    -0.319 OA 
HETATM   28  O   UNL     1      -7.764  13.973  67.432  1.00  0.00    -0.176 OA 
HETATM   29  O   UNL     1      -7.744  11.670  66.596  1.00  0.00    -0.139 OA 
HETATM   30  P   UNL     1      -7.168  12.514  67.851  1.00  0.00    -0.149 P  
ENDBRANCH   7  26
ENDBRANCH   6   7
ENDBRANCH   5   6
BRANCH   5  31
HETATM   31  S   UNL     1     -11.166  14.947  68.481  1.00  0.00    -0.295 S  
HETATM   32  O   UNL     1      -9.882  15.617  68.479  1.00  0.00    -0.199 OA 
HETATM   33  O   UNL     1     -12.338  15.704  68.874  1.00  0.00    -0.165 OA 
BRANCH  31  34
HETATM   34  C   UNL     1     -11.435  14.448  66.820  1.00  0.00    -0.370 A  
HETATM   35  N   UNL     1     -12.122  13.545  62.795  1.00  0.00    -0.684 NA 
HETATM   36  C   UNL     1     -12.495  13.606  66.487  1.00  0.00    -0.337 A  
HETATM   37  H1  UNL     1     -11.510  13.918  62.071  1.00  0.00     0.000 HD 
HETATM   38  H2  UNL     1     -13.079  13.829  62.582  1.00  0.00     0.000 HD 
HETATM   39  C   UNL     1     -10.702  15.094  65.822  1.00  0.00    -0.359 A  
HETATM   40  C   UNL     1     -10.926  14.781  64.490  1.00  0.00    -0.227 A  
HETATM   41  C   UNL     1     -12.717  13.305  65.141  1.00  0.00    -0.464 A  
HETATM   42  C   UNL     1     -11.875  13.817  64.145  1.00  0.00    -0.401 A  
ENDBRANCH  31  34
ENDBRANCH   5  31
ENDBRANCH   4   5
TORSDOF 12
ENDMDL
MODEL      232
REMARK 921   NORMALIZED FREE ENERGY PREDICTED BY IDOCK:   -4.29 KCAL/MOL
REMARK 922        TOTAL FREE ENERGY PREDICTED BY IDOCK:  -10.10 KCAL/MOL
REMARK 923 INTER-LIGAND FREE ENERGY PREDICTED BY IDOCK:   -7.83 KCAL/MOL
REMARK 924 INTRA-LIGAND FREE ENERGY PREDICTED BY IDOCK:   -2.27 KCAL/MOL
REMARK 927      BINDING AFFINITY PREDICTED BY RF-SCORE:    0.00 PKD
ROOT
HETATM    1  C   UNL     1      -6.911  10.502  66.382  1.00  0.00    -0.119 C  
HETATM    2  C   UNL     1      -7.453  11.188  67.625  1.00  0.00    -0.100 C  
HETATM    3  C   UNL     1      -6.972  12.630  67.801  1.00  0.00    -0.125 C  
HETATM    4  C   UNL     1      -8.907  11.048  68.089  1.00  0.00    -0.141 C  
ENDROOT
BRANCH   4   5
HETATM    5  N   UNL     1     -10.134  10.892  67.254  1.00  0.00    -0.185 N  
BRANCH   5   6
HETATM    6  C   UNL     1     -10.529   9.387  67.323  1.00  0.00    -0.264 C  
BRANCH   6   7
HETATM    7  C   UNL     1     -10.027   8.582  68.608  1.00  0.00    -0.184 C  
BRANCH   7   8
HETATM    8  C   UNL     1      -9.083   7.350  68.190  1.00  0.00    -0.131 C  
BRANCH   8   9
HETATM    9  N   UNL     1      -8.004   7.101  69.163  1.00  0.00    -0.118 N  
HETATM   10  C   UNL     1      -6.693   7.024  68.766  1.00  0.00    -0.060 C  
HETATM   11  H   UNL     1      -8.236   6.984  70.149  1.00  0.00     0.000 HD 
HETATM   12  O   UNL     1      -6.278   7.203  67.633  1.00  0.00    -0.042 OA 
BRANCH  10  13
HETATM   13  O   UNL     1      -5.904   6.737  69.837  1.00  0.00    -0.022 OA 
BRANCH  13  14
HETATM   14  C   UNL     1      -5.333   7.882  70.494  1.00  0.00    -0.023 C  
HETATM   15  C   UNL     1      -5.621   9.194  69.800  1.00  0.00    -0.032 C  
HETATM   16  O   UNL     1      -6.076   9.502  72.096  1.00  0.00    -0.284 OA 
HETATM   17  C   UNL     1      -5.601  10.189  70.934  1.00  0.00    -0.086 C  
HETATM   18  C   UNL     1      -5.988   8.090  71.855  1.00  0.00    -0.037 C  
ENDBRANCH  13  14
ENDBRANCH  10  13
ENDBRANCH   8   9
BRANCH   8  19
HETATM   19  C   UNL     1      -9.773   6.027  67.783  1.00  0.00    -0.119 C  
BRANCH  19  20
HETATM   20  C   UNL     1      -9.713   4.877  68.752  1.00  0.00    -0.232 A  
HETATM   21  C   UNL     1      -9.956   3.995  70.999  1.00  0.00    -0.176 A  
HETATM   22  C   UNL     1      -8.941   2.641  69.276  1.00  0.00    -0.170 A  
HETATM   23  C   UNL     1      -9.126   3.670  68.355  1.00  0.00    -0.200 A  
HETATM   24  C   UNL     1     -10.134   5.030  70.081  1.00  0.00    -0.338 A  
HETATM   25  C   UNL     1      -9.352   2.805  70.598  1.00  0.00    -0.218 A  
ENDBRANCH  19  20
ENDBRANCH   8  19
ENDBRANCH   7   8
BRANCH   7  26
HETATM   26  O   UNL     1     -11.122   8.282  69.550  1.00  0.00    -0.112 OA 
HETATM   27  O   UNL     1     -10.573   8.826  72.737  1.00  0.00    -0.042 OA 
HETATM   28  O   UNL     1     -11.427  10.068  70.989  1.00  0.00    -0.348 OA 
HETATM   29  O   UNL     1      -9.266   8.914  71.005  1.00  0.00    -0.201 OA 
HETATM   30  P   UNL     1     -10.832   8.570  71.232  1.00  0.00    -0.295 P  
ENDBRANCH   7  26
ENDBRANCH   6   7
ENDBRANCH   5   6
BRANCH   5  31
HETATM   31  S   UNL     1     -11.535  11.869  67.279  1.00  0.00    -0.295 S  
HETATM   32  O   UNL     1     -12.383  11.460  68.379  1.00  0.00    -0.505 OA 
HETATM   33  O   UNL     1     -12.095  11.875  65.942  1.00  0.00    -0.474 OA 
BRANCH  31  34
HETATM   34  C   UNL     1     -11.081  13.527  67.631  1.00  0.00    -0.269 A  
HETATM   35  N   UNL     1     -10.285  17.552  68.441  1.00  0.00    -0.350 NA 
HETATM   36  C   UNL     1     -10.226  14.232  66.786  1.00  0.00    -0.272 A  
HETATM   37  H1  UNL     1     -10.695  18.005  69.258  1.00  0.00     0.000 HD 
HETATM   38  H2  UNL     1     -10.554  18.085  67.613  1.00  0.00     0.000 HD 
HETATM   39  C   UNL     1     -11.773  14.188  68.649  1.00  0.00    -0.385 A  
HETATM   40  C   UNL     1     -11.496  15.519  68.920  1.00  0.00    -0.362 A  
HETATM   41  C   UNL     1      -9.961  15.575  67.063  1.00  0.00    -0.240 A  
HETATM   42  C   UNL     1     -10.522  16.198  68.186  1.00  0.00    -0.279 A  
ENDBRANCH  31  34
ENDBRANCH   5  31
ENDBRANCH   4   5
TORSDOF 12
ENDMDL
MODEL      233
REMARK 921   NORMALIZED FREE ENERGY PREDICTED BY IDOCK:   -4.28 KCAL/MOL
REMARK 922        TOTAL FREE ENERGY PREDICTED BY IDOCK:  -10.10 KCAL/MOL
REMARK 923 INTER-LIGAND FREE ENERGY PREDICTED BY IDOCK:   -9.49 KCAL/MOL
REMARK 924 INTRA-LIGAND FREE ENERGY PREDICTED BY IDOCK:   -0.61 KCAL/MOL
REMARK 927      BINDING AFFINITY PREDICTED BY RF-SCORE:    0.00 PKD
ROOT
HETATM    1  C   UNL     1     -11.324  15.219  65.242  1.00  0.00    -0.282 C  
HETATM    2  C   UNL     1     -10.399  15.096  66.441  1.00  0.00    -0.292 C  
HETATM    3  C   UNL     1     -10.285  16.374  67.274  1.00  0.00    -0.278 C  
HETATM    4  C   UNL     1     -10.367  13.861  67.348  1.00  0.00    -0.252 C  
ENDROOT
BRANCH   4   5
HETATM    5  N   UNL     1     -11.497  12.962  67.727  1.00  0.00    -0.301 N  
BRANCH   5   6
HETATM    6  C   UNL     1     -11.707  11.986  66.531  1.00  0.00    -0.256 C  
BRANCH   6   7
HETATM    7  C   UNL     1     -10.451  11.093  66.117  1.00  0.00    -0.253 C  
BRANCH   7   8
HETATM    8  C   UNL     1      -9.906  10.240  67.367  1.00  0.00    -0.179 C  
BRANCH   8   9
HETATM    9  N   UNL     1     -10.710   9.032  67.628  1.00  0.00    -0.445 N  
HETATM   10  C   UNL     1     -10.488   7.868  66.938  1.00  0.00    -0.318 C  
HETATM   11  H   UNL     1     -11.444   9.063  68.336  1.00  0.00     0.000 HD 
HETATM   12  O   UNL     1      -9.608   7.682  66.114  1.00  0.00    -0.128 OA 
BRANCH  10  13
HETATM   13  O   UNL     1     -11.390   6.925  67.325  1.00  0.00    -0.263 OA 
BRANCH  13  14
HETATM   14  C   UNL     1     -10.900   5.978  68.292  1.00  0.00    -0.284 C  
HETATM   15  C   UNL     1      -9.392   5.884  68.347  1.00  0.00    -0.124 C  
HETATM   16  O   UNL     1     -10.165   6.063  70.571  1.00  0.00    -0.188 OA 
HETATM   17  C   UNL     1      -9.131   5.474  69.775  1.00  0.00    -0.132 C  
HETATM   18  C   UNL     1     -11.244   6.441  69.703  1.00  0.00    -0.418 C  
ENDBRANCH  13  14
ENDBRANCH  10  13
ENDBRANCH   8   9
BRANCH   8  19
HETATM   19  C   UNL     1      -8.394   9.914  67.405  1.00  0.00    -0.118 C  
BRANCH  19  20
HETATM   20  C   UNL     1      -7.518  10.760  68.289  1.00  0.00    -0.092 A  
HETATM   21  C   UNL     1      -6.241  12.785  68.681  1.00  0.00    -0.071 A  
HETATM   22  C   UNL     1      -6.050  10.925  70.210  1.00  0.00    -0.142 A  
HETATM   23  C   UNL     1      -6.968  10.203  69.450  1.00  0.00    -0.076 A  
HETATM   24  C   UNL     1      -7.153  12.060  67.913  1.00  0.00    -0.097 A  
HETATM   25  C   UNL     1      -5.684  12.213  69.824  1.00  0.00    -0.111 A  
ENDBRANCH  19  20
ENDBRANCH   8  19
ENDBRANCH   7   8
BRANCH   7  26
HETATM   26  O   UNL     1      -9.444  11.852  65.351  1.00  0.00    -0.207 OA 
HETATM   27  O   UNL     1      -8.713  10.792  62.336  1.00  0.00    -0.234 OA 
HETATM   28  O   UNL     1     -10.240  12.280  63.221  1.00  0.00    -0.402 OA 
HETATM   29  O   UNL     1      -9.946   9.947  63.911  1.00  0.00     0.032 OA 
HETATM   30  P   UNL     1      -9.059  11.293  63.760  1.00  0.00     0.147 P  
ENDBRANCH   7  26
ENDBRANCH   6   7
ENDBRANCH   5   6
BRANCH   5  31
HETATM   31  S   UNL     1     -11.710  12.132  69.206  1.00  0.00    -0.326 S  
HETATM   32  O   UNL     1     -10.426  11.650  69.673  1.00  0.00     0.094 OA 
HETATM   33  O   UNL     1     -12.782  11.174  69.026  1.00  0.00    -0.237 OA 
BRANCH  31  34
HETATM   34  C   UNL     1     -12.258  13.262  70.432  1.00  0.00    -0.332 A  
HETATM   35  N   UNL     1     -13.830  15.823  73.341  1.00  0.00    -0.607 NA 
HETATM   36  C   UNL     1     -12.297  14.633  70.178  1.00  0.00    -0.390 A  
HETATM   37  H1  UNL     1     -14.160  15.451  74.231  1.00  0.00     0.000 HD 
HETATM   38  H2  UNL     1     -14.596  16.338  72.906  1.00  0.00     0.000 HD 
HETATM   39  C   UNL     1     -12.863  12.737  71.575  1.00  0.00    -0.369 A  
HETATM   40  C   UNL     1     -13.371  13.591  72.542  1.00  0.00    -0.617 A  
HETATM   41  C   UNL     1     -12.819  15.483  71.155  1.00  0.00    -0.551 A  
HETATM   42  C   UNL     1     -13.272  14.973  72.379  1.00  0.00    -0.391 A  
ENDBRANCH  31  34
ENDBRANCH   5  31
ENDBRANCH   4   5
TORSDOF 12
ENDMDL
MODEL      234
REMARK 921   NORMALIZED FREE ENERGY PREDICTED BY IDOCK:   -4.28 KCAL/MOL
REMARK 922        TOTAL FREE ENERGY PREDICTED BY IDOCK:  -10.09 KCAL/MOL
REMARK 923 INTER-LIGAND FREE ENERGY PREDICTED BY IDOCK:   -9.00 KCAL/MOL
REMARK 924 INTRA-LIGAND FREE ENERGY PREDICTED BY IDOCK:   -1.09 KCAL/MOL
REMARK 927      BINDING AFFINITY PREDICTED BY RF-SCORE:    0.00 PKD
ROOT
HETATM    1  C   UNL     1      -8.245   7.956  65.040  1.00  0.00    -0.134 C  
HETATM    2  C   UNL     1      -8.115   9.382  64.531  1.00  0.00    -0.136 C  
HETATM    3  C   UNL     1      -9.102   9.739  63.418  1.00  0.00    -0.262 C  
HETATM    4  C   UNL     1      -7.897  10.583  65.459  1.00  0.00    -0.138 C  
ENDROOT
BRANCH   4   5
HETATM    5  N   UNL     1      -8.412  10.787  66.844  1.00  0.00    -0.128 N  
BRANCH   5   6
HETATM    6  C   UNL     1      -9.965  10.852  66.735  1.00  0.00    -0.205 C  
BRANCH   6   7
HETATM    7  C   UNL     1     -10.622  12.302  66.857  1.00  0.00    -0.224 C  
BRANCH   7   8
HETATM    8  C   UNL     1     -10.460  12.892  68.345  1.00  0.00    -0.251 C  
BRANCH   8   9
HETATM    9  N   UNL     1      -9.083  13.324  68.642  1.00  0.00    -0.384 N  
HETATM   10  C   UNL     1      -8.257  13.795  67.653  1.00  0.00    -0.177 C  
HETATM   11  H   UNL     1      -8.737  13.272  69.600  1.00  0.00     0.000 HD 
HETATM   12  O   UNL     1      -8.565  13.961  66.484  1.00  0.00    -0.024 OA 
BRANCH  10  13
HETATM   13  O   UNL     1      -7.032  14.076  68.172  1.00  0.00    -0.092 OA 
BRANCH  13  14
HETATM   14  C   UNL     1      -6.382  15.229  67.607  1.00  0.00    -0.146 C  
HETATM   15  C   UNL     1      -7.270  16.449  67.521  1.00  0.00    -0.171 C  
HETATM   16  O   UNL     1      -5.215  17.141  68.457  1.00  0.00    -0.122 OA 
HETATM   17  C   UNL     1      -6.287  17.590  67.620  1.00  0.00    -0.150 C  
HETATM   18  C   UNL     1      -5.266  15.709  68.528  1.00  0.00    -0.097 C  
ENDBRANCH  13  14
ENDBRANCH  10  13
ENDBRANCH   8   9
BRANCH   8  19
HETATM   19  C   UNL     1     -11.484  13.956  68.807  1.00  0.00    -0.327 C  
BRANCH  19  20
HETATM   20  C   UNL     1     -11.161  15.401  68.540  1.00  0.00    -0.295 A  
HETATM   21  C   UNL     1     -10.738  17.218  66.989  1.00  0.00    -0.152 A  
HETATM   22  C   UNL     1     -10.317  17.524  69.347  1.00  0.00    -0.067 A  
HETATM   23  C   UNL     1     -10.747  16.222  69.595  1.00  0.00    -0.338 A  
HETATM   24  C   UNL     1     -11.160  15.911  67.234  1.00  0.00    -0.172 A  
HETATM   25  C   UNL     1     -10.309  18.021  68.045  1.00  0.00    -0.397 A  
ENDBRANCH  19  20
ENDBRANCH   8  19
ENDBRANCH   7   8
BRANCH   7  26
HETATM   26  O   UNL     1     -11.974  12.362  66.270  1.00  0.00    -0.553 OA 
HETATM   27  O   UNL     1     -12.310  13.879  63.383  1.00  0.00    -0.760 OA 
HETATM   28  O   UNL     1     -11.894  11.710  64.052  1.00  0.00    -0.323 OA 
HETATM   29  O   UNL     1     -10.620  13.689  64.733  1.00  0.00    -0.377 OA 
HETATM   30  P   UNL     1     -12.151  13.162  64.746  1.00  0.00    -0.453 P  
ENDBRANCH   7  26
ENDBRANCH   6   7
ENDBRANCH   5   6
BRANCH   5  31
HETATM   31  S   UNL     1      -7.958   9.937  68.255  1.00  0.00    -0.101 S  
HETATM   32  O   UNL     1      -7.617  10.885  69.296  1.00  0.00    -0.130 OA 
HETATM   33  O   UNL     1      -6.972   8.945  67.877  1.00  0.00    -0.076 OA 
BRANCH  31  34
HETATM   34  C   UNL     1      -9.342   9.049  68.869  1.00  0.00    -0.143 A  
HETATM   35  N   UNL     1     -12.505   6.928  70.596  1.00  0.00    -0.574 NA 
HETATM   36  C   UNL     1      -9.658   7.783  68.376  1.00  0.00    -0.157 A  
HETATM   37  H1  UNL     1     -13.051   7.340  71.352  1.00  0.00     0.000 HD 
HETATM   38  H2  UNL     1     -12.129   6.037  70.922  1.00  0.00     0.000 HD 
HETATM   39  C   UNL     1      -9.975   9.542  70.011  1.00  0.00    -0.274 A  
HETATM   40  C   UNL     1     -11.031   8.840  70.572  1.00  0.00    -0.272 A  
HETATM   41  C   UNL     1     -10.718   7.082  68.954  1.00  0.00    -0.227 A  
HETATM   42  C   UNL     1     -11.468   7.647  69.993  1.00  0.00     0.005 A  
ENDBRANCH  31  34
ENDBRANCH   5  31
ENDBRANCH   4   5
TORSDOF 12
ENDMDL
MODEL      235
REMARK 921   NORMALIZED FREE ENERGY PREDICTED BY IDOCK:   -4.25 KCAL/MOL
REMARK 922        TOTAL FREE ENERGY PREDICTED BY IDOCK:  -10.03 KCAL/MOL
REMARK 923 INTER-LIGAND FREE ENERGY PREDICTED BY IDOCK:   -8.84 KCAL/MOL
REMARK 924 INTRA-LIGAND FREE ENERGY PREDICTED BY IDOCK:   -1.19 KCAL/MOL
REMARK 927      BINDING AFFINITY PREDICTED BY RF-SCORE:    0.00 PKD
ROOT
HETATM    1  C   UNL     1     -12.017  15.415  68.208  1.00  0.00    -0.109 C  
HETATM    2  C   UNL     1     -11.404  14.820  69.465  1.00  0.00    -0.312 C  
HETATM    3  C   UNL     1     -12.431  14.363  70.503  1.00  0.00    -0.416 C  
HETATM    4  C   UNL     1     -10.207  13.862  69.438  1.00  0.00     0.260 C  
ENDROOT
BRANCH   4   5
HETATM    5  N   UNL     1      -9.861  12.843  68.405  1.00  0.00    -0.220 N  
BRANCH   5   6
HETATM    6  C   UNL     1     -11.067  11.859  68.331  1.00  0.00    -0.244 C  
BRANCH   6   7
HETATM    7  C   UNL     1     -10.997  10.582  69.287  1.00  0.00    -0.244 C  
BRANCH   7   8
HETATM    8  C   UNL     1     -10.025   9.453  68.681  1.00  0.00    -0.173 C  
BRANCH   8   9
HETATM    9  N   UNL     1     -10.089   8.183  69.426  1.00  0.00    -0.190 N  
HETATM   10  C   UNL     1     -10.587   7.044  68.846  1.00  0.00    -0.215 C  
HETATM   11  H   UNL     1      -9.756   8.151  70.389  1.00  0.00     0.000 HD 
HETATM   12  O   UNL     1     -10.961   6.935  67.690  1.00  0.00    -0.256 OA 
BRANCH  10  13
HETATM   13  O   UNL     1     -10.586   6.029  69.753  1.00  0.00    -0.230 OA 
BRANCH  13  14
HETATM   14  C   UNL     1      -9.829   6.285  70.949  1.00  0.00    -0.181 C  
HETATM   15  C   UNL     1     -10.608   6.065  72.226  1.00  0.00    -0.256 C  
HETATM   16  O   UNL     1      -8.526   4.980  72.479  1.00  0.00    -0.118 OA 
HETATM   17  C   UNL     1      -9.535   5.680  73.215  1.00  0.00    -0.142 C  
HETATM   18  C   UNL     1      -8.699   5.271  71.084  1.00  0.00    -0.128 C  
ENDBRANCH  13  14
ENDBRANCH  10  13
ENDBRANCH   8   9
BRANCH   8  19
HETATM   19  C   UNL     1     -10.088   9.202  67.156  1.00  0.00    -0.301 C  
BRANCH  19  20
HETATM   20  C   UNL     1      -8.788   8.992  66.426  1.00  0.00    -0.172 A  
HETATM   21  C   UNL     1      -7.565   8.305  64.446  1.00  0.00    -0.113 A  
HETATM   22  C   UNL     1      -6.380   8.741  66.505  1.00  0.00    -0.062 A  
HETATM   23  C   UNL     1      -7.582   9.062  67.132  1.00  0.00    -0.091 A  
HETATM   24  C   UNL     1      -8.771   8.618  65.075  1.00  0.00    -0.154 A  
HETATM   25  C   UNL     1      -6.372   8.360  65.165  1.00  0.00    -0.052 A  
ENDBRANCH  19  20
ENDBRANCH   8  19
ENDBRANCH   7   8
BRANCH   7  26
HETATM   26  O   UNL     1     -12.331  10.133  69.730  1.00  0.00    -0.039 OA 
HETATM   27  O   UNL     1     -12.624   9.051  72.811  1.00  0.00    -0.275 OA 
HETATM   28  O   UNL     1     -12.846  11.098  71.768  1.00  0.00    -0.422 OA 
HETATM   29  O   UNL     1     -10.892   9.626  71.635  1.00  0.00    -0.290 OA 
HETATM   30  P   UNL     1     -12.485   9.562  71.356  1.00  0.00    -0.396 P  
ENDBRANCH   7  26
ENDBRANCH   6   7
ENDBRANCH   5   6
BRANCH   5  31
HETATM   31  S   UNL     1      -9.236  13.123  66.839  1.00  0.00    -0.227 S  
HETATM   32  O   UNL     1      -8.100  12.254  66.616  1.00  0.00    -0.079 OA 
HETATM   33  O   UNL     1      -9.053  14.553  66.685  1.00  0.00    -0.257 OA 
BRANCH  31  34
HETATM   34  C   UNL     1     -10.430  12.647  65.644  1.00  0.00    -0.275 A  
HETATM   35  N   UNL     1     -13.091  11.619  62.586  1.00  0.00    -0.402 NA 
HETATM   36  C   UNL     1     -11.701  13.219  65.631  1.00  0.00    -0.389 A  
HETATM   37  H1  UNL     1     -12.820  10.943  61.872  1.00  0.00     0.000 HD 
HETATM   38  H2  UNL     1     -13.362  12.485  62.119  1.00  0.00     0.000 HD 
HETATM   39  C   UNL     1     -10.000  11.855  64.577  1.00  0.00    -0.255 A  
HETATM   40  C   UNL     1     -10.890  11.507  63.573  1.00  0.00    -0.473 A  
HETATM   41  C   UNL     1     -12.587  12.869  64.610  1.00  0.00    -0.459 A  
HETATM   42  C   UNL     1     -12.216  11.940  63.629  1.00  0.00    -0.479 A  
ENDBRANCH  31  34
ENDBRANCH   5  31
ENDBRANCH   4   5
TORSDOF 12
ENDMDL
MODEL      236
REMARK 921   NORMALIZED FREE ENERGY PREDICTED BY IDOCK:   -4.23 KCAL/MOL
REMARK 922        TOTAL FREE ENERGY PREDICTED BY IDOCK:  -10.01 KCAL/MOL
REMARK 923 INTER-LIGAND FREE ENERGY PREDICTED BY IDOCK:   -7.26 KCAL/MOL
REMARK 924 INTRA-LIGAND FREE ENERGY PREDICTED BY IDOCK:   -2.75 KCAL/MOL
REMARK 927      BINDING AFFINITY PREDICTED BY RF-SCORE:    0.00 PKD
ROOT
HETATM    1  C   UNL     1     -12.901  10.120  71.012  1.00  0.00    -0.474 C  
HETATM    2  C   UNL     1     -13.341   8.903  71.810  1.00  0.00    -0.436 C  
HETATM    3  C   UNL     1     -14.411   8.057  71.117  1.00  0.00    -0.281 C  
HETATM    4  C   UNL     1     -12.359   8.007  72.573  1.00  0.00    -0.194 C  
ENDROOT
BRANCH   4   5
HETATM    5  N   UNL     1     -10.953   7.658  72.215  1.00  0.00    -0.258 N  
BRANCH   5   6
HETATM    6  C   UNL     1     -10.184   9.006  72.078  1.00  0.00    -0.200 C  
BRANCH   6   7
HETATM    7  C   UNL     1      -9.283   9.176  70.771  1.00  0.00    -0.262 C  
BRANCH   7   8
HETATM    8  C   UNL     1     -10.158   8.997  69.434  1.00  0.00    -0.198 C  
BRANCH   8   9
HETATM    9  N   UNL     1      -9.580   9.700  68.274  1.00  0.00    -0.140 N  
HETATM   10  C   UNL     1     -10.264  10.707  67.641  1.00  0.00    -0.194 C  
HETATM   11  H   UNL     1      -8.656   9.432  67.936  1.00  0.00     0.000 HD 
HETATM   12  O   UNL     1     -11.344  11.159  67.979  1.00  0.00    -0.274 OA 
BRANCH  10  13
HETATM   13  O   UNL     1      -9.542  11.153  66.576  1.00  0.00    -0.189 OA 
BRANCH  13  14
HETATM   14  C   UNL     1      -8.816  10.133  65.866  1.00  0.00    -0.149 C  
HETATM   15  C   UNL     1      -9.527   9.622  64.634  1.00  0.00    -0.221 C  
HETATM   16  O   UNL     1      -7.292  10.072  64.018  1.00  0.00    -0.131 OA 
HETATM   17  C   UNL     1      -8.389   9.195  63.740  1.00  0.00    -0.182 C  
HETATM   18  C   UNL     1      -7.534  10.713  65.279  1.00  0.00     0.006 C  
ENDBRANCH  13  14
ENDBRANCH  10  13
ENDBRANCH   8   9
BRANCH   8  19
HETATM   19  C   UNL     1     -10.591   7.562  69.049  1.00  0.00    -0.190 C  
BRANCH  19  20
HETATM   20  C   UNL     1      -9.904   6.913  67.878  1.00  0.00    -0.155 A  
HETATM   21  C   UNL     1      -9.899   5.308  66.059  1.00  0.00    -0.155 A  
HETATM   22  C   UNL     1      -7.859   6.450  66.666  1.00  0.00    -0.104 A  
HETATM   23  C   UNL     1      -8.541   7.144  67.663  1.00  0.00    -0.122 A  
HETATM   24  C   UNL     1     -10.582   5.995  67.063  1.00  0.00    -0.385 A  
HETATM   25  C   UNL     1      -8.536   5.531  65.866  1.00  0.00    -0.130 A  
ENDBRANCH  19  20
ENDBRANCH   8  19
ENDBRANCH   7   8
BRANCH   7  26
HETATM   26  O   UNL     1      -8.029   8.403  70.844  1.00  0.00    -0.090 OA 
HETATM   27  O   UNL     1      -5.212  10.041  70.484  1.00  0.00    -0.039 OA 
HETATM   28  O   UNL     1      -6.544   9.452  72.275  1.00  0.00    -0.292 OA 
HETATM   29  O   UNL     1      -7.284  10.655  70.273  1.00  0.00    -0.208 OA 
HETATM   30  P   UNL     1      -6.542   9.268  70.654  1.00  0.00    -0.098 P  
ENDBRANCH   7  26
ENDBRANCH   6   7
ENDBRANCH   5   6
BRANCH   5  31
HETATM   31  S   UNL     1      -9.956   6.485  72.955  1.00  0.00    -0.181 S  
HETATM   32  O   UNL     1     -10.776   5.589  73.744  1.00  0.00    -0.270 OA 
HETATM   33  O   UNL     1      -8.866   7.180  73.612  1.00  0.00    -0.143 OA 
BRANCH  31  34
HETATM   34  C   UNL     1      -9.224   5.480  71.717  1.00  0.00    -0.142 A  
HETATM   35  N   UNL     1      -7.628   2.853  68.881  1.00  0.00    -0.048 NA 
HETATM   36  C   UNL     1      -7.842   5.305  71.657  1.00  0.00    -0.110 A  
HETATM   37  H1  UNL     1      -8.240   2.364  68.228  1.00  0.00     0.000 HD 
HETATM   38  H2  UNL     1      -7.081   2.157  69.389  1.00  0.00     0.000 HD 
HETATM   39  C   UNL     1     -10.072   4.686  70.941  1.00  0.00    -0.257 A  
HETATM   40  C   UNL     1      -9.536   3.826  69.994  1.00  0.00    -0.259 A  
HETATM   41  C   UNL     1      -7.315   4.430  70.706  1.00  0.00    -0.048 A  
HETATM   42  C   UNL     1      -8.155   3.758  69.808  1.00  0.00    -0.053 A  
ENDBRANCH  31  34
ENDBRANCH   5  31
ENDBRANCH   4   5
TORSDOF 12
ENDMDL
MODEL      237
REMARK 921   NORMALIZED FREE ENERGY PREDICTED BY IDOCK:   -4.21 KCAL/MOL
REMARK 922        TOTAL FREE ENERGY PREDICTED BY IDOCK:   -9.97 KCAL/MOL
REMARK 923 INTER-LIGAND FREE ENERGY PREDICTED BY IDOCK:   -8.91 KCAL/MOL
REMARK 924 INTRA-LIGAND FREE ENERGY PREDICTED BY IDOCK:   -1.06 KCAL/MOL
REMARK 927      BINDING AFFINITY PREDICTED BY RF-SCORE:    0.00 PKD
ROOT
HETATM    1  C   UNL     1     -12.764  14.203  65.775  1.00  0.00    -0.443 C  
HETATM    2  C   UNL     1     -11.659  14.367  66.806  1.00  0.00    -0.399 C  
HETATM    3  C   UNL     1     -11.834  15.583  67.719  1.00  0.00     0.026 C  
HETATM    4  C   UNL     1     -11.067  13.190  67.588  1.00  0.00    -0.270 C  
ENDROOT
BRANCH   4   5
HETATM    5  N   UNL     1     -11.752  11.950  68.055  1.00  0.00    -0.326 N  
BRANCH   5   6
HETATM    6  C   UNL     1     -11.274  10.799  67.120  1.00  0.00    -0.147 C  
BRANCH   6   7
HETATM    7  C   UNL     1      -9.774  10.903  66.583  1.00  0.00    -0.189 C  
BRANCH   7   8
HETATM    8  C   UNL     1      -8.727  11.019  67.798  1.00  0.00    -0.130 C  
BRANCH   8   9
HETATM    9  N   UNL     1      -8.608   9.769  68.571  1.00  0.00    -0.118 N  
HETATM   10  C   UNL     1      -8.028   8.651  68.028  1.00  0.00    -0.107 C  
HETATM   11  H   UNL     1      -8.963   9.736  69.527  1.00  0.00     0.000 HD 
HETATM   12  O   UNL     1      -7.515   8.576  66.925  1.00  0.00    -0.082 OA 
BRANCH  10  13
HETATM   13  O   UNL     1      -8.088   7.624  68.919  1.00  0.00    -0.123 OA 
BRANCH  13  14
HETATM   14  C   UNL     1      -9.369   7.442  69.549  1.00  0.00    -0.156 C  
HETATM   15  C   UNL     1     -10.062   6.154  69.165  1.00  0.00    -0.212 C  
HETATM   16  O   UNL     1     -10.183   6.340  71.516  1.00  0.00    -0.195 OA 
HETATM   17  C   UNL     1     -10.901   5.846  70.381  1.00  0.00    -0.308 C  
HETATM   18  C   UNL     1      -9.196   7.275  71.055  1.00  0.00    -0.154 C  
ENDBRANCH  13  14
ENDBRANCH  10  13
ENDBRANCH   8   9
BRANCH   8  19
HETATM   19  C   UNL     1      -7.331  11.608  67.486  1.00  0.00    -0.119 C  
BRANCH  19  20
HETATM   20  C   UNL     1      -7.001  12.964  68.050  1.00  0.00    -0.108 A  
HETATM   21  C   UNL     1      -5.378  14.575  68.860  1.00  0.00    -0.088 A  
HETATM   22  C   UNL     1      -7.738  14.988  69.159  1.00  0.00    -0.179 A  
HETATM   23  C   UNL     1      -8.032  13.788  68.513  1.00  0.00    -0.131 A  
HETATM   24  C   UNL     1      -5.670  13.369  68.221  1.00  0.00    -0.098 A  
HETATM   25  C   UNL     1      -6.413  15.379  69.335  1.00  0.00    -0.148 A  
ENDBRANCH  19  20
ENDBRANCH   8  19
ENDBRANCH   7   8
BRANCH   7  26
HETATM   26  O   UNL     1      -9.629  11.889  65.495  1.00  0.00    -0.232 OA 
HETATM   27  O   UNL     1      -9.564  10.756  62.418  1.00  0.00    -0.224 OA 
HETATM   28  O   UNL     1     -11.214  11.487  63.858  1.00  0.00    -0.387 OA 
HETATM   29  O   UNL     1      -9.563   9.741  64.338  1.00  0.00    -0.258 OA 
HETATM   30  P   UNL     1      -9.595  11.291  63.872  1.00  0.00    -0.214 P  
ENDBRANCH   7  26
ENDBRANCH   6   7
ENDBRANCH   5   6
BRANCH   5  31
HETATM   31  S   UNL     1     -11.889  11.382  69.661  1.00  0.00    -0.380 S  
HETATM   32  O   UNL     1     -10.572  11.045  70.162  1.00  0.00     0.042 OA 
HETATM   33  O   UNL     1     -12.918  10.363  69.685  1.00  0.00    -0.029 OA 
BRANCH  31  34
HETATM   34  C   UNL     1     -12.459  12.684  70.691  1.00  0.00    -0.239 A  
HETATM   35  N   UNL     1     -13.539  15.823  73.235  1.00  0.00    -0.686 NA 
HETATM   36  C   UNL     1     -13.366  12.440  71.721  1.00  0.00    -0.368 A  
HETATM   37  H1  UNL     1     -13.160  16.759  73.090  1.00  0.00     0.000 HD 
HETATM   38  H2  UNL     1     -13.312  15.531  74.186  1.00  0.00     0.000 HD 
HETATM   39  C   UNL     1     -11.813  13.919  70.595  1.00  0.00    -0.292 A  
HETATM   40  C   UNL     1     -12.184  14.959  71.433  1.00  0.00    -0.391 A  
HETATM   41  C   UNL     1     -13.726  13.493  72.565  1.00  0.00    -0.664 A  
HETATM   42  C   UNL     1     -13.206  14.779  72.366  1.00  0.00    -0.389 A  
ENDBRANCH  31  34
ENDBRANCH   5  31
ENDBRANCH   4   5
TORSDOF 12
ENDMDL
MODEL      238
REMARK 921   NORMALIZED FREE ENERGY PREDICTED BY IDOCK:   -4.21 KCAL/MOL
REMARK 922        TOTAL FREE ENERGY PREDICTED BY IDOCK:   -9.96 KCAL/MOL
REMARK 923 INTER-LIGAND FREE ENERGY PREDICTED BY IDOCK:   -9.22 KCAL/MOL
REMARK 924 INTRA-LIGAND FREE ENERGY PREDICTED BY IDOCK:   -0.74 KCAL/MOL
REMARK 927      BINDING AFFINITY PREDICTED BY RF-SCORE:    0.00 PKD
ROOT
HETATM    1  C   UNL     1     -12.251  13.569  70.422  1.00  0.00    -0.426 C  
HETATM    2  C   UNL     1     -12.235  15.072  70.194  1.00  0.00    -0.392 C  
HETATM    3  C   UNL     1     -11.593  15.868  71.332  1.00  0.00    -0.529 C  
HETATM    4  C   UNL     1     -11.900  15.707  68.840  1.00  0.00    -0.352 C  
ENDROOT
BRANCH   4   5
HETATM    5  N   UNL     1     -10.949  15.220  67.799  1.00  0.00    -0.303 N  
BRANCH   5   6
HETATM    6  C   UNL     1     -11.198  13.689  67.652  1.00  0.00    -0.279 C  
BRANCH   6   7
HETATM    7  C   UNL     1      -9.958  12.736  67.973  1.00  0.00    -0.225 C  
BRANCH   7   8
HETATM    8  C   UNL     1     -10.445  11.239  68.304  1.00  0.00    -0.196 C  
BRANCH   8   9
HETATM    9  N   UNL     1     -10.277  10.319  67.165  1.00  0.00    -0.213 N  
HETATM   10  C   UNL     1      -9.313   9.342  67.178  1.00  0.00    -0.139 C  
HETATM   11  H   UNL     1     -10.888  10.409  66.353  1.00  0.00     0.000 HD 
HETATM   12  O   UNL     1      -8.562   9.092  68.105  1.00  0.00    -0.128 OA 
BRANCH  10  13
HETATM   13  O   UNL     1      -9.329   8.666  65.997  1.00  0.00    -0.212 OA 
BRANCH  13  14
HETATM   14  C   UNL     1      -8.202   8.918  65.139  1.00  0.00    -0.141 C  
HETATM   15  C   UNL     1      -7.363   7.692  64.856  1.00  0.00    -0.075 C  
HETATM   16  O   UNL     1      -7.754   8.765  62.789  1.00  0.00    -0.109 OA 
HETATM   17  C   UNL     1      -6.782   7.986  63.495  1.00  0.00    -0.075 C  
HETATM   18  C   UNL     1      -8.679   9.308  63.744  1.00  0.00    -0.167 C  
ENDBRANCH  13  14
ENDBRANCH  10  13
ENDBRANCH   8   9
BRANCH   8  19
HETATM   19  C   UNL     1      -9.934  10.595  69.614  1.00  0.00    -0.090 C  
BRANCH  19  20
HETATM   20  C   UNL     1     -10.942   9.913  70.500  1.00  0.00    -0.391 A  
HETATM   21  C   UNL     1     -13.223   9.634  71.275  1.00  0.00    -0.429 A  
HETATM   22  C   UNL     1     -11.409   8.559  72.453  1.00  0.00    -0.412 A  
HETATM   23  C   UNL     1     -10.499   9.091  71.542  1.00  0.00    -0.410 A  
HETATM   24  C   UNL     1     -12.312  10.175  70.367  1.00  0.00    -0.268 A  
HETATM   25  C   UNL     1     -12.769   8.832  72.322  1.00  0.00    -0.466 A  
ENDBRANCH  19  20
ENDBRANCH   8  19
ENDBRANCH   7   8
BRANCH   7  26
HETATM   26  O   UNL     1      -9.010  13.344  68.925  1.00  0.00     0.055 OA 
HETATM   27  O   UNL     1      -5.814  13.146  68.220  1.00  0.00    -0.071 OA 
HETATM   28  O   UNL     1      -7.494  14.667  67.783  1.00  0.00    -0.132 OA 
HETATM   29  O   UNL     1      -7.564  12.271  67.278  1.00  0.00    -0.148 OA 
HETATM   30  P   UNL     1      -7.323  13.240  68.553  1.00  0.00    -0.095 P  
ENDBRANCH   7  26
ENDBRANCH   6   7
ENDBRANCH   5   6
BRANCH   5  31
HETATM   31  S   UNL     1     -10.642  15.915  66.268  1.00  0.00    -0.271 S  
HETATM   32  O   UNL     1     -11.901  16.179  65.602  1.00  0.00     0.639 OA 
HETATM   33  O   UNL     1      -9.665  15.084  65.592  1.00  0.00    -0.339 OA 
BRANCH  31  34
HETATM   34  C   UNL     1      -9.890  17.486  66.484  1.00  0.00    -0.310 A  
HETATM   35  N   UNL     1      -8.202  21.229  67.276  1.00  0.00    -0.546 NA 
HETATM   36  C   UNL     1     -10.294  18.585  65.728  1.00  0.00    -0.224 A  
HETATM   37  H1  UNL     1      -7.488  21.331  67.998  1.00  0.00     0.000 HD 
HETATM   38  H2  UNL     1      -8.969  21.866  67.493  1.00  0.00     0.000 HD 
HETATM   39  C   UNL     1      -9.042  17.655  67.581  1.00  0.00    -0.241 A  
HETATM   40  C   UNL     1      -8.476  18.895  67.831  1.00  0.00    -0.318 A  
HETATM   41  C   UNL     1      -9.724  19.832  65.994  1.00  0.00    -0.455 A  
HETATM   42  C   UNL     1      -8.744  19.973  66.985  1.00  0.00    -0.336 A  
ENDBRANCH  31  34
ENDBRANCH   5  31
ENDBRANCH   4   5
TORSDOF 12
ENDMDL
MODEL      239
REMARK 921   NORMALIZED FREE ENERGY PREDICTED BY IDOCK:   -4.18 KCAL/MOL
REMARK 922        TOTAL FREE ENERGY PREDICTED BY IDOCK:   -9.91 KCAL/MOL
REMARK 923 INTER-LIGAND FREE ENERGY PREDICTED BY IDOCK:   -8.23 KCAL/MOL
REMARK 924 INTRA-LIGAND FREE ENERGY PREDICTED BY IDOCK:   -1.68 KCAL/MOL
REMARK 927      BINDING AFFINITY PREDICTED BY RF-SCORE:    0.00 PKD
ROOT
HETATM    1  C   UNL     1     -12.144  15.822  68.909  1.00  0.00    -0.139 C  
HETATM    2  C   UNL     1     -11.168  15.383  69.988  1.00  0.00    -0.314 C  
HETATM    3  C   UNL     1     -11.838  14.884  71.269  1.00  0.00    -0.391 C  
HETATM    4  C   UNL     1      -9.907  14.564  69.689  1.00  0.00     0.279 C  
ENDROOT
BRANCH   4   5
HETATM    5  N   UNL     1      -9.706  13.522  68.639  1.00  0.00    -0.157 N  
BRANCH   5   6
HETATM    6  C   UNL     1     -11.053  12.748  68.520  1.00  0.00    -0.266 C  
BRANCH   6   7
HETATM    7  C   UNL     1     -11.056  11.248  69.065  1.00  0.00    -0.244 C  
BRANCH   7   8
HETATM    8  C   UNL     1     -10.064  10.315  68.209  1.00  0.00    -0.154 C  
BRANCH   8   9
HETATM    9  N   UNL     1      -8.669  10.380  68.681  1.00  0.00    -0.130 N  
HETATM   10  C   UNL     1      -8.229   9.585  69.708  1.00  0.00    -0.151 C  
HETATM   11  H   UNL     1      -8.020  11.028  68.234  1.00  0.00     0.000 HD 
HETATM   12  O   UNL     1      -8.884   8.733  70.284  1.00  0.00    -0.140 OA 
BRANCH  10  13
HETATM   13  O   UNL     1      -6.928   9.872  69.986  1.00  0.00    -0.084 OA 
BRANCH  13  14
HETATM   14  C   UNL     1      -5.967   9.180  69.169  1.00  0.00    -0.042 C  
HETATM   15  C   UNL     1      -6.443   7.833  68.673  1.00  0.00    -0.048 C  
HETATM   16  O   UNL     1      -5.524   8.977  66.823  1.00  0.00    -0.039 OA 
HETATM   17  C   UNL     1      -5.692   7.667  67.374  1.00  0.00    -0.036 C  
HETATM   18  C   UNL     1      -5.739   9.939  67.866  1.00  0.00    -0.039 C  
ENDBRANCH  13  14
ENDBRANCH  10  13
ENDBRANCH   8   9
BRANCH   8  19
HETATM   19  C   UNL     1     -10.495   8.850  67.964  1.00  0.00    -0.263 C  
BRANCH  19  20
HETATM   20  C   UNL     1      -9.761   8.070  66.907  1.00  0.00    -0.291 A  
HETATM   21  C   UNL     1      -8.698   6.026  66.147  1.00  0.00    -0.146 A  
HETATM   22  C   UNL     1      -8.451   8.060  64.869  1.00  0.00    -0.066 A  
HETATM   23  C   UNL     1      -9.246   8.739  65.790  1.00  0.00    -0.269 A  
HETATM   24  C   UNL     1      -9.488   6.706  67.075  1.00  0.00    -0.170 A  
HETATM   25  C   UNL     1      -8.175   6.706  65.048  1.00  0.00    -0.105 A  
ENDBRANCH  19  20
ENDBRANCH   8  19
ENDBRANCH   7   8
BRANCH   7  26
HETATM   26  O   UNL     1     -12.420  10.729  69.286  1.00  0.00    -0.356 OA 
HETATM   27  O   UNL     1     -13.125   9.525  72.253  1.00  0.00    -0.415 OA 
HETATM   28  O   UNL     1     -13.280  11.598  71.249  1.00  0.00    -0.230 OA 
HETATM   29  O   UNL     1     -11.263  10.213  71.372  1.00  0.00    -0.234 OA 
HETATM   30  P   UNL     1     -12.792  10.094  70.852  1.00  0.00    -0.280 P  
ENDBRANCH   7  26
ENDBRANCH   6   7
ENDBRANCH   5   6
BRANCH   5  31
HETATM   31  S   UNL     1      -9.009  13.730  67.093  1.00  0.00    -0.237 S  
HETATM   32  O   UNL     1      -7.889  12.824  66.948  1.00  0.00    -0.067 OA 
HETATM   33  O   UNL     1      -8.779  15.148  66.898  1.00  0.00    -0.225 OA 
BRANCH  31  34
HETATM   34  C   UNL     1     -10.165  13.244  65.865  1.00  0.00    -0.293 A  
HETATM   35  N   UNL     1     -13.133  12.120  63.142  1.00  0.00    -0.598 NA 
HETATM   36  C   UNL     1     -10.119  11.970  65.300  1.00  0.00    -0.289 A  
HETATM   37  H1  UNL     1     -13.867  12.777  62.878  1.00  0.00     0.000 HD 
HETATM   38  H2  UNL     1     -13.575  11.277  63.509  1.00  0.00     0.000 HD 
HETATM   39  C   UNL     1     -11.260  14.080  65.637  1.00  0.00    -0.310 A  
HETATM   40  C   UNL     1     -12.234  13.708  64.723  1.00  0.00    -0.440 A  
HETATM   41  C   UNL     1     -11.110  11.602  64.388  1.00  0.00    -0.382 A  
HETATM   42  C   UNL     1     -12.119  12.504  64.026  1.00  0.00    -0.473 A  
ENDBRANCH  31  34
ENDBRANCH   5  31
ENDBRANCH   4   5
TORSDOF 12
ENDMDL
MODEL      240
REMARK 921   NORMALIZED FREE ENERGY PREDICTED BY IDOCK:   -4.13 KCAL/MOL
REMARK 922        TOTAL FREE ENERGY PREDICTED BY IDOCK:   -9.83 KCAL/MOL
REMARK 923 INTER-LIGAND FREE ENERGY PREDICTED BY IDOCK:   -9.40 KCAL/MOL
REMARK 924 INTRA-LIGAND FREE ENERGY PREDICTED BY IDOCK:   -0.43 KCAL/MOL
REMARK 927      BINDING AFFINITY PREDICTED BY RF-SCORE:    0.00 PKD
ROOT
HETATM    1  C   UNL     1     -11.945  14.194  64.936  1.00  0.00    -0.424 C  
HETATM    2  C   UNL     1     -12.288  12.720  65.082  1.00  0.00    -0.555 C  
HETATM    3  C   UNL     1     -13.193  12.178  63.974  1.00  0.00     0.027 C  
HETATM    4  C   UNL     1     -11.263  11.662  65.503  1.00  0.00    -0.205 C  
ENDROOT
BRANCH   4   5
HETATM    5  N   UNL     1      -9.802  11.617  65.201  1.00  0.00    -0.248 N  
BRANCH   5   6
HETATM    6  C   UNL     1      -9.095  12.459  66.304  1.00  0.00    -0.097 C  
BRANCH   6   7
HETATM    7  C   UNL     1      -9.514  12.143  67.812  1.00  0.00    -0.192 C  
BRANCH   7   8
HETATM    8  C   UNL     1     -10.029  13.468  68.563  1.00  0.00    -0.202 C  
BRANCH   8   9
HETATM    9  N   UNL     1      -9.236  14.663  68.223  1.00  0.00    -0.191 N  
HETATM   10  C   UNL     1      -8.993  15.643  69.153  1.00  0.00    -0.257 C  
HETATM   11  H   UNL     1      -8.860  14.763  67.280  1.00  0.00     0.000 HD 
HETATM   12  O   UNL     1      -9.334  15.617  70.323  1.00  0.00     0.162 OA 
BRANCH  10  13
HETATM   13  O   UNL     1      -8.289  16.655  68.579  1.00  0.00    -0.207 OA 
BRANCH  13  14
HETATM   14  C   UNL     1      -9.063  17.539  67.748  1.00  0.00    -0.249 C  
HETATM   15  C   UNL     1      -9.097  18.968  68.241  1.00  0.00    -0.371 C  
HETATM   16  O   UNL     1      -8.613  19.034  65.931  1.00  0.00    -0.461 OA 
HETATM   17  C   UNL     1      -9.279  19.760  66.969  1.00  0.00    -0.352 C  
HETATM   18  C   UNL     1      -8.406  17.687  66.381  1.00  0.00    -0.253 C  
ENDBRANCH  13  14
ENDBRANCH  10  13
ENDBRANCH   8   9
BRANCH   8  19
HETATM   19  C   UNL     1     -11.544  13.778  68.507  1.00  0.00    -0.373 C  
BRANCH  19  20
HETATM   20  C   UNL     1     -12.285  13.892  69.812  1.00  0.00    -0.388 A  
HETATM   21  C   UNL     1     -13.355  15.242  71.521  1.00  0.00    -0.559 A  
HETATM   22  C   UNL     1     -12.948  12.894  71.918  1.00  0.00    -0.405 A  
HETATM   23  C   UNL     1     -12.384  12.775  70.649  1.00  0.00    -0.381 A  
HETATM   24  C   UNL     1     -12.781  15.127  70.254  1.00  0.00    -0.340 A  
HETATM   25  C   UNL     1     -13.430  14.127  72.354  1.00  0.00    -0.616 A  
ENDBRANCH  19  20
ENDBRANCH   8  19
ENDBRANCH   7   8
BRANCH   7  26
HETATM   26  O   UNL     1      -8.504  11.335  68.522  1.00  0.00    -0.146 OA 
HETATM   27  O   UNL     1      -5.360  12.207  68.200  1.00  0.00    -0.051 OA 
HETATM   28  O   UNL     1      -7.059  12.725  69.675  1.00  0.00     0.167 OA 
HETATM   29  O   UNL     1      -7.170  12.922  67.236  1.00  0.00    -0.143 OA 
HETATM   30  P   UNL     1      -6.846  11.796  68.353  1.00  0.00    -0.082 P  
ENDBRANCH   7  26
ENDBRANCH   6   7
ENDBRANCH   5   6
BRANCH   5  31
HETATM   31  S   UNL     1      -8.864  10.240  64.821  1.00  0.00    -0.210 S  
HETATM   32  O   UNL     1      -7.472  10.516  65.108  1.00  0.00    -0.124 OA 
HETATM   33  O   UNL     1      -9.221   9.816  63.482  1.00  0.00    -0.263 OA 
BRANCH  31  34
HETATM   34  C   UNL     1      -9.308   8.922  65.891  1.00  0.00    -0.236 A  
HETATM   35  N   UNL     1     -10.459   5.631  68.202  1.00  0.00    -0.205 NA 
HETATM   36  C   UNL     1     -10.290   9.089  66.868  1.00  0.00    -0.324 A  
HETATM   37  H1  UNL     1     -10.013   4.724  68.067  1.00  0.00     0.000 HD 
HETATM   38  H2  UNL     1     -11.465   5.513  68.078  1.00  0.00     0.000 HD 
HETATM   39  C   UNL     1      -8.819   7.649  65.591  1.00  0.00    -0.086 A  
HETATM   40  C   UNL     1      -9.195   6.564  66.369  1.00  0.00    -0.178 A  
HETATM   41  C   UNL     1     -10.667   7.988  67.639  1.00  0.00    -0.203 A  
HETATM   42  C   UNL     1     -10.053   6.742  67.455  1.00  0.00    -0.175 A  
ENDBRANCH  31  34
ENDBRANCH   5  31
ENDBRANCH   4   5
TORSDOF 12
ENDMDL
MODEL      241
REMARK 921   NORMALIZED FREE ENERGY PREDICTED BY IDOCK:   -4.12 KCAL/MOL
REMARK 922        TOTAL FREE ENERGY PREDICTED BY IDOCK:   -9.82 KCAL/MOL
REMARK 923 INTER-LIGAND FREE ENERGY PREDICTED BY IDOCK:   -7.94 KCAL/MOL
REMARK 924 INTRA-LIGAND FREE ENERGY PREDICTED BY IDOCK:   -1.88 KCAL/MOL
REMARK 927      BINDING AFFINITY PREDICTED BY RF-SCORE:    0.00 PKD
ROOT
HETATM    1  C   UNL     1     -11.380  14.779  69.305  1.00  0.00    -0.317 C  
HETATM    2  C   UNL     1     -11.953  13.692  68.410  1.00  0.00    -0.391 C  
HETATM    3  C   UNL     1     -12.231  14.149  66.976  1.00  0.00    -0.374 C  
HETATM    4  C   UNL     1     -11.445  12.247  68.422  1.00  0.00    -0.307 C  
ENDROOT
BRANCH   4   5
HETATM    5  N   UNL     1     -10.057  11.755  68.667  1.00  0.00    -0.212 N  
BRANCH   5   6
HETATM    6  C   UNL     1     -10.155  10.207  68.812  1.00  0.00    -0.187 C  
BRANCH   6   7
HETATM    7  C   UNL     1     -10.793   9.662  70.170  1.00  0.00    -0.280 C  
BRANCH   7   8
HETATM    8  C   UNL     1     -10.041   8.333  70.675  1.00  0.00    -0.191 C  
BRANCH   8   9
HETATM    9  N   UNL     1     -10.124   7.226  69.706  1.00  0.00    -0.190 N  
HETATM   10  C   UNL     1     -11.024   6.204  69.871  1.00  0.00    -0.389 C  
HETATM   11  H   UNL     1      -9.502   7.220  68.898  1.00  0.00     0.000 HD 
HETATM   12  O   UNL     1     -11.859   6.123  70.756  1.00  0.00    -0.229 OA 
BRANCH  10  13
HETATM   13  O   UNL     1     -10.866   5.288  68.878  1.00  0.00    -0.081 OA 
BRANCH  13  14
HETATM   14  C   UNL     1      -9.500   4.956  68.571  1.00  0.00    -0.143 C  
HETATM   15  C   UNL     1      -9.115   3.542  68.946  1.00  0.00    -0.205 C  
HETATM   16  O   UNL     1      -8.345   3.918  66.745  1.00  0.00    -0.099 OA 
HETATM   17  C   UNL     1      -8.030   3.212  67.950  1.00  0.00    -0.074 C  
HETATM   18  C   UNL     1      -9.284   4.957  67.061  1.00  0.00    -0.123 C  
ENDBRANCH  13  14
ENDBRANCH  10  13
ENDBRANCH   8   9
BRANCH   8  19
HETATM   19  C   UNL     1      -8.598   8.489  71.211  1.00  0.00    -0.219 C  
BRANCH  19  20
HETATM   20  C   UNL     1      -7.478   7.910  70.389  1.00  0.00    -0.077 A  
HETATM   21  C   UNL     1      -6.060   7.959  68.421  1.00  0.00    -0.044 A  
HETATM   22  C   UNL     1      -6.029   6.036  69.882  1.00  0.00    -0.025 A  
HETATM   23  C   UNL     1      -6.971   6.645  70.708  1.00  0.00    -0.067 A  
HETATM   24  C   UNL     1      -7.011   8.567  69.242  1.00  0.00    -0.054 A  
HETATM   25  C   UNL     1      -5.576   6.691  68.738  1.00  0.00    -0.017 A  
ENDBRANCH  19  20
ENDBRANCH   8  19
ENDBRANCH   7   8
BRANCH   7  26
HETATM   26  O   UNL     1     -12.266   9.605  70.120  1.00  0.00    -0.014 OA 
HETATM   27  O   UNL     1     -13.862   9.087  72.937  1.00  0.00    -0.359 OA 
HETATM   28  O   UNL     1     -13.159  10.953  71.775  1.00  0.00    -0.464 OA 
HETATM   29  O   UNL     1     -11.748   9.065  72.443  1.00  0.00    -0.290 OA 
HETATM   30  P   UNL     1     -13.108   9.332  71.607  1.00  0.00    -0.411 P  
ENDBRANCH   7  26
ENDBRANCH   6   7
ENDBRANCH   5   6
BRANCH   5  31
HETATM   31  S   UNL     1      -8.641  12.176  67.809  1.00  0.00    -0.174 S  
HETATM   32  O   UNL     1      -7.485  11.661  68.512  1.00  0.00    -0.099 OA 
HETATM   33  O   UNL     1      -8.700  13.596  67.526  1.00  0.00    -0.175 OA 
BRANCH  31  34
HETATM   34  C   UNL     1      -8.641  11.363  66.253  1.00  0.00    -0.156 A  
HETATM   35  N   UNL     1      -8.916   9.329  62.610  1.00  0.00    -0.382 NA 
HETATM   36  C   UNL     1      -7.731  10.344  65.976  1.00  0.00    -0.136 A  
HETATM   37  H1  UNL     1      -9.626   9.590  61.925  1.00  0.00     0.000 HD 
HETATM   38  H2  UNL     1      -9.030   8.338  62.825  1.00  0.00     0.000 HD 
HETATM   39  C   UNL     1      -9.715  11.607  65.393  1.00  0.00    -0.255 A  
HETATM   40  C   UNL     1      -9.793  10.938  64.181  1.00  0.00    -0.369 A  
HETATM   41  C   UNL     1      -7.825   9.671  64.756  1.00  0.00    -0.128 A  
HETATM   42  C   UNL     1      -8.800  10.029  63.815  1.00  0.00    -0.231 A  
ENDBRANCH  31  34
ENDBRANCH   5  31
ENDBRANCH   4   5
TORSDOF 12
ENDMDL
MODEL      242
REMARK 921   NORMALIZED FREE ENERGY PREDICTED BY IDOCK:   -4.12 KCAL/MOL
REMARK 922        TOTAL FREE ENERGY PREDICTED BY IDOCK:   -9.81 KCAL/MOL
REMARK 923 INTER-LIGAND FREE ENERGY PREDICTED BY IDOCK:  -11.05 KCAL/MOL
REMARK 924 INTRA-LIGAND FREE ENERGY PREDICTED BY IDOCK:    1.24 KCAL/MOL
REMARK 927      BINDING AFFINITY PREDICTED BY RF-SCORE:    0.00 PKD
ROOT
HETATM    1  C   UNL     1     -11.420   7.119  70.211  1.00  0.00    -0.287 C  
HETATM    2  C   UNL     1     -11.722   8.421  70.935  1.00  0.00    -0.269 C  
HETATM    3  C   UNL     1     -11.223   8.460  72.381  1.00  0.00    -0.438 C  
HETATM    4  C   UNL     1     -11.566   9.797  70.278  1.00  0.00    -0.220 C  
ENDROOT
BRANCH   4   5
HETATM    5  N   UNL     1     -10.567  10.228  69.257  1.00  0.00    -0.214 N  
BRANCH   5   6
HETATM    6  C   UNL     1     -10.846  11.734  68.972  1.00  0.00    -0.195 C  
BRANCH   6   7
HETATM    7  C   UNL     1     -10.082  12.371  67.723  1.00  0.00    -0.203 C  
BRANCH   7   8
HETATM    8  C   UNL     1      -9.941  13.965  67.878  1.00  0.00    -0.242 C  
BRANCH   8   9
HETATM    9  N   UNL     1     -10.046  14.415  69.278  1.00  0.00    -0.421 N  
HETATM   10  C   UNL     1     -10.767  15.533  69.612  1.00  0.00    -0.271 C  
HETATM   11  H   UNL     1      -9.574  13.886  70.011  1.00  0.00     0.000 HD 
HETATM   12  O   UNL     1     -11.422  16.218  68.844  1.00  0.00    -0.340 OA 
BRANCH  10  13
HETATM   13  O   UNL     1     -10.664  15.763  70.949  1.00  0.00    -0.224 OA 
BRANCH  13  14
HETATM   14  C   UNL     1     -11.747  15.241  71.740  1.00  0.00    -0.418 C  
HETATM   15  C   UNL     1     -12.266  16.207  72.780  1.00  0.00    -0.628 C  
HETATM   16  O   UNL     1     -14.141  15.318  71.652  1.00  0.00    -0.473 OA 
HETATM   17  C   UNL     1     -13.712  15.797  72.930  1.00  0.00    -0.551 C  
HETATM   18  C   UNL     1     -12.977  15.019  70.866  1.00  0.00    -0.405 C  
ENDBRANCH  13  14
ENDBRANCH  10  13
ENDBRANCH   8   9
BRANCH   8  19
HETATM   19  C   UNL     1      -8.749  14.650  67.167  1.00  0.00    -0.242 C  
BRANCH  19  20
HETATM   20  C   UNL     1      -8.693  16.154  67.184  1.00  0.00    -0.216 A  
HETATM   21  C   UNL     1      -7.913  18.225  68.176  1.00  0.00    -0.295 A  
HETATM   22  C   UNL     1      -9.617  18.275  66.465  1.00  0.00    -0.320 A  
HETATM   23  C   UNL     1      -9.561  16.886  66.367  1.00  0.00    -0.305 A  
HETATM   24  C   UNL     1      -7.862  16.834  68.086  1.00  0.00    -0.182 A  
HETATM   25  C   UNL     1      -8.796  18.944  67.371  1.00  0.00    -0.293 A  
ENDBRANCH  19  20
ENDBRANCH   8  19
ENDBRANCH   7   8
BRANCH   7  26
HETATM   26  O   UNL     1     -10.599  11.879  66.432  1.00  0.00    -0.233 OA 
HETATM   27  O   UNL     1     -13.121  13.490  65.094  1.00  0.00    -0.737 OA 
HETATM   28  O   UNL     1     -10.823  13.644  64.954  1.00  0.00    -0.332 OA 
HETATM   29  O   UNL     1     -12.138  13.679  67.020  1.00  0.00    -0.398 OA 
HETATM   30  P   UNL     1     -11.930  12.729  65.726  1.00  0.00    -0.403 P  
ENDBRANCH   7  26
ENDBRANCH   6   7
ENDBRANCH   5   6
BRANCH   5  31
HETATM   31  S   UNL     1      -8.884   9.933  69.265  1.00  0.00    -0.186 S  
HETATM   32  O   UNL     1      -8.536   9.183  70.453  1.00  0.00    -0.157 OA 
HETATM   33  O   UNL     1      -8.212  11.195  69.025  1.00  0.00    -0.137 OA 
BRANCH  31  34
HETATM   34  C   UNL     1      -8.471   8.890  67.915  1.00  0.00    -0.125 A  
HETATM   35  N   UNL     1      -7.231   6.552  64.677  1.00  0.00    -0.060 NA 
HETATM   36  C   UNL     1      -9.234   8.889  66.749  1.00  0.00    -0.201 A  
HETATM   37  H1  UNL     1      -6.393   5.974  64.748  1.00  0.00     0.000 HD 
HETATM   38  H2  UNL     1      -7.120   7.178  63.879  1.00  0.00     0.000 HD 
HETATM   39  C   UNL     1      -7.238   8.235  67.955  1.00  0.00    -0.095 A  
HETATM   40  C   UNL     1      -6.838   7.451  66.883  1.00  0.00    -0.070 A  
HETATM   41  C   UNL     1      -8.817   8.103  65.672  1.00  0.00    -0.160 A  
HETATM   42  C   UNL     1      -7.667   7.309  65.769  1.00  0.00    -0.099 A  
ENDBRANCH  31  34
ENDBRANCH   5  31
ENDBRANCH   4   5
TORSDOF 12
ENDMDL
MODEL      243
REMARK 921   NORMALIZED FREE ENERGY PREDICTED BY IDOCK:   -4.10 KCAL/MOL
REMARK 922        TOTAL FREE ENERGY PREDICTED BY IDOCK:   -9.77 KCAL/MOL
REMARK 923 INTER-LIGAND FREE ENERGY PREDICTED BY IDOCK:   -8.88 KCAL/MOL
REMARK 924 INTRA-LIGAND FREE ENERGY PREDICTED BY IDOCK:   -0.89 KCAL/MOL
REMARK 927      BINDING AFFINITY PREDICTED BY RF-SCORE:    0.00 PKD
ROOT
HETATM    1  C   UNL     1      -8.957   8.548  68.648  1.00  0.00    -0.139 C  
HETATM    2  C   UNL     1      -9.588   9.386  67.548  1.00  0.00    -0.174 C  
HETATM    3  C   UNL     1     -10.611   8.630  66.697  1.00  0.00    -0.131 C  
HETATM    4  C   UNL     1     -10.034  10.838  67.756  1.00  0.00    -0.171 C  
ENDROOT
BRANCH   4   5
HETATM    5  N   UNL     1     -10.587  11.469  68.990  1.00  0.00    -0.200 N  
BRANCH   5   6
HETATM    6  C   UNL     1     -10.692  12.996  68.698  1.00  0.00    -0.248 C  
BRANCH   6   7
HETATM    7  C   UNL     1     -10.358  13.455  67.205  1.00  0.00    -0.244 C  
BRANCH   7   8
HETATM    8  C   UNL     1      -9.182  14.552  67.183  1.00  0.00    -0.223 C  
BRANCH   8   9
HETATM    9  N   UNL     1      -9.593  15.817  66.548  1.00  0.00    -0.247 N  
HETATM   10  C   UNL     1     -10.461  16.676  67.173  1.00  0.00    -0.300 C  
HETATM   11  H   UNL     1      -9.226  16.058  65.628  1.00  0.00     0.000 HD 
HETATM   12  O   UNL     1     -10.925  16.535  68.292  1.00  0.00    -0.337 OA 
BRANCH  10  13
HETATM   13  O   UNL     1     -10.720  17.738  66.362  1.00  0.00    -0.247 OA 
BRANCH  13  14
HETATM   14  C   UNL     1     -10.935  18.986  67.046  1.00  0.00    -0.213 C  
HETATM   15  C   UNL     1     -10.148  19.123  68.330  1.00  0.00    -0.499 C  
HETATM   16  O   UNL     1      -9.857  21.125  67.112  1.00  0.00    -0.248 OA 
HETATM   17  C   UNL     1      -9.948  20.615  68.446  1.00  0.00     0.203 C  
HETATM   18  C   UNL     1     -10.394  20.143  66.214  1.00  0.00    -0.394 C  
ENDBRANCH  13  14
ENDBRANCH  10  13
ENDBRANCH   8   9
BRANCH   8  19
HETATM   19  C   UNL     1      -8.430  14.819  68.508  1.00  0.00    -0.159 C  
BRANCH  19  20
HETATM   20  C   UNL     1      -7.322  13.873  68.888  1.00  0.00    -0.088 A  
HETATM   21  C   UNL     1      -5.298  13.384  70.132  1.00  0.00    -0.105 A  
HETATM   22  C   UNL     1      -6.055  11.863  68.416  1.00  0.00    -0.050 A  
HETATM   23  C   UNL     1      -7.152  12.686  68.167  1.00  0.00    -0.102 A  
HETATM   24  C   UNL     1      -6.390  14.214  69.878  1.00  0.00    -0.141 A  
HETATM   25  C   UNL     1      -5.127  12.213  69.395  1.00  0.00    -0.065 A  
ENDBRANCH  19  20
ENDBRANCH   8  19
ENDBRANCH   7   8
BRANCH   7  26
HETATM   26  O   UNL     1     -11.570  13.773  66.427  1.00  0.00    -0.331 OA 
HETATM   27  O   UNL     1     -11.767  12.597  63.373  1.00  0.00    -0.497 OA 
HETATM   28  O   UNL     1     -12.409  11.847  65.460  1.00  0.00    -0.352 OA 
HETATM   29  O   UNL     1     -10.158  12.583  64.832  1.00  0.00    -0.275 OA 
HETATM   30  P   UNL     1     -11.674  13.152  64.816  1.00  0.00    -0.398 P  
ENDBRANCH   7  26
ENDBRANCH   6   7
ENDBRANCH   5   6
BRANCH   5  31
HETATM   31  S   UNL     1     -11.934  10.952  69.904  1.00  0.00    -0.375 S  
HETATM   32  O   UNL     1     -12.918  10.368  69.016  1.00  0.00     0.515 OA 
HETATM   33  O   UNL     1     -12.341  12.052  70.755  1.00  0.00    -0.375 OA 
BRANCH  31  34
HETATM   34  C   UNL     1     -11.444   9.652  70.976  1.00  0.00    -0.371 A  
HETATM   35  N   UNL     1     -10.454   6.673  73.740  1.00  0.00    -0.356 NA 
HETATM   36  C   UNL     1     -10.117   9.517  71.381  1.00  0.00    -0.117 A  
HETATM   37  H1  UNL     1     -11.171   6.040  74.096  1.00  0.00     0.000 HD 
HETATM   38  H2  UNL     1     -10.012   7.134  74.535  1.00  0.00     0.000 HD 
HETATM   39  C   UNL     1     -12.450   8.901  71.589  1.00  0.00    -0.403 A  
HETATM   40  C   UNL     1     -12.115   7.907  72.494  1.00  0.00    -0.298 A  
HETATM   41  C   UNL     1      -9.792   8.518  72.300  1.00  0.00    -0.383 A  
HETATM   42  C   UNL     1     -10.775   7.648  72.790  1.00  0.00    -0.345 A  
ENDBRANCH  31  34
ENDBRANCH   5  31
ENDBRANCH   4   5
TORSDOF 12
ENDMDL
MODEL      244
REMARK 921   NORMALIZED FREE ENERGY PREDICTED BY IDOCK:   -4.09 KCAL/MOL
REMARK 922        TOTAL FREE ENERGY PREDICTED BY IDOCK:   -9.77 KCAL/MOL
REMARK 923 INTER-LIGAND FREE ENERGY PREDICTED BY IDOCK:   -8.35 KCAL/MOL
REMARK 924 INTRA-LIGAND FREE ENERGY PREDICTED BY IDOCK:   -1.42 KCAL/MOL
REMARK 927      BINDING AFFINITY PREDICTED BY RF-SCORE:    0.00 PKD
ROOT
HETATM    1  C   UNL     1      -6.501  12.206  68.539  1.00  0.00    -0.059 C  
HETATM    2  C   UNL     1      -7.890  12.790  68.341  1.00  0.00    -0.132 C  
HETATM    3  C   UNL     1      -7.974  13.834  67.225  1.00  0.00    -0.135 C  
HETATM    4  C   UNL     1      -9.165  11.941  68.377  1.00  0.00    -0.173 C  
ENDROOT
BRANCH   4   5
HETATM    5  N   UNL     1      -9.350  10.529  67.932  1.00  0.00    -0.142 N  
BRANCH   5   6
HETATM    6  C   UNL     1     -10.345   9.874  68.936  1.00  0.00    -0.205 C  
BRANCH   6   7
HETATM    7  C   UNL     1      -9.761   8.698  69.845  1.00  0.00    -0.173 C  
BRANCH   7   8
HETATM    8  C   UNL     1      -8.404   8.101  69.222  1.00  0.00    -0.130 C  
BRANCH   8   9
HETATM    9  N   UNL     1      -7.448   7.657  70.253  1.00  0.00    -0.082 N  
HETATM   10  C   UNL     1      -6.877   8.550  71.124  1.00  0.00    -0.064 C  
HETATM   11  H   UNL     1      -7.208   6.668  70.321  1.00  0.00     0.000 HD 
HETATM   12  O   UNL     1      -7.122   9.743  71.187  1.00  0.00    -0.332 OA 
BRANCH  10  13
HETATM   13  O   UNL     1      -5.999   7.902  71.936  1.00  0.00    -0.035 OA 
BRANCH  13  14
HETATM   14  C   UNL     1      -6.593   7.238  73.066  1.00  0.00    -0.064 C  
HETATM   15  C   UNL     1      -7.520   8.118  73.874  1.00  0.00    -0.218 C  
HETATM   16  O   UNL     1      -8.642   6.074  73.501  1.00  0.00    -0.120 OA 
HETATM   17  C   UNL     1      -8.501   7.130  74.457  1.00  0.00    -0.192 C  
HETATM   18  C   UNL     1      -7.532   6.133  72.593  1.00  0.00    -0.094 C  
ENDBRANCH  13  14
ENDBRANCH  10  13
ENDBRANCH   8   9
BRANCH   8  19
HETATM   19  C   UNL     1      -8.537   7.042  68.102  1.00  0.00    -0.128 C  
BRANCH  19  20
HETATM   20  C   UNL     1      -8.342   5.597  68.476  1.00  0.00    -0.106 A  
HETATM   21  C   UNL     1      -7.017   3.566  68.433  1.00  0.00    -0.050 A  
HETATM   22  C   UNL     1      -9.292   3.504  69.242  1.00  0.00    -0.242 A  
HETATM   23  C   UNL     1      -9.412   4.873  69.013  1.00  0.00    -0.205 A  
HETATM   24  C   UNL     1      -7.139   4.935  68.194  1.00  0.00    -0.062 A  
HETATM   25  C   UNL     1      -8.096   2.850  68.949  1.00  0.00    -0.069 A  
ENDBRANCH  19  20
ENDBRANCH   8  19
ENDBRANCH   7   8
BRANCH   7  26
HETATM   26  O   UNL     1     -10.793   7.718  70.234  1.00  0.00    -0.243 OA 
HETATM   27  O   UNL     1     -11.998   7.908  73.277  1.00  0.00    -0.059 OA 
HETATM   28  O   UNL     1     -12.573   8.808  71.231  1.00  0.00    -0.306 OA 
HETATM   29  O   UNL     1     -10.370   8.956  72.294  1.00  0.00    -0.302 OA 
HETATM   30  P   UNL     1     -11.429   7.819  71.840  1.00  0.00    -0.313 P  
ENDBRANCH   7  26
ENDBRANCH   6   7
ENDBRANCH   5   6
BRANCH   5  31
HETATM   31  S   UNL     1      -9.666   9.974  66.347  1.00  0.00    -0.224 S  
HETATM   32  O   UNL     1     -10.620   8.886  66.403  1.00  0.00    -0.139 OA 
HETATM   33  O   UNL     1      -8.391   9.741  65.697  1.00  0.00    -0.127 OA 
BRANCH  31  34
HETATM   34  C   UNL     1     -10.460  11.245  65.434  1.00  0.00    -0.268 A  
HETATM   35  N   UNL     1     -12.612  14.142  63.321  1.00  0.00    -0.991 NA 
HETATM   36  C   UNL     1     -10.217  11.409  64.071  1.00  0.00    -0.398 A  
HETATM   37  H1  UNL     1     -13.290  14.734  63.801  1.00  0.00     0.000 HD 
HETATM   38  H2  UNL     1     -13.091  13.664  62.557  1.00  0.00     0.000 HD 
HETATM   39  C   UNL     1     -11.504  11.935  66.055  1.00  0.00    -0.344 A  
HETATM   40  C   UNL     1     -12.205  12.903  65.353  1.00  0.00    -0.528 A  
HETATM   41  C   UNL     1     -10.936  12.381  63.372  1.00  0.00    -0.442 A  
HETATM   42  C   UNL     1     -11.866  13.195  64.031  1.00  0.00    -0.453 A  
ENDBRANCH  31  34
ENDBRANCH   5  31
ENDBRANCH   4   5
TORSDOF 12
ENDMDL
MODEL      245
REMARK 921   NORMALIZED FREE ENERGY PREDICTED BY IDOCK:   -4.08 KCAL/MOL
REMARK 922        TOTAL FREE ENERGY PREDICTED BY IDOCK:   -9.76 KCAL/MOL
REMARK 923 INTER-LIGAND FREE ENERGY PREDICTED BY IDOCK:   -7.21 KCAL/MOL
REMARK 924 INTRA-LIGAND FREE ENERGY PREDICTED BY IDOCK:   -2.54 KCAL/MOL
REMARK 927      BINDING AFFINITY PREDICTED BY RF-SCORE:    0.00 PKD
ROOT
HETATM    1  C   UNL     1     -13.212   7.078  71.293  1.00  0.00    -0.304 C  
HETATM    2  C   UNL     1     -12.523   8.417  71.085  1.00  0.00    -0.189 C  
HETATM    3  C   UNL     1     -12.799   9.438  72.191  1.00  0.00    -0.480 C  
HETATM    4  C   UNL     1     -11.079   8.545  70.586  1.00  0.00    -0.252 C  
ENDROOT
BRANCH   4   5
HETATM    5  N   UNL     1      -9.926   7.634  70.845  1.00  0.00    -0.181 N  
BRANCH   5   6
HETATM    6  C   UNL     1      -8.898   7.884  69.702  1.00  0.00    -0.138 C  
BRANCH   6   7
HETATM    7  C   UNL     1      -9.075   6.997  68.386  1.00  0.00    -0.127 C  
BRANCH   7   8
HETATM    8  C   UNL     1      -9.362   7.918  67.098  1.00  0.00    -0.153 C  
BRANCH   8   9
HETATM    9  N   UNL     1      -9.222   7.184  65.828  1.00  0.00    -0.383 N  
HETATM   10  C   UNL     1      -7.996   7.021  65.233  1.00  0.00    -0.127 C  
HETATM   11  H   UNL     1     -10.051   6.790  65.383  1.00  0.00     0.000 HD 
HETATM   12  O   UNL     1      -6.927   7.391  65.688  1.00  0.00    -0.058 OA 
BRANCH  10  13
HETATM   13  O   UNL     1      -8.143   6.359  64.053  1.00  0.00    -0.111 OA 
BRANCH  13  14
HETATM   14  C   UNL     1      -8.164   4.925  64.161  1.00  0.00    -0.122 C  
HETATM   15  C   UNL     1      -9.530   4.315  63.943  1.00  0.00    -0.125 C  
HETATM   16  O   UNL     1      -7.994   3.078  62.644  1.00  0.00    -0.068 OA 
HETATM   17  C   UNL     1      -9.206   2.946  63.395  1.00  0.00    -0.095 C  
HETATM   18  C   UNL     1      -7.350   4.300  63.033  1.00  0.00    -0.049 C  
ENDBRANCH  13  14
ENDBRANCH  10  13
ENDBRANCH   8   9
BRANCH   8  19
HETATM   19  C   UNL     1     -10.653   8.770  67.103  1.00  0.00    -0.303 C  
BRANCH  19  20
HETATM   20  C   UNL     1     -10.510  10.260  66.941  1.00  0.00    -0.291 A  
HETATM   21  C   UNL     1     -10.712  12.509  67.829  1.00  0.00    -0.242 A  
HETATM   22  C   UNL     1     -10.265  12.176  65.479  1.00  0.00    -0.294 A  
HETATM   23  C   UNL     1     -10.268  10.795  65.671  1.00  0.00    -0.320 A  
HETATM   24  C   UNL     1     -10.725  11.127  68.022  1.00  0.00    -0.254 A  
HETATM   25  C   UNL     1     -10.490  13.031  66.555  1.00  0.00    -0.284 A  
ENDBRANCH  19  20
ENDBRANCH   8  19
ENDBRANCH   7   8
BRANCH   7  26
HETATM   26  O   UNL     1      -9.984   5.854  68.592  1.00  0.00    -0.132 OA 
HETATM   27  O   UNL     1      -8.795   2.850  68.034  1.00  0.00    -0.100 OA 
HETATM   28  O   UNL     1      -8.933   4.239  69.872  1.00  0.00    -0.083 OA 
HETATM   29  O   UNL     1      -7.957   4.826  67.702  1.00  0.00    -0.093 OA 
HETATM   30  P   UNL     1      -9.356   4.269  68.298  1.00  0.00    -0.147 P  
ENDBRANCH   7  26
ENDBRANCH   6   7
ENDBRANCH   5   6
BRANCH   5  31
HETATM   31  S   UNL     1      -9.110   7.390  72.326  1.00  0.00    -0.134 S  
HETATM   32  O   UNL     1      -9.567   8.369  73.291  1.00  0.00    -0.187 OA 
HETATM   33  O   UNL     1      -7.691   7.314  72.042  1.00  0.00    -0.088 OA 
BRANCH  31  34
HETATM   34  C   UNL     1      -9.565   5.831  72.991  1.00  0.00    -0.150 A  
HETATM   35  N   UNL     1     -10.510   1.990  74.346  1.00  0.00    -0.131 NA 
HETATM   36  C   UNL     1     -10.905   5.464  73.107  1.00  0.00    -0.333 A  
HETATM   37  H1  UNL     1      -9.771   1.338  74.609  1.00  0.00     0.000 HD 
HETATM   38  H2  UNL     1     -11.083   1.548  73.627  1.00  0.00     0.000 HD 
HETATM   39  C   UNL     1      -8.554   4.888  73.187  1.00  0.00    -0.106 A  
HETATM   40  C   UNL     1      -8.873   3.620  73.648  1.00  0.00    -0.088 A  
HETATM   41  C   UNL     1     -11.215   4.182  73.564  1.00  0.00    -0.341 A  
HETATM   42  C   UNL     1     -10.199   3.287  73.925  1.00  0.00    -0.146 A  
ENDBRANCH  31  34
ENDBRANCH   5  31
ENDBRANCH   4   5
TORSDOF 12
ENDMDL
MODEL      246
REMARK 921   NORMALIZED FREE ENERGY PREDICTED BY IDOCK:   -4.08 KCAL/MOL
REMARK 922        TOTAL FREE ENERGY PREDICTED BY IDOCK:   -9.75 KCAL/MOL
REMARK 923 INTER-LIGAND FREE ENERGY PREDICTED BY IDOCK:   -7.78 KCAL/MOL
REMARK 924 INTRA-LIGAND FREE ENERGY PREDICTED BY IDOCK:   -1.98 KCAL/MOL
REMARK 927      BINDING AFFINITY PREDICTED BY RF-SCORE:    0.00 PKD
ROOT
HETATM    1  C   UNL     1     -13.150   7.391  71.399  1.00  0.00    -0.401 C  
HETATM    2  C   UNL     1     -12.529   8.751  71.128  1.00  0.00    -0.230 C  
HETATM    3  C   UNL     1     -12.584   9.709  72.320  1.00  0.00    -0.314 C  
HETATM    4  C   UNL     1     -11.218   8.932  70.355  1.00  0.00    -0.230 C  
ENDROOT
BRANCH   4   5
HETATM    5  N   UNL     1     -10.028   8.032  70.327  1.00  0.00    -0.188 N  
BRANCH   5   6
HETATM    6  C   UNL     1      -9.056   8.615  69.259  1.00  0.00    -0.149 C  
BRANCH   6   7
HETATM    7  C   UNL     1      -9.420   8.316  67.733  1.00  0.00    -0.149 C  
BRANCH   7   8
HETATM    8  C   UNL     1      -9.315   9.648  66.838  1.00  0.00    -0.146 C  
BRANCH   8   9
HETATM    9  N   UNL     1      -8.226   9.586  65.846  1.00  0.00    -0.114 N  
HETATM   10  C   UNL     1      -6.947   9.961  66.172  1.00  0.00    -0.102 C  
HETATM   11  H   UNL     1      -8.427   9.260  64.901  1.00  0.00     0.000 HD 
HETATM   12  O   UNL     1      -6.565  10.312  67.275  1.00  0.00    -0.067 OA 
BRANCH  10  13
HETATM   13  O   UNL     1      -6.147   9.863  65.076  1.00  0.00    -0.084 OA 
BRANCH  13  14
HETATM   14  C   UNL     1      -5.521   8.580  64.895  1.00  0.00    -0.043 C  
HETATM   15  C   UNL     1      -5.594   7.686  66.112  1.00  0.00    -0.032 C  
HETATM   16  O   UNL     1      -6.238   6.386  64.248  1.00  0.00    -0.029 OA 
HETATM   17  C   UNL     1      -5.577   6.300  65.515  1.00  0.00    -0.017 C  
HETATM   18  C   UNL     1      -6.281   7.766  63.853  1.00  0.00    -0.057 C  
ENDBRANCH  13  14
ENDBRANCH  10  13
ENDBRANCH   8   9
BRANCH   8  19
HETATM   19  C   UNL     1     -10.617  10.179  66.194  1.00  0.00    -0.099 C  
BRANCH  19  20
HETATM   20  C   UNL     1     -10.605  11.578  65.639  1.00  0.00    -0.326 A  
HETATM   21  C   UNL     1     -10.079  13.935  65.869  1.00  0.00    -0.331 A  
HETATM   22  C   UNL     1     -11.434  13.178  64.019  1.00  0.00    -0.455 A  
HETATM   23  C   UNL     1     -11.325  11.865  64.474  1.00  0.00    -0.382 A  
HETATM   24  C   UNL     1      -9.975  12.623  66.331  1.00  0.00    -0.262 A  
HETATM   25  C   UNL     1     -10.815  14.212  64.718  1.00  0.00    -0.426 A  
ENDBRANCH  19  20
ENDBRANCH   8  19
ENDBRANCH   7   8
BRANCH   7  26
HETATM   26  O   UNL     1     -10.656   7.523  67.591  1.00  0.00    -0.239 OA 
HETATM   27  O   UNL     1     -10.409   4.561  66.208  1.00  0.00    -0.261 OA 
HETATM   28  O   UNL     1     -10.300   5.372  68.366  1.00  0.00    -0.179 OA 
HETATM   29  O   UNL     1      -8.968   6.164  66.468  1.00  0.00    -0.130 OA 
HETATM   30  P   UNL     1     -10.525   5.960  66.861  1.00  0.00    -0.299 P  
ENDBRANCH   7  26
ENDBRANCH   6   7
ENDBRANCH   5   6
BRANCH   5  31
HETATM   31  S   UNL     1      -9.144   7.439  71.664  1.00  0.00    -0.130 S  
HETATM   32  O   UNL     1      -9.322   8.334  72.789  1.00  0.00    -0.249 OA 
HETATM   33  O   UNL     1      -7.796   7.156  71.214  1.00  0.00    -0.096 OA 
BRANCH  31  34
HETATM   34  C   UNL     1      -9.826   5.905  72.176  1.00  0.00    -0.162 A  
HETATM   35  N   UNL     1     -11.311   2.287  73.657  1.00  0.00    -0.220 NA 
HETATM   36  C   UNL     1      -9.487   4.717  71.528  1.00  0.00    -0.209 A  
HETATM   37  H1  UNL     1     -11.930   2.276  74.468  1.00  0.00     0.000 HD 
HETATM   38  H2  UNL     1     -10.508   1.692  73.861  1.00  0.00     0.000 HD 
HETATM   39  C   UNL     1     -10.530   5.877  73.381  1.00  0.00    -0.263 A  
HETATM   40  C   UNL     1     -11.031   4.676  73.860  1.00  0.00    -0.333 A  
HETATM   41  C   UNL     1      -9.990   3.513  72.025  1.00  0.00    -0.227 A  
HETATM   42  C   UNL     1     -10.840   3.497  73.138  1.00  0.00    -0.149 A  
ENDBRANCH  31  34
ENDBRANCH   5  31
ENDBRANCH   4   5
TORSDOF 12
ENDMDL
MODEL      247
REMARK 921   NORMALIZED FREE ENERGY PREDICTED BY IDOCK:   -4.08 KCAL/MOL
REMARK 922        TOTAL FREE ENERGY PREDICTED BY IDOCK:   -9.75 KCAL/MOL
REMARK 923 INTER-LIGAND FREE ENERGY PREDICTED BY IDOCK:   -7.45 KCAL/MOL
REMARK 924 INTRA-LIGAND FREE ENERGY PREDICTED BY IDOCK:   -2.30 KCAL/MOL
REMARK 927      BINDING AFFINITY PREDICTED BY RF-SCORE:    0.00 PKD
ROOT
HETATM    1  C   UNL     1      -6.650  11.012  67.817  1.00  0.00    -0.063 C  
HETATM    2  C   UNL     1      -7.780  11.773  68.491  1.00  0.00    -0.137 C  
HETATM    3  C   UNL     1      -7.460  13.242  68.776  1.00  0.00    -0.053 C  
HETATM    4  C   UNL     1      -9.250  11.613  68.087  1.00  0.00    -0.184 C  
ENDROOT
BRANCH   4   5
HETATM    5  N   UNL     1      -9.814  11.344  66.732  1.00  0.00    -0.202 N  
BRANCH   5   6
HETATM    6  C   UNL     1     -10.498   9.946  66.806  1.00  0.00    -0.191 C  
BRANCH   6   7
HETATM    7  C   UNL     1      -9.672   8.722  66.199  1.00  0.00    -0.250 C  
BRANCH   7   8
HETATM    8  C   UNL     1     -10.211   7.318  66.767  1.00  0.00    -0.235 C  
BRANCH   8   9
HETATM    9  N   UNL     1      -9.388   6.173  66.337  1.00  0.00    -0.155 N  
HETATM   10  C   UNL     1      -9.961   4.978  65.983  1.00  0.00    -0.199 C  
HETATM   11  H   UNL     1      -8.373   6.271  66.302  1.00  0.00     0.000 HD 
HETATM   12  O   UNL     1     -11.158   4.749  65.926  1.00  0.00    -0.148 OA 
BRANCH  10  13
HETATM   13  O   UNL     1      -8.990   4.075  65.680  1.00  0.00    -0.122 OA 
BRANCH  13  14
HETATM   14  C   UNL     1      -8.545   3.268  66.785  1.00  0.00    -0.116 C  
HETATM   15  C   UNL     1      -7.170   3.635  67.295  1.00  0.00    -0.063 C  
HETATM   16  O   UNL     1      -8.585   3.442  69.174  1.00  0.00    -0.064 OA 
HETATM   17  C   UNL     1      -7.233   3.243  68.751  1.00  0.00    -0.049 C  
HETATM   18  C   UNL     1      -9.418   3.523  68.008  1.00  0.00    -0.160 C  
ENDBRANCH  13  14
ENDBRANCH  10  13
ENDBRANCH   8   9
BRANCH   8  19
HETATM   19  C   UNL     1     -10.527   7.233  68.278  1.00  0.00    -0.239 C  
BRANCH  19  20
HETATM   20  C   UNL     1      -9.448   7.642  69.244  1.00  0.00    -0.158 A  
HETATM   21  C   UNL     1      -8.615   9.125  70.975  1.00  0.00    -0.236 A  
HETATM   22  C   UNL     1      -7.131   7.525  69.941  1.00  0.00    -0.064 A  
HETATM   23  C   UNL     1      -8.177   7.065  69.144  1.00  0.00    -0.122 A  
HETATM   24  C   UNL     1      -9.663   8.672  70.172  1.00  0.00    -0.182 A  
HETATM   25  C   UNL     1      -7.348   8.556  70.852  1.00  0.00    -0.068 A  
ENDBRANCH  19  20
ENDBRANCH   8  19
ENDBRANCH   7   8
BRANCH   7  26
HETATM   26  O   UNL     1      -8.214   8.939  66.258  1.00  0.00    -0.107 OA 
HETATM   27  O   UNL     1      -6.516   8.614  63.472  1.00  0.00    -0.084 OA 
HETATM   28  O   UNL     1      -7.564  10.363  64.554  1.00  0.00    -0.126 OA 
HETATM   29  O   UNL     1      -8.596   8.223  63.956  1.00  0.00    -0.015 OA 
HETATM   30  P   UNL     1      -7.318   8.768  64.787  1.00  0.00    -0.100 P  
ENDBRANCH   7  26
ENDBRANCH   6   7
ENDBRANCH   5   6
BRANCH   5  31
HETATM   31  S   UNL     1     -10.746  12.404  65.768  1.00  0.00    -0.276 S  
HETATM   32  O   UNL     1     -12.150  12.094  65.938  1.00  0.00    -0.594 OA 
HETATM   33  O   UNL     1     -10.193  12.386  64.428  1.00  0.00    -0.315 OA 
BRANCH  31  34
HETATM   34  C   UNL     1     -10.555  14.046  66.358  1.00  0.00    -0.280 A  
HETATM   35  N   UNL     1     -10.394  17.990  67.738  1.00  0.00    -0.376 NA 
HETATM   36  C   UNL     1      -9.815  14.985  65.641  1.00  0.00    -0.380 A  
HETATM   37  H1  UNL     1     -10.872  18.256  68.599  1.00  0.00     0.000 HD 
HETATM   38  H2  UNL     1     -10.738  18.587  66.986  1.00  0.00     0.000 HD 
HETATM   39  C   UNL     1     -11.346  14.443  67.439  1.00  0.00    -0.353 A  
HETATM   40  C   UNL     1     -11.278  15.749  67.899  1.00  0.00    -0.313 A  
HETATM   41  C   UNL     1      -9.761  16.299  66.109  1.00  0.00    -0.357 A  
HETATM   42  C   UNL     1     -10.418  16.664  67.292  1.00  0.00    -0.313 A  
ENDBRANCH  31  34
ENDBRANCH   5  31
ENDBRANCH   4   5
TORSDOF 12
ENDMDL
MODEL      248
REMARK 921   NORMALIZED FREE ENERGY PREDICTED BY IDOCK:   -4.06 KCAL/MOL
REMARK 922        TOTAL FREE ENERGY PREDICTED BY IDOCK:   -9.71 KCAL/MOL
REMARK 923 INTER-LIGAND FREE ENERGY PREDICTED BY IDOCK:   -9.19 KCAL/MOL
REMARK 924 INTRA-LIGAND FREE ENERGY PREDICTED BY IDOCK:   -0.52 KCAL/MOL
REMARK 927      BINDING AFFINITY PREDICTED BY RF-SCORE:    0.00 PKD
ROOT
HETATM    1  C   UNL     1     -13.489   8.763  71.169  1.00  0.00    -0.081 C  
HETATM    2  C   UNL     1     -12.978  10.147  70.802  1.00  0.00    -0.380 C  
HETATM    3  C   UNL     1     -12.735  11.061  72.006  1.00  0.00    -0.177 C  
HETATM    4  C   UNL     1     -11.914  10.386  69.725  1.00  0.00    -0.171 C  
ENDROOT
BRANCH   4   5
HETATM    5  N   UNL     1     -10.760   9.515  69.354  1.00  0.00    -0.226 N  
BRANCH   5   6
HETATM    6  C   UNL     1     -10.150  10.119  68.054  1.00  0.00    -0.157 C  
BRANCH   6   7
HETATM    7  C   UNL     1      -9.450  11.547  68.198  1.00  0.00    -0.184 C  
BRANCH   7   8
HETATM    8  C   UNL     1     -10.543  12.718  68.344  1.00  0.00    -0.248 C  
BRANCH   8   9
HETATM    9  N   UNL     1      -9.975  14.060  68.126  1.00  0.00    -0.235 N  
HETATM   10  C   UNL     1     -10.225  15.088  69.001  1.00  0.00    -0.242 C  
HETATM   11  H   UNL     1      -9.386  14.228  67.311  1.00  0.00     0.000 HD 
HETATM   12  O   UNL     1     -10.860  15.005  70.038  1.00  0.00    -0.251 OA 
BRANCH  10  13
HETATM   13  O   UNL     1      -9.634  16.228  68.550  1.00  0.00    -0.209 OA 
BRANCH  13  14
HETATM   14  C   UNL     1     -10.546  17.251  68.111  1.00  0.00    -0.386 C  
HETATM   15  C   UNL     1     -10.129  18.650  68.502  1.00  0.00    -0.426 C  
HETATM   16  O   UNL     1     -10.722  18.708  66.217  1.00  0.00    -0.370 OA 
HETATM   17  C   UNL     1     -10.730  19.500  67.409  1.00  0.00    -0.467 C  
HETATM   18  C   UNL     1     -10.553  17.332  66.589  1.00  0.00    -0.179 C  
ENDBRANCH  13  14
ENDBRANCH  10  13
ENDBRANCH   8   9
BRANCH   8  19
HETATM   19  C   UNL     1     -11.875  12.551  67.576  1.00  0.00    -0.389 C  
BRANCH  19  20
HETATM   20  C   UNL     1     -11.868  12.820  66.095  1.00  0.00    -0.484 A  
HETATM   21  C   UNL     1     -12.396  14.247  64.206  1.00  0.00    -0.407 A  
HETATM   22  C   UNL     1     -11.660  11.977  63.833  1.00  0.00    -0.536 A  
HETATM   23  C   UNL     1     -11.544  11.787  65.209  1.00  0.00    -0.193 A  
HETATM   24  C   UNL     1     -12.288  14.056  65.584  1.00  0.00    -0.502 A  
HETATM   25  C   UNL     1     -12.089  13.205  63.332  1.00  0.00    -0.558 A  
ENDBRANCH  19  20
ENDBRANCH   8  19
ENDBRANCH   7   8
BRANCH   7  26
HETATM   26  O   UNL     1      -8.388  11.760  67.198  1.00  0.00    -0.154 OA 
HETATM   27  O   UNL     1      -5.358  12.350  68.302  1.00  0.00    -0.052 OA 
HETATM   28  O   UNL     1      -6.547  10.459  67.720  1.00  0.00    -0.064 OA 
HETATM   29  O   UNL     1      -7.264  12.166  69.326  1.00  0.00    -0.033 OA 
HETATM   30  P   UNL     1      -6.789  12.071  67.781  1.00  0.00    -0.128 P  
ENDBRANCH   7  26
ENDBRANCH   6   7
ENDBRANCH   5   6
BRANCH   5  31
HETATM   31  S   UNL     1      -9.516   8.950  70.380  1.00  0.00    -0.212 S  
HETATM   32  O   UNL     1     -10.089   8.542  71.646  1.00  0.00    -0.218 OA 
HETATM   33  O   UNL     1      -8.462   9.945  70.388  1.00  0.00    -0.145 OA 
BRANCH  31  34
HETATM   34  C   UNL     1      -8.815   7.494  69.695  1.00  0.00    -0.141 A  
HETATM   35  N   UNL     1      -7.017   3.975  68.325  1.00  0.00    -0.047 NA 
HETATM   36  C   UNL     1      -7.917   7.562  68.631  1.00  0.00    -0.123 A  
HETATM   37  H1  UNL     1      -7.249   3.078  68.750  1.00  0.00     0.000 HD 
HETATM   38  H2  UNL     1      -6.007   4.108  68.391  1.00  0.00     0.000 HD 
HETATM   39  C   UNL     1      -9.005   6.295  70.385  1.00  0.00    -0.154 A  
HETATM   40  C   UNL     1      -8.416   5.130  69.919  1.00  0.00    -0.097 A  
HETATM   41  C   UNL     1      -7.323   6.383  68.175  1.00  0.00    -0.089 A  
HETATM   42  C   UNL     1      -7.642   5.150  68.758  1.00  0.00    -0.078 A  
ENDBRANCH  31  34
ENDBRANCH   5  31
ENDBRANCH   4   5
TORSDOF 12
ENDMDL
MODEL      249
REMARK 921   NORMALIZED FREE ENERGY PREDICTED BY IDOCK:   -4.04 KCAL/MOL
REMARK 922        TOTAL FREE ENERGY PREDICTED BY IDOCK:   -9.67 KCAL/MOL
REMARK 923 INTER-LIGAND FREE ENERGY PREDICTED BY IDOCK:   -9.91 KCAL/MOL
REMARK 924 INTRA-LIGAND FREE ENERGY PREDICTED BY IDOCK:    0.24 KCAL/MOL
REMARK 927      BINDING AFFINITY PREDICTED BY RF-SCORE:    0.00 PKD
ROOT
HETATM    1  C   UNL     1      -8.337   9.043  65.916  1.00  0.00    -0.129 C  
HETATM    2  C   UNL     1      -7.527  10.008  66.766  1.00  0.00    -0.096 C  
HETATM    3  C   UNL     1      -7.009  11.228  66.001  1.00  0.00     0.143 C  
HETATM    4  C   UNL     1      -7.926  10.401  68.193  1.00  0.00    -0.110 C  
ENDROOT
BRANCH   4   5
HETATM    5  N   UNL     1      -9.297  10.552  68.763  1.00  0.00    -0.172 N  
BRANCH   5   6
HETATM    6  C   UNL     1      -9.709  12.037  68.536  1.00  0.00    -0.161 C  
BRANCH   6   7
HETATM    7  C   UNL     1      -9.710  12.547  67.023  1.00  0.00    -0.213 C  
BRANCH   7   8
HETATM    8  C   UNL     1      -8.908  13.933  66.875  1.00  0.00    -0.193 C  
BRANCH   8   9
HETATM    9  N   UNL     1      -9.743  15.112  67.169  1.00  0.00    -0.225 N  
HETATM   10  C   UNL     1     -10.135  15.970  66.174  1.00  0.00    -0.327 C  
HETATM   11  H   UNL     1     -10.034  15.292  68.130  1.00  0.00     0.000 HD 
HETATM   12  O   UNL     1      -9.905  15.837  64.983  1.00  0.00    -0.336 OA 
BRANCH  10  13
HETATM   13  O   UNL     1     -10.848  16.998  66.708  1.00  0.00    -0.157 OA 
BRANCH  13  14
HETATM   14  C   UNL     1     -10.067  18.143  67.095  1.00  0.00    -0.351 C  
HETATM   15  C   UNL     1     -10.506  19.433  66.441  1.00  0.00    -0.581 C  
HETATM   16  O   UNL     1     -10.238  19.871  68.746  1.00  0.00    -0.451 OA 
HETATM   17  C   UNL     1     -10.111  20.478  67.455  1.00  0.00    -0.296 C  
HETATM   18  C   UNL     1     -10.275  18.447  68.575  1.00  0.00    -0.364 C  
ENDBRANCH  13  14
ENDBRANCH  10  13
ENDBRANCH   8   9
BRANCH   8  19
HETATM   19  C   UNL     1      -7.534  14.042  67.579  1.00  0.00    -0.186 C  
BRANCH  19  20
HETATM   20  C   UNL     1      -7.015  15.419  67.894  1.00  0.00    -0.161 A  
HETATM   21  C   UNL     1      -6.614  17.213  69.476  1.00  0.00    -0.181 A  
HETATM   22  C   UNL     1      -6.308  17.600  67.112  1.00  0.00    -0.181 A  
HETATM   23  C   UNL     1      -6.664  16.279  66.847  1.00  0.00    -0.165 A  
HETATM   24  C   UNL     1      -6.980  15.893  69.212  1.00  0.00    -0.198 A  
HETATM   25  C   UNL     1      -6.286  18.068  68.424  1.00  0.00    -0.196 A  
ENDBRANCH  19  20
ENDBRANCH   8  19
ENDBRANCH   7   8
BRANCH   7  26
HETATM   26  O   UNL     1     -11.051  12.495  66.409  1.00  0.00    -0.267 OA 
HETATM   27  O   UNL     1     -11.222  12.457  63.135  1.00  0.00    -0.387 OA 
HETATM   28  O   UNL     1     -11.106  10.848  64.786  1.00  0.00    -0.095 OA 
HETATM   29  O   UNL     1      -9.551  12.719  64.497  1.00  0.00     0.059 OA 
HETATM   30  P   UNL     1     -11.141  12.475  64.682  1.00  0.00    -0.350 P  
ENDBRANCH   7  26
ENDBRANCH   6   7
ENDBRANCH   5   6
BRANCH   5  31
HETATM   31  S   UNL     1     -10.640   9.525  68.518  1.00  0.00    -0.188 S  
HETATM   32  O   UNL     1     -10.173   8.177  68.272  1.00  0.00    -0.196 OA 
HETATM   33  O   UNL     1     -11.500  10.148  67.532  1.00  0.00    -0.249 OA 
BRANCH  31  34
HETATM   34  C   UNL     1     -11.576   9.431  70.000  1.00  0.00    -0.009 A  
HETATM   35  N   UNL     1     -13.947   8.971  73.415  1.00  0.00    -1.081 NA 
HETATM   36  C   UNL     1     -12.427  10.469  70.379  1.00  0.00    -0.392 A  
HETATM   37  H1  UNL     1     -13.887   8.120  73.974  1.00  0.00     0.000 HD 
HETATM   38  H2  UNL     1     -14.918   9.097  73.127  1.00  0.00     0.000 HD 
HETATM   39  C   UNL     1     -11.618   8.203  70.665  1.00  0.00    -0.199 A  
HETATM   40  C   UNL     1     -12.396   8.061  71.803  1.00  0.00    -0.352 A  
HETATM   41  C   UNL     1     -13.213  10.311  71.523  1.00  0.00    -0.484 A  
HETATM   42  C   UNL     1     -13.131   9.143  72.291  1.00  0.00    -0.438 A  
ENDBRANCH  31  34
ENDBRANCH   5  31
ENDBRANCH   4   5
TORSDOF 12
ENDMDL
MODEL      250
REMARK 921   NORMALIZED FREE ENERGY PREDICTED BY IDOCK:   -4.03 KCAL/MOL
REMARK 922        TOTAL FREE ENERGY PREDICTED BY IDOCK:   -9.66 KCAL/MOL
REMARK 923 INTER-LIGAND FREE ENERGY PREDICTED BY IDOCK:   -9.89 KCAL/MOL
REMARK 924 INTRA-LIGAND FREE ENERGY PREDICTED BY IDOCK:    0.23 KCAL/MOL
REMARK 927      BINDING AFFINITY PREDICTED BY RF-SCORE:    0.00 PKD
ROOT
HETATM    1  C   UNL     1     -12.505  13.347  71.695  1.00  0.00    -0.189 C  
HETATM    2  C   UNL     1     -12.586  14.006  70.327  1.00  0.00    -0.354 C  
HETATM    3  C   UNL     1     -12.176  15.480  70.320  1.00  0.00    -0.432 C  
HETATM    4  C   UNL     1     -12.125  13.315  69.039  1.00  0.00    -0.226 C  
ENDROOT
BRANCH   4   5
HETATM    5  N   UNL     1     -11.002  12.349  68.858  1.00  0.00    -0.233 N  
BRANCH   5   6
HETATM    6  C   UNL     1     -11.558  10.946  69.243  1.00  0.00    -0.318 C  
BRANCH   6   7
HETATM    7  C   UNL     1     -10.574   9.997  70.068  1.00  0.00    -0.293 C  
BRANCH   7   8
HETATM    8  C   UNL     1     -10.167   8.697  69.214  1.00  0.00    -0.211 C  
BRANCH   8   9
HETATM    9  N   UNL     1     -10.388   7.438  69.948  1.00  0.00    -0.212 N  
HETATM   10  C   UNL     1      -9.336   6.641  70.324  1.00  0.00    -0.159 C  
HETATM   11  H   UNL     1     -11.340   7.154  70.180  1.00  0.00     0.000 HD 
HETATM   12  O   UNL     1      -8.155   6.893  70.161  1.00  0.00    -0.122 OA 
BRANCH  10  13
HETATM   13  O   UNL     1      -9.806   5.521  70.937  1.00  0.00    -0.169 OA 
BRANCH  13  14
HETATM   14  C   UNL     1      -9.548   5.448  72.351  1.00  0.00    -0.150 C  
HETATM   15  C   UNL     1      -9.886   6.717  73.100  1.00  0.00    -0.201 C  
HETATM   16  O   UNL     1     -10.820   4.918  74.311  1.00  0.00    -0.320 OA 
HETATM   17  C   UNL     1     -10.234   6.214  74.479  1.00  0.00    -0.300 C  
HETATM   18  C   UNL     1     -10.479   4.433  73.004  1.00  0.00    -0.183 C  
ENDBRANCH  13  14
ENDBRANCH  10  13
ENDBRANCH   8   9
BRANCH   8  19
HETATM   19  C   UNL     1     -10.708   8.594  67.768  1.00  0.00    -0.178 C  
BRANCH  19  20
HETATM   20  C   UNL     1     -10.263   7.422  66.935  1.00  0.00    -0.346 A  
HETATM   21  C   UNL     1     -10.533   5.122  66.212  1.00  0.00    -0.341 A  
HETATM   22  C   UNL     1      -8.535   6.344  65.623  1.00  0.00    -0.147 A  
HETATM   23  C   UNL     1      -9.023   7.467  66.288  1.00  0.00    -0.199 A  
HETATM   24  C   UNL     1     -11.019   6.243  66.886  1.00  0.00    -0.404 A  
HETATM   25  C   UNL     1      -9.288   5.172  65.588  1.00  0.00    -0.149 A  
ENDBRANCH  19  20
ENDBRANCH   8  19
ENDBRANCH   7   8
BRANCH   7  26
HETATM   26  O   UNL     1     -11.043   9.758  71.446  1.00  0.00    -0.359 OA 
HETATM   27  O   UNL     1     -14.279   9.579  71.941  1.00  0.00    -0.145 OA 
HETATM   28  O   UNL     1     -12.612   8.058  71.457  1.00  0.00    -0.305 OA 
HETATM   29  O   UNL     1     -13.106  10.095  70.188  1.00  0.00    -0.059 OA 
HETATM   30  P   UNL     1     -12.750   9.663  71.707  1.00  0.00    -0.437 P  
ENDBRANCH   7  26
ENDBRANCH   6   7
ENDBRANCH   5   6
BRANCH   5  31
HETATM   31  S   UNL     1      -9.955  12.218  67.514  1.00  0.00    -0.201 S  
HETATM   32  O   UNL     1     -10.655  11.571  66.424  1.00  0.00    -0.241 OA 
HETATM   33  O   UNL     1      -8.711  11.635  67.977  1.00  0.00    -0.144 OA 
BRANCH  31  34
HETATM   34  C   UNL     1      -9.559  13.823  66.927  1.00  0.00    -0.262 A  
HETATM   35  N   UNL     1      -8.551  17.725  65.808  1.00  0.00    -0.426 NA 
HETATM   36  C   UNL     1     -10.529  14.630  66.334  1.00  0.00    -0.296 A  
HETATM   37  H1  UNL     1      -7.602  18.073  65.948  1.00  0.00     0.000 HD 
HETATM   38  H2  UNL     1      -9.196  18.353  66.290  1.00  0.00     0.000 HD 
HETATM   39  C   UNL     1      -8.313  14.352  67.273  1.00  0.00    -0.228 A  
HETATM   40  C   UNL     1      -7.981  15.642  66.888  1.00  0.00    -0.278 A  
HETATM   41  C   UNL     1     -10.185  15.931  65.959  1.00  0.00    -0.353 A  
HETATM   42  C   UNL     1      -8.883  16.410  66.150  1.00  0.00    -0.314 A  
ENDBRANCH  31  34
ENDBRANCH   5  31
ENDBRANCH   4   5
TORSDOF 12
ENDMDL
MODEL      251
REMARK 921   NORMALIZED FREE ENERGY PREDICTED BY IDOCK:   -4.02 KCAL/MOL
REMARK 922        TOTAL FREE ENERGY PREDICTED BY IDOCK:   -9.65 KCAL/MOL
REMARK 923 INTER-LIGAND FREE ENERGY PREDICTED BY IDOCK:   -9.15 KCAL/MOL
REMARK 924 INTRA-LIGAND FREE ENERGY PREDICTED BY IDOCK:   -0.50 KCAL/MOL
REMARK 927      BINDING AFFINITY PREDICTED BY RF-SCORE:    0.00 PKD
ROOT
HETATM    1  C   UNL     1      -7.486  14.034  68.079  1.00  0.00    -0.141 C  
HETATM    2  C   UNL     1      -8.969  13.730  68.220  1.00  0.00    -0.186 C  
HETATM    3  C   UNL     1      -9.863  14.540  67.279  1.00  0.00    -0.236 C  
HETATM    4  C   UNL     1      -9.518  12.309  68.388  1.00  0.00    -0.175 C  
ENDROOT
BRANCH   4   5
HETATM    5  N   UNL     1      -8.988  11.038  67.812  1.00  0.00    -0.138 N  
BRANCH   5   6
HETATM    6  C   UNL     1      -8.655  10.110  69.018  1.00  0.00    -0.156 C  
BRANCH   6   7
HETATM    7  C   UNL     1      -9.884   9.687  69.945  1.00  0.00    -0.239 C  
BRANCH   7   8
HETATM    8  C   UNL     1      -9.756   8.155  70.418  1.00  0.00    -0.178 C  
BRANCH   8   9
HETATM    9  N   UNL     1      -9.536   7.226  69.295  1.00  0.00    -0.156 N  
HETATM   10  C   UNL     1     -10.532   6.389  68.860  1.00  0.00    -0.223 C  
HETATM   11  H   UNL     1      -8.627   7.206  68.832  1.00  0.00     0.000 HD 
HETATM   12  O   UNL     1     -11.674   6.355  69.286  1.00  0.00    -0.277 OA 
BRANCH  10  13
HETATM   13  O   UNL     1     -10.063   5.601  67.854  1.00  0.00    -0.144 OA 
BRANCH  13  14
HETATM   14  C   UNL     1      -9.283   4.470  68.282  1.00  0.00    -0.132 C  
HETATM   15  C   UNL     1      -9.623   3.984  69.673  1.00  0.00    -0.270 C  
HETATM   16  O   UNL     1      -9.546   2.088  68.267  1.00  0.00    -0.207 OA 
HETATM   17  C   UNL     1      -9.287   2.514  69.609  1.00  0.00    -0.101 C  
HETATM   18  C   UNL     1      -9.611   3.251  67.428  1.00  0.00    -0.063 C  
ENDBRANCH  13  14
ENDBRANCH  10  13
ENDBRANCH   8   9
BRANCH   8  19
HETATM   19  C   UNL     1      -8.790   7.846  71.586  1.00  0.00    -0.163 C  
BRANCH  19  20
HETATM   20  C   UNL     1      -9.254   6.880  72.643  1.00  0.00    -0.151 A  
HETATM   21  C   UNL     1      -8.788   5.452  74.547  1.00  0.00    -0.116 A  
HETATM   22  C   UNL     1     -10.935   5.334  73.448  1.00  0.00    -0.372 A  
HETATM   23  C   UNL     1     -10.536   6.328  72.557  1.00  0.00    -0.239 A  
HETATM   24  C   UNL     1      -8.383   6.440  73.650  1.00  0.00    -0.122 A  
HETATM   25  C   UNL     1     -10.061   4.894  74.440  1.00  0.00    -0.264 A  
ENDBRANCH  19  20
ENDBRANCH   8  19
ENDBRANCH   7   8
BRANCH   7  26
HETATM   26  O   UNL     1     -11.185  10.094  69.381  1.00  0.00    -0.230 OA 
HETATM   27  O   UNL     1     -13.649  10.627  71.477  1.00  0.00    -0.179 OA 
HETATM   28  O   UNL     1     -11.996  11.931  70.530  1.00  0.00    -0.354 OA 
HETATM   29  O   UNL     1     -11.644   9.844  71.765  1.00  0.00    -0.302 OA 
HETATM   30  P   UNL     1     -12.485  10.376  70.487  1.00  0.00    -0.254 P  
ENDBRANCH   7  26
ENDBRANCH   6   7
ENDBRANCH   5   6
BRANCH   5  31
HETATM   31  S   UNL     1      -9.655  10.122  66.533  1.00  0.00    -0.197 S  
HETATM   32  O   UNL     1     -10.710   9.276  67.051  1.00  0.00    -0.232 OA 
HETATM   33  O   UNL     1      -8.560   9.499  65.816  1.00  0.00    -0.129 OA 
BRANCH  31  34
HETATM   34  C   UNL     1     -10.440  11.202  65.393  1.00  0.00    -0.259 A  
HETATM   35  N   UNL     1     -12.560  13.620  62.719  1.00  0.00    -0.640 NA 
HETATM   36  C   UNL     1     -10.027  11.264  64.063  1.00  0.00    -0.362 A  
HETATM   37  H1  UNL     1     -13.354  14.172  63.041  1.00  0.00     0.000 HD 
HETATM   38  H2  UNL     1     -12.876  13.020  61.957  1.00  0.00     0.000 HD 
HETATM   39  C   UNL     1     -11.624  11.822  65.797  1.00  0.00    -0.194 A  
HETATM   40  C   UNL     1     -12.316  12.632  64.909  1.00  0.00    -0.563 A  
HETATM   41  C   UNL     1     -10.736  12.077  63.176  1.00  0.00    -0.277 A  
HETATM   42  C   UNL     1     -11.828  12.836  63.618  1.00  0.00    -0.532 A  
ENDBRANCH  31  34
ENDBRANCH   5  31
ENDBRANCH   4   5
TORSDOF 12
ENDMDL
MODEL      252
REMARK 921   NORMALIZED FREE ENERGY PREDICTED BY IDOCK:   -4.02 KCAL/MOL
REMARK 922        TOTAL FREE ENERGY PREDICTED BY IDOCK:   -9.65 KCAL/MOL
REMARK 923 INTER-LIGAND FREE ENERGY PREDICTED BY IDOCK:   -7.88 KCAL/MOL
REMARK 924 INTRA-LIGAND FREE ENERGY PREDICTED BY IDOCK:   -1.77 KCAL/MOL
REMARK 927      BINDING AFFINITY PREDICTED BY RF-SCORE:    0.00 PKD
ROOT
HETATM    1  C   UNL     1     -10.031   6.702  71.705  1.00  0.00    -0.187 C  
HETATM    2  C   UNL     1     -11.379   6.376  71.084  1.00  0.00    -0.376 C  
HETATM    3  C   UNL     1     -12.539   7.203  71.643  1.00  0.00    -0.410 C  
HETATM    4  C   UNL     1     -11.570   6.132  69.583  1.00  0.00    -0.086 C  
ENDROOT
BRANCH   4   5
HETATM    5  N   UNL     1     -10.842   6.761  68.443  1.00  0.00    -0.234 N  
BRANCH   5   6
HETATM    6  C   UNL     1      -9.923   7.860  69.056  1.00  0.00    -0.187 C  
BRANCH   6   7
HETATM    7  C   UNL     1     -10.358   9.374  68.792  1.00  0.00    -0.209 C  
BRANCH   7   8
HETATM    8  C   UNL     1      -9.419  10.064  67.683  1.00  0.00    -0.144 C  
BRANCH   8   9
HETATM    9  N   UNL     1     -10.188  10.716  66.608  1.00  0.00    -0.224 N  
HETATM   10  C   UNL     1      -9.884  10.503  65.287  1.00  0.00    -0.284 C  
HETATM   11  H   UNL     1     -10.961  11.336  66.850  1.00  0.00     0.000 HD 
HETATM   12  O   UNL     1      -9.029   9.744  64.864  1.00  0.00    -0.185 OA 
BRANCH  10  13
HETATM   13  O   UNL     1     -10.701  11.255  64.501  1.00  0.00    -0.332 OA 
BRANCH  13  14
HETATM   14  C   UNL     1     -11.172  12.473  65.105  1.00  0.00    -0.304 C  
HETATM   15  C   UNL     1     -10.611  13.726  64.472  1.00  0.00    -0.405 C  
HETATM   16  O   UNL     1     -12.942  14.034  64.689  1.00  0.00    -0.639 OA 
HETATM   17  C   UNL     1     -11.699  14.744  64.713  1.00  0.00    -0.422 C  
HETATM   18  C   UNL     1     -12.669  12.636  64.865  1.00  0.00    -0.370 C  
ENDBRANCH  13  14
ENDBRANCH  10  13
ENDBRANCH   8   9
BRANCH   8  19
HETATM   19  C   UNL     1      -8.282  10.985  68.183  1.00  0.00    -0.124 C  
BRANCH  19  20
HETATM   20  C   UNL     1      -7.118  10.341  68.888  1.00  0.00    -0.075 A  
HETATM   21  C   UNL     1      -5.408   8.624  69.006  1.00  0.00    -0.036 A  
HETATM   22  C   UNL     1      -5.826  10.042  70.916  1.00  0.00    -0.088 A  
HETATM   23  C   UNL     1      -6.814  10.718  70.201  1.00  0.00    -0.074 A  
HETATM   24  C   UNL     1      -6.402   9.294  68.292  1.00  0.00    -0.054 A  
HETATM   25  C   UNL     1      -5.127   8.994  70.321  1.00  0.00    -0.027 A  
ENDBRANCH  19  20
ENDBRANCH   8  19
ENDBRANCH   7   8
BRANCH   7  26
HETATM   26  O   UNL     1     -10.564  10.130  70.041  1.00  0.00    -0.262 OA 
HETATM   27  O   UNL     1     -12.983  12.342  70.096  1.00  0.00     0.325 OA 
HETATM   28  O   UNL     1     -12.805  10.100  70.614  1.00  0.00    -0.309 OA 
HETATM   29  O   UNL     1     -12.157  11.136  68.491  1.00  0.00    -0.586 OA 
HETATM   30  P   UNL     1     -11.841  11.297  70.070  1.00  0.00    -0.382 P  
ENDBRANCH   7  26
ENDBRANCH   6   7
ENDBRANCH   5   6
BRANCH   5  31
HETATM   31  S   UNL     1     -10.033   5.967  67.164  1.00  0.00    -0.175 S  
HETATM   32  O   UNL     1      -9.176   6.913  66.480  1.00  0.00    -0.156 OA 
HETATM   33  O   UNL     1     -11.027   5.251  66.389  1.00  0.00    -0.235 OA 
BRANCH  31  34
HETATM   34  C   UNL     1      -8.953   4.752  67.825  1.00  0.00    -0.111 A  
HETATM   35  N   UNL     1      -6.237   1.857  69.140  1.00  0.00    -0.024 NA 
HETATM   36  C   UNL     1      -9.430   3.498  68.204  1.00  0.00    -0.215 A  
HETATM   37  H1  UNL     1      -5.242   2.074  69.203  1.00  0.00     0.000 HD 
HETATM   38  H2  UNL     1      -6.348   1.042  68.536  1.00  0.00     0.000 HD 
HETATM   39  C   UNL     1      -7.580   4.993  67.749  1.00  0.00    -0.083 A  
HETATM   40  C   UNL     1      -6.685   4.035  68.198  1.00  0.00    -0.047 A  
HETATM   41  C   UNL     1      -8.519   2.537  68.646  1.00  0.00    -0.094 A  
HETATM   42  C   UNL     1      -7.152   2.833  68.733  1.00  0.00    -0.048 A  
ENDBRANCH  31  34
ENDBRANCH   5  31
ENDBRANCH   4   5
TORSDOF 12
ENDMDL
MODEL      253
REMARK 921   NORMALIZED FREE ENERGY PREDICTED BY IDOCK:   -3.98 KCAL/MOL
REMARK 922        TOTAL FREE ENERGY PREDICTED BY IDOCK:   -9.58 KCAL/MOL
REMARK 923 INTER-LIGAND FREE ENERGY PREDICTED BY IDOCK:   -8.64 KCAL/MOL
REMARK 924 INTRA-LIGAND FREE ENERGY PREDICTED BY IDOCK:   -0.94 KCAL/MOL
REMARK 927      BINDING AFFINITY PREDICTED BY RF-SCORE:    0.00 PKD
ROOT
HETATM    1  C   UNL     1     -12.586  10.152  71.940  1.00  0.00    -0.437 C  
HETATM    2  C   UNL     1     -12.821   8.676  72.218  1.00  0.00    -0.438 C  
HETATM    3  C   UNL     1     -14.020   8.085  71.472  1.00  0.00    -0.433 C  
HETATM    4  C   UNL     1     -11.685   7.651  72.302  1.00  0.00    -0.324 C  
ENDROOT
BRANCH   4   5
HETATM    5  N   UNL     1     -10.400   7.629  71.544  1.00  0.00    -0.196 N  
BRANCH   5   6
HETATM    6  C   UNL     1      -9.901   9.103  71.474  1.00  0.00    -0.265 C  
BRANCH   6   7
HETATM    7  C   UNL     1      -9.414   9.617  70.043  1.00  0.00    -0.240 C  
BRANCH   7   8
HETATM    8  C   UNL     1     -10.528   9.342  68.916  1.00  0.00    -0.216 C  
BRANCH   8   9
HETATM    9  N   UNL     1     -10.816  10.532  68.095  1.00  0.00    -0.233 N  
HETATM   10  C   UNL     1     -11.917  11.313  68.339  1.00  0.00    -0.185 C  
HETATM   11  H   UNL     1     -10.186  10.780  67.332  1.00  0.00     0.000 HD 
HETATM   12  O   UNL     1     -12.713  11.162  69.251  1.00  0.00    -0.252 OA 
BRANCH  10  13
HETATM   13  O   UNL     1     -11.986  12.311  67.417  1.00  0.00    -0.530 OA 
BRANCH  13  14
HETATM   14  C   UNL     1     -11.664  13.622  67.916  1.00  0.00    -0.360 C  
HETATM   15  C   UNL     1     -11.702  13.728  69.424  1.00  0.00    -0.379 C  
HETATM   16  O   UNL     1      -9.692  14.734  68.699  1.00  0.00    -0.213 OA 
HETATM   17  C   UNL     1     -10.701  14.822  69.710  1.00  0.00    -0.154 C  
HETATM   18  C   UNL     1     -10.211  13.962  67.607  1.00  0.00    -0.242 C  
ENDBRANCH  13  14
ENDBRANCH  10  13
ENDBRANCH   8   9
BRANCH   8  19
HETATM   19  C   UNL     1     -10.350   8.089  68.026  1.00  0.00    -0.262 C  
BRANCH  19  20
HETATM   20  C   UNL     1      -9.562   8.240  66.752  1.00  0.00    -0.288 A  
HETATM   21  C   UNL     1      -9.059   9.454  64.713  1.00  0.00    -0.248 A  
HETATM   22  C   UNL     1      -8.137   7.249  65.063  1.00  0.00    -0.120 A  
HETATM   23  C   UNL     1      -8.767   7.180  66.303  1.00  0.00    -0.156 A  
HETATM   24  C   UNL     1      -9.699   9.382  65.951  1.00  0.00    -0.355 A  
HETATM   25  C   UNL     1      -8.285   8.383  64.267  1.00  0.00    -0.130 A  
ENDBRANCH  19  20
ENDBRANCH   8  19
ENDBRANCH   7   8
BRANCH   7  26
HETATM   26  O   UNL     1      -8.038   9.189  69.726  1.00  0.00    -0.095 OA 
HETATM   27  O   UNL     1      -5.992  11.438  68.499  1.00  0.00    -0.046 OA 
HETATM   28  O   UNL     1      -6.524  10.694  70.618  1.00  0.00    -0.310 OA 
HETATM   29  O   UNL     1      -8.118  11.498  68.939  1.00  0.00    -0.123 OA 
HETATM   30  P   UNL     1      -6.959  10.376  69.079  1.00  0.00    -0.090 P  
ENDBRANCH   7  26
ENDBRANCH   6   7
ENDBRANCH   5   6
BRANCH   5  31
HETATM   31  S   UNL     1      -9.078   6.571  71.776  1.00  0.00    -0.140 S  
HETATM   32  O   UNL     1      -9.427   5.580  72.772  1.00  0.00    -0.148 OA 
HETATM   33  O   UNL     1      -7.896   7.381  71.993  1.00  0.00    -0.087 OA 
BRANCH  31  34
HETATM   34  C   UNL     1      -8.791   5.667  70.299  1.00  0.00    -0.139 A  
HETATM   35  N   UNL     1      -8.186   3.267  66.928  1.00  0.00    -0.084 NA 
HETATM   36  C   UNL     1      -7.521   5.609  69.728  1.00  0.00    -0.074 A  
HETATM   37  H1  UNL     1      -8.963   2.749  66.517  1.00  0.00     0.000 HD 
HETATM   38  H2  UNL     1      -7.447   2.603  67.159  1.00  0.00     0.000 HD 
HETATM   39  C   UNL     1      -9.812   4.830  69.842  1.00  0.00    -0.291 A  
HETATM   40  C   UNL     1      -9.609   4.046  68.716  1.00  0.00    -0.201 A  
HETATM   41  C   UNL     1      -7.326   4.809  68.600  1.00  0.00    -0.065 A  
HETATM   42  C   UNL     1      -8.392   4.097  68.035  1.00  0.00    -0.093 A  
ENDBRANCH  31  34
ENDBRANCH   5  31
ENDBRANCH   4   5
TORSDOF 12
ENDMDL
MODEL      254
REMARK 921   NORMALIZED FREE ENERGY PREDICTED BY IDOCK:   -3.97 KCAL/MOL
REMARK 922        TOTAL FREE ENERGY PREDICTED BY IDOCK:   -9.56 KCAL/MOL
REMARK 923 INTER-LIGAND FREE ENERGY PREDICTED BY IDOCK:   -9.02 KCAL/MOL
REMARK 924 INTRA-LIGAND FREE ENERGY PREDICTED BY IDOCK:   -0.54 KCAL/MOL
REMARK 927      BINDING AFFINITY PREDICTED BY RF-SCORE:    0.00 PKD
ROOT
HETATM    1  C   UNL     1      -5.857  19.299  67.579  1.00  0.00    -0.190 C  
HETATM    2  C   UNL     1      -7.037  18.781  66.774  1.00  0.00    -0.228 C  
HETATM    3  C   UNL     1      -6.744  18.602  65.283  1.00  0.00    -0.160 C  
HETATM    4  C   UNL     1      -7.966  17.670  67.274  1.00  0.00    -0.207 C  
ENDROOT
BRANCH   4   5
HETATM    5  N   UNL     1      -7.626  16.494  68.128  1.00  0.00    -0.157 N  
BRANCH   5   6
HETATM    6  C   UNL     1      -8.947  16.062  68.834  1.00  0.00    -0.239 C  
BRANCH   6   7
HETATM    7  C   UNL     1     -10.074  15.427  67.898  1.00  0.00    -0.226 C  
BRANCH   7   8
HETATM    8  C   UNL     1     -10.662  14.072  68.534  1.00  0.00    -0.256 C  
BRANCH   8   9
HETATM    9  N   UNL     1     -10.177  12.861  67.849  1.00  0.00    -0.227 N  
HETATM   10  C   UNL     1     -11.049  11.980  67.261  1.00  0.00    -0.285 C  
HETATM   11  H   UNL     1      -9.175  12.675  67.811  1.00  0.00     0.000 HD 
HETATM   12  O   UNL     1     -12.258  12.115  67.185  1.00  0.00    -0.507 OA 
BRANCH  10  13
HETATM   13  O   UNL     1     -10.359  10.926  66.746  1.00  0.00    -0.222 OA 
BRANCH  13  14
HETATM   14  C   UNL     1     -10.803   9.633  67.195  1.00  0.00    -0.114 C  
HETATM   15  C   UNL     1     -10.048   8.478  66.577  1.00  0.00    -0.328 C  
HETATM   16  O   UNL     1     -10.153   8.083  68.903  1.00  0.00    -0.190 OA 
HETATM   17  C   UNL     1     -10.135   7.410  67.640  1.00  0.00    -0.186 C  
HETATM   18  C   UNL     1     -10.499   9.458  68.679  1.00  0.00    -0.209 C  
ENDBRANCH  13  14
ENDBRANCH  10  13
ENDBRANCH   8   9
BRANCH   8  19
HETATM   19  C   UNL     1     -10.577  13.908  70.070  1.00  0.00     0.628 C  
BRANCH  19  20
HETATM   20  C   UNL     1     -11.690  14.489  70.900  1.00  0.00    -0.308 A  
HETATM   21  C   UNL     1     -14.055  14.844  71.308  1.00  0.00    -0.475 A  
HETATM   22  C   UNL     1     -12.414  16.064  72.593  1.00  0.00    -0.572 A  
HETATM   23  C   UNL     1     -11.390  15.416  71.904  1.00  0.00    -0.466 A  
HETATM   24  C   UNL     1     -13.031  14.201  70.611  1.00  0.00    -0.290 A  
HETATM   25  C   UNL     1     -13.745  15.780  72.293  1.00  0.00    -0.487 A  
ENDBRANCH  19  20
ENDBRANCH   8  19
ENDBRANCH   7   8
BRANCH   7  26
HETATM   26  O   UNL     1      -9.665  15.366  66.482  1.00  0.00    -0.244 OA 
HETATM   27  O   UNL     1     -12.035  15.372  64.216  1.00  0.00    -0.458 OA 
HETATM   28  O   UNL     1     -10.779  16.994  65.274  1.00  0.00    -0.616 OA 
HETATM   29  O   UNL     1     -12.101  15.255  66.384  1.00  0.00     0.153 OA 
HETATM   30  P   UNL     1     -10.916  15.369  65.287  1.00  0.00    -0.358 P  
ENDBRANCH   7  26
ENDBRANCH   6   7
ENDBRANCH   5   6
BRANCH   5  31
HETATM   31  S   UNL     1      -6.722  15.115  67.680  1.00  0.00    -0.163 S  
HETATM   32  O   UNL     1      -5.512  15.535  67.005  1.00  0.00    -0.260 OA 
HETATM   33  O   UNL     1      -7.615  14.204  66.993  1.00  0.00    -0.042 OA 
BRANCH  31  34
HETATM   34  C   UNL     1      -6.183  14.280  69.127  1.00  0.00    -0.099 A  
HETATM   35  N   UNL     1      -5.155  12.141  72.571  1.00  0.00    -0.347 NA 
HETATM   36  C   UNL     1      -5.942  14.976  70.310  1.00  0.00    -0.150 A  
HETATM   37  H1  UNL     1      -5.060  11.126  72.539  1.00  0.00     0.000 HD 
HETATM   38  H2  UNL     1      -5.842  12.376  73.287  1.00  0.00     0.000 HD 
HETATM   39  C   UNL     1      -6.220  12.884  69.122  1.00  0.00    -0.101 A  
HETATM   40  C   UNL     1      -5.866  12.180  70.264  1.00  0.00    -0.161 A  
HETATM   41  C   UNL     1      -5.595  14.257  71.456  1.00  0.00    -0.200 A  
HETATM   42  C   UNL     1      -5.465  12.863  71.413  1.00  0.00    -0.072 A  
ENDBRANCH  31  34
ENDBRANCH   5  31
ENDBRANCH   4   5
TORSDOF 12
ENDMDL
MODEL      255
REMARK 921   NORMALIZED FREE ENERGY PREDICTED BY IDOCK:   -3.97 KCAL/MOL
REMARK 922        TOTAL FREE ENERGY PREDICTED BY IDOCK:   -9.56 KCAL/MOL
REMARK 923 INTER-LIGAND FREE ENERGY PREDICTED BY IDOCK:   -7.13 KCAL/MOL
REMARK 924 INTRA-LIGAND FREE ENERGY PREDICTED BY IDOCK:   -2.43 KCAL/MOL
REMARK 927      BINDING AFFINITY PREDICTED BY RF-SCORE:    0.00 PKD
ROOT
HETATM    1  C   UNL     1      -5.902   7.170  71.461  1.00  0.00    -0.037 C  
HETATM    2  C   UNL     1      -7.170   6.444  71.040  1.00  0.00    -0.078 C  
HETATM    3  C   UNL     1      -8.098   6.085  72.203  1.00  0.00    -0.107 C  
HETATM    4  C   UNL     1      -7.987   6.840  69.805  1.00  0.00    -0.124 C  
ENDROOT
BRANCH   4   5
HETATM    5  N   UNL     1      -8.197   8.201  69.231  1.00  0.00    -0.117 N  
BRANCH   5   6
HETATM    6  C   UNL     1      -9.052   8.011  67.942  1.00  0.00    -0.132 C  
BRANCH   6   7
HETATM    7  C   UNL     1      -8.707   6.736  67.046  1.00  0.00    -0.114 C  
BRANCH   7   8
HETATM    8  C   UNL     1      -7.907   7.158  65.716  1.00  0.00    -0.109 C  
BRANCH   8   9
HETATM    9  N   UNL     1      -8.530   6.640  64.485  1.00  0.00    -0.347 N  
HETATM   10  C   UNL     1      -7.805   5.915  63.574  1.00  0.00    -0.103 C  
HETATM   11  H   UNL     1      -9.517   6.824  64.308  1.00  0.00     0.000 HD 
HETATM   12  O   UNL     1      -6.639   5.578  63.693  1.00  0.00    -0.031 OA 
BRANCH  10  13
HETATM   13  O   UNL     1      -8.591   5.601  62.508  1.00  0.00    -0.101 OA 
BRANCH  13  14
HETATM   14  C   UNL     1      -8.972   4.216  62.422  1.00  0.00    -0.102 C  
HETATM   15  C   UNL     1      -8.627   3.409  63.654  1.00  0.00    -0.090 C  
HETATM   16  O   UNL     1     -10.862   2.902  63.087  1.00  0.00    -0.216 OA 
HETATM   17  C   UNL     1      -9.681   2.329  63.656  1.00  0.00    -0.127 C  
HETATM   18  C   UNL     1     -10.490   4.089  62.372  1.00  0.00    -0.186 C  
ENDBRANCH  13  14
ENDBRANCH  10  13
ENDBRANCH   8   9
BRANCH   8  19
HETATM   19  C   UNL     1      -7.525   8.649  65.556  1.00  0.00    -0.085 C  
BRANCH  19  20
HETATM   20  C   UNL     1      -8.336   9.481  64.599  1.00  0.00    -0.161 A  
HETATM   21  C   UNL     1      -8.500  10.824  62.586  1.00  0.00    -0.240 A  
HETATM   22  C   UNL     1     -10.342  10.761  64.146  1.00  0.00    -0.382 A  
HETATM   23  C   UNL     1      -9.627   9.883  64.958  1.00  0.00    -0.364 A  
HETATM   24  C   UNL     1      -7.779   9.952  63.402  1.00  0.00    -0.145 A  
HETATM   25  C   UNL     1      -9.778  11.234  62.963  1.00  0.00    -0.389 A  
ENDBRANCH  19  20
ENDBRANCH   8  19
ENDBRANCH   7   8
BRANCH   7  26
HETATM   26  O   UNL     1      -9.867   5.844  66.860  1.00  0.00    -0.136 OA 
HETATM   27  O   UNL     1      -9.471   2.668  67.573  1.00  0.00    -0.181 OA 
HETATM   28  O   UNL     1     -10.158   4.534  68.745  1.00  0.00    -0.099 OA 
HETATM   29  O   UNL     1      -8.066   4.322  67.488  1.00  0.00    -0.097 OA 
HETATM   30  P   UNL     1      -9.658   4.168  67.237  1.00  0.00    -0.122 P  
ENDBRANCH   7  26
ENDBRANCH   6   7
ENDBRANCH   5   6
BRANCH   5  31
HETATM   31  S   UNL     1      -8.690   9.611  70.060  1.00  0.00    -0.227 S  
HETATM   32  O   UNL     1      -7.527  10.422  70.358  1.00  0.00    -0.209 OA 
HETATM   33  O   UNL     1      -9.546   9.204  71.157  1.00  0.00    -0.267 OA 
BRANCH  31  34
HETATM   34  C   UNL     1      -9.684  10.593  68.997  1.00  0.00    -0.202 A  
HETATM   35  N   UNL     1     -11.945  13.171  66.604  1.00  0.00    -0.399 NA 
HETATM   36  C   UNL     1     -11.074  10.492  69.019  1.00  0.00    -0.300 A  
HETATM   37  H1  UNL     1     -11.484  13.849  65.997  1.00  0.00     0.000 HD 
HETATM   38  H2  UNL     1     -12.581  13.676  67.222  1.00  0.00     0.000 HD 
HETATM   39  C   UNL     1      -9.060  11.629  68.299  1.00  0.00    -0.187 A  
HETATM   40  C   UNL     1      -9.814  12.473  67.498  1.00  0.00    -0.198 A  
HETATM   41  C   UNL     1     -11.824  11.353  68.214  1.00  0.00    -0.320 A  
HETATM   42  C   UNL     1     -11.191  12.284  67.380  1.00  0.00    -0.301 A  
ENDBRANCH  31  34
ENDBRANCH   5  31
ENDBRANCH   4   5
TORSDOF 12
ENDMDL
MODEL      256
REMARK 921   NORMALIZED FREE ENERGY PREDICTED BY IDOCK:   -3.97 KCAL/MOL
REMARK 922        TOTAL FREE ENERGY PREDICTED BY IDOCK:   -9.56 KCAL/MOL
REMARK 923 INTER-LIGAND FREE ENERGY PREDICTED BY IDOCK:   -8.29 KCAL/MOL
REMARK 924 INTRA-LIGAND FREE ENERGY PREDICTED BY IDOCK:   -1.27 KCAL/MOL
REMARK 927      BINDING AFFINITY PREDICTED BY RF-SCORE:    0.00 PKD
ROOT
HETATM    1  C   UNL     1     -11.500  19.023  67.512  1.00  0.00     0.651 C  
HETATM    2  C   UNL     1     -10.817  18.483  66.266  1.00  0.00    -0.066 C  
HETATM    3  C   UNL     1     -10.231  19.567  65.357  1.00  0.00     0.204 C  
HETATM    4  C   UNL     1      -9.910  17.248  66.280  1.00  0.00    -0.285 C  
ENDROOT
BRANCH   4   5
HETATM    5  N   UNL     1      -9.001  16.779  67.366  1.00  0.00    -0.203 N  
BRANCH   5   6
HETATM    6  C   UNL     1      -8.428  15.406  66.903  1.00  0.00    -0.252 C  
BRANCH   6   7
HETATM    7  C   UNL     1      -8.527  14.208  67.953  1.00  0.00    -0.167 C  
BRANCH   7   8
HETATM    8  C   UNL     1      -9.953  14.204  68.698  1.00  0.00    -0.222 C  
BRANCH   8   9
HETATM    9  N   UNL     1     -10.517  12.850  68.846  1.00  0.00    -0.419 N  
HETATM   10  C   UNL     1     -11.079  12.195  67.779  1.00  0.00    -0.250 C  
HETATM   11  H   UNL     1     -10.489  12.393  69.757  1.00  0.00     0.000 HD 
HETATM   12  O   UNL     1     -11.123  12.604  66.632  1.00  0.00    -0.255 OA 
BRANCH  10  13
HETATM   13  O   UNL     1     -11.570  10.993  68.186  1.00  0.00    -0.417 OA 
BRANCH  13  14
HETATM   14  C   UNL     1     -11.112  10.557  69.479  1.00  0.00    -0.268 C  
HETATM   15  C   UNL     1     -12.083  10.846  70.601  1.00  0.00    -0.468 C  
HETATM   16  O   UNL     1     -11.388   8.602  70.838  1.00  0.00    -0.263 OA 
HETATM   17  C   UNL     1     -11.789   9.749  71.595  1.00  0.00    -0.354 C  
HETATM   18  C   UNL     1     -11.021   9.035  69.519  1.00  0.00    -0.106 C  
ENDBRANCH  13  14
ENDBRANCH  10  13
ENDBRANCH   8   9
BRANCH   8  19
HETATM   19  C   UNL     1     -10.070  14.997  70.021  1.00  0.00    -0.016 C  
BRANCH  19  20
HETATM   20  C   UNL     1     -11.341  14.854  70.814  1.00  0.00    -0.266 A  
HETATM   21  C   UNL     1     -13.727  14.428  70.918  1.00  0.00    -0.074 A  
HETATM   22  C   UNL     1     -12.563  15.251  72.868  1.00  0.00    -0.512 A  
HETATM   23  C   UNL     1     -11.366  15.250  72.156  1.00  0.00    -0.414 A  
HETATM   24  C   UNL     1     -12.531  14.436  70.201  1.00  0.00    -0.395 A  
HETATM   25  C   UNL     1     -13.744  14.843  72.249  1.00  0.00    -0.564 A  
ENDBRANCH  19  20
ENDBRANCH   8  19
ENDBRANCH   7   8
BRANCH   7  26
HETATM   26  O   UNL     1      -7.335  14.112  68.816  1.00  0.00    -0.119 OA 
HETATM   27  O   UNL     1      -5.306  11.583  68.326  1.00  0.00    -0.043 OA 
HETATM   28  O   UNL     1      -5.457  13.740  67.517  1.00  0.00    -0.336 OA 
HETATM   29  O   UNL     1      -7.248  12.069  67.484  1.00  0.00    -0.107 OA 
HETATM   30  P   UNL     1      -6.264  12.777  68.557  1.00  0.00    -0.086 P  
ENDBRANCH   7  26
ENDBRANCH   6   7
ENDBRANCH   5   6
BRANCH   5  31
HETATM   31  S   UNL     1      -7.789  17.681  68.165  1.00  0.00    -0.266 S  
HETATM   32  O   UNL     1      -6.718  16.793  68.566  1.00  0.00    -0.149 OA 
HETATM   33  O   UNL     1      -8.435  18.486  69.183  1.00  0.00    -0.111 OA 
BRANCH  31  34
HETATM   34  C   UNL     1      -7.062  18.808  67.033  1.00  0.00    -0.204 A  
HETATM   35  N   UNL     1      -5.128  21.284  64.272  1.00  0.00    -0.197 NA 
HETATM   36  C   UNL     1      -6.510  20.011  67.472  1.00  0.00    -0.245 A  
HETATM   37  H1  UNL     1      -5.081  21.021  63.288  1.00  0.00     0.000 HD 
HETATM   38  H2  UNL     1      -4.176  21.427  64.611  1.00  0.00     0.000 HD 
HETATM   39  C   UNL     1      -6.851  18.368  65.724  1.00  0.00    -0.310 A  
HETATM   40  C   UNL     1      -6.220  19.198  64.811  1.00  0.00    -0.256 A  
HETATM   41  C   UNL     1      -5.869  20.835  66.544  1.00  0.00    -0.254 A  
HETATM   42  C   UNL     1      -5.804  20.475  65.192  1.00  0.00    -0.224 A  
ENDBRANCH  31  34
ENDBRANCH   5  31
ENDBRANCH   4   5
TORSDOF 12
ENDMDL
MODEL      257
REMARK 921   NORMALIZED FREE ENERGY PREDICTED BY IDOCK:   -3.97 KCAL/MOL
REMARK 922        TOTAL FREE ENERGY PREDICTED BY IDOCK:   -9.55 KCAL/MOL
REMARK 923 INTER-LIGAND FREE ENERGY PREDICTED BY IDOCK:   -7.54 KCAL/MOL
REMARK 924 INTRA-LIGAND FREE ENERGY PREDICTED BY IDOCK:   -2.02 KCAL/MOL
REMARK 927      BINDING AFFINITY PREDICTED BY RF-SCORE:    0.00 PKD
ROOT
HETATM    1  C   UNL     1     -12.557  13.754  68.914  1.00  0.00     0.439 C  
HETATM    2  C   UNL     1     -11.599  13.127  69.914  1.00  0.00    -0.255 C  
HETATM    3  C   UNL     1     -12.291  12.377  71.054  1.00  0.00    -0.309 C  
HETATM    4  C   UNL     1     -10.315  12.402  69.498  1.00  0.00     0.662 C  
ENDROOT
BRANCH   4   5
HETATM    5  N   UNL     1     -10.066  11.589  68.271  1.00  0.00    -0.193 N  
BRANCH   5   6
HETATM    6  C   UNL     1      -9.743  10.144  68.754  1.00  0.00    -0.172 C  
BRANCH   6   7
HETATM    7  C   UNL     1      -8.196   9.765  68.866  1.00  0.00    -0.117 C  
BRANCH   7   8
HETATM    8  C   UNL     1      -7.938   8.719  70.061  1.00  0.00    -0.108 C  
BRANCH   8   9
HETATM    9  N   UNL     1      -9.112   8.550  70.936  1.00  0.00    -0.158 N  
HETATM   10  C   UNL     1      -8.975   8.466  72.299  1.00  0.00    -0.233 C  
HETATM   11  H   UNL     1     -10.042   8.496  70.522  1.00  0.00     0.000 HD 
HETATM   12  O   UNL     1      -7.932   8.575  72.920  1.00  0.00    -0.335 OA 
BRANCH  10  13
HETATM   13  O   UNL     1     -10.193   8.261  72.870  1.00  0.00    -0.295 OA 
BRANCH  13  14
HETATM   14  C   UNL     1     -11.301   8.257  71.952  1.00  0.00    -0.308 C  
HETATM   15  C   UNL     1     -11.829   6.876  71.636  1.00  0.00    -0.363 C  
HETATM   16  O   UNL     1     -13.691   8.240  72.133  1.00  0.00    -0.328 OA 
HETATM   17  C   UNL     1     -13.283   7.132  71.324  1.00  0.00    -0.272 C  
HETATM   18  C   UNL     1     -12.515   8.925  72.589  1.00  0.00    -0.171 C  
ENDBRANCH  13  14
ENDBRANCH  10  13
ENDBRANCH   8   9
BRANCH   8  19
HETATM   19  C   UNL     1      -7.326   7.348  69.690  1.00  0.00    -0.091 C  
BRANCH  19  20
HETATM   20  C   UNL     1      -8.271   6.227  69.349  1.00  0.00    -0.114 A  
HETATM   21  C   UNL     1      -9.255   4.069  69.856  1.00  0.00    -0.213 A  
HETATM   22  C   UNL     1      -9.641   5.094  67.703  1.00  0.00    -0.164 A  
HETATM   23  C   UNL     1      -8.869   6.190  68.085  1.00  0.00    -0.112 A  
HETATM   24  C   UNL     1      -8.475   5.161  70.236  1.00  0.00    -0.103 A  
HETATM   25  C   UNL     1      -9.831   4.033  68.587  1.00  0.00    -0.046 A  
ENDBRANCH  19  20
ENDBRANCH   8  19
ENDBRANCH   7   8
BRANCH   7  26
HETATM   26  O   UNL     1      -7.319  10.950  68.829  1.00  0.00    -0.088 OA 
HETATM   27  O   UNL     1      -5.144  11.155  66.384  1.00  0.00    -0.087 OA 
HETATM   28  O   UNL     1      -7.319  11.859  66.702  1.00  0.00    -0.065 OA 
HETATM   29  O   UNL     1      -6.497   9.569  66.993  1.00  0.00    -0.065 OA 
HETATM   30  P   UNL     1      -6.172  11.058  67.539  1.00  0.00    -0.064 P  
ENDBRANCH   7  26
ENDBRANCH   6   7
ENDBRANCH   5   6
BRANCH   5  31
HETATM   31  S   UNL     1     -11.018  11.535  66.853  1.00  0.00    -0.305 S  
HETATM   32  O   UNL     1     -12.384  11.212  67.206  1.00  0.00     0.393 OA 
HETATM   33  O   UNL     1     -10.336  10.691  65.893  1.00  0.00    -0.255 OA 
BRANCH  31  34
HETATM   34  C   UNL     1     -11.087  13.137  66.139  1.00  0.00    -0.282 A  
HETATM   35  N   UNL     1     -11.266  16.823  64.171  1.00  0.00    -1.383 NA 
HETATM   36  C   UNL     1     -10.025  14.030  66.274  1.00  0.00    -0.317 A  
HETATM   37  H1  UNL     1     -12.086  17.073  63.617  1.00  0.00     0.000 HD 
HETATM   38  H2  UNL     1     -10.444  16.884  63.569  1.00  0.00     0.000 HD 
HETATM   39  C   UNL     1     -12.129  13.407  65.248  1.00  0.00    -0.446 A  
HETATM   40  C   UNL     1     -12.189  14.635  64.609  1.00  0.00    -0.447 A  
HETATM   41  C   UNL     1     -10.092  15.261  65.618  1.00  0.00    -0.401 A  
HETATM   42  C   UNL     1     -11.217  15.606  64.858  1.00  0.00    -0.369 A  
ENDBRANCH  31  34
ENDBRANCH   5  31
ENDBRANCH   4   5
TORSDOF 12
ENDMDL
MODEL      258
REMARK 921   NORMALIZED FREE ENERGY PREDICTED BY IDOCK:   -3.93 KCAL/MOL
REMARK 922        TOTAL FREE ENERGY PREDICTED BY IDOCK:   -9.49 KCAL/MOL
REMARK 923 INTER-LIGAND FREE ENERGY PREDICTED BY IDOCK:   -8.07 KCAL/MOL
REMARK 924 INTRA-LIGAND FREE ENERGY PREDICTED BY IDOCK:   -1.43 KCAL/MOL
REMARK 927      BINDING AFFINITY PREDICTED BY RF-SCORE:    0.00 PKD
ROOT
HETATM    1  C   UNL     1     -11.675  14.564  69.534  1.00  0.00    -0.361 C  
HETATM    2  C   UNL     1     -11.969  13.596  68.399  1.00  0.00    -0.391 C  
HETATM    3  C   UNL     1     -12.053  14.257  67.022  1.00  0.00    -0.424 C  
HETATM    4  C   UNL     1     -11.315  12.214  68.291  1.00  0.00    -0.289 C  
ENDROOT
BRANCH   4   5
HETATM    5  N   UNL     1      -9.942  11.804  68.708  1.00  0.00    -0.163 N  
BRANCH   5   6
HETATM    6  C   UNL     1      -9.977  10.256  68.888  1.00  0.00    -0.201 C  
BRANCH   6   7
HETATM    7  C   UNL     1     -10.696   9.714  70.206  1.00  0.00    -0.281 C  
BRANCH   7   8
HETATM    8  C   UNL     1      -9.941   8.419  70.790  1.00  0.00    -0.189 C  
BRANCH   8   9
HETATM    9  N   UNL     1      -9.744   7.367  69.777  1.00  0.00    -0.170 N  
HETATM   10  C   UNL     1     -10.602   6.301  69.683  1.00  0.00    -0.264 C  
HETATM   11  H   UNL     1      -8.955   7.433  69.133  1.00  0.00     0.000 HD 
HETATM   12  O   UNL     1     -11.610   6.135  70.349  1.00  0.00    -0.343 OA 
BRANCH  10  13
HETATM   13  O   UNL     1     -10.174   5.451  68.711  1.00  0.00    -0.178 OA 
BRANCH  13  14
HETATM   14  C   UNL     1      -9.301   4.401  69.164  1.00  0.00    -0.155 C  
HETATM   15  C   UNL     1      -9.487   3.091  68.433  1.00  0.00    -0.211 C  
HETATM   16  O   UNL     1      -7.168   3.527  68.509  1.00  0.00    -0.050 OA 
HETATM   17  C   UNL     1      -8.120   2.458  68.518  1.00  0.00    -0.056 C  
HETATM   18  C   UNL     1      -7.851   4.745  68.840  1.00  0.00    -0.076 C  
ENDBRANCH  13  14
ENDBRANCH  10  13
ENDBRANCH   8   9
BRANCH   8  19
HETATM   19  C   UNL     1      -8.644   8.654  71.600  1.00  0.00    -0.254 C  
BRANCH  19  20
HETATM   20  C   UNL     1      -8.254   7.613  72.615  1.00  0.00    -0.153 A  
HETATM   21  C   UNL     1      -6.658   6.006  73.483  1.00  0.00    -0.074 A  
HETATM   22  C   UNL     1      -8.911   6.057  74.351  1.00  0.00    -0.134 A  
HETATM   23  C   UNL     1      -9.219   7.113  73.496  1.00  0.00    -0.220 A  
HETATM   24  C   UNL     1      -6.967   7.057  72.620  1.00  0.00    -0.069 A  
HETATM   25  C   UNL     1      -7.633   5.502  74.343  1.00  0.00    -0.095 A  
ENDBRANCH  19  20
ENDBRANCH   8  19
ENDBRANCH   7   8
BRANCH   7  26
HETATM   26  O   UNL     1     -12.159   9.606  70.049  1.00  0.00    -0.001 OA 
HETATM   27  O   UNL     1     -13.952   9.201  72.764  1.00  0.00    -0.450 OA 
HETATM   28  O   UNL     1     -13.213  11.018  71.548  1.00  0.00    -0.388 OA 
HETATM   29  O   UNL     1     -11.806   9.218  72.432  1.00  0.00    -0.194 OA 
HETATM   30  P   UNL     1     -13.105   9.393  71.482  1.00  0.00    -0.373 P  
ENDBRANCH   7  26
ENDBRANCH   6   7
ENDBRANCH   5   6
BRANCH   5  31
HETATM   31  S   UNL     1      -8.459  12.280  68.005  1.00  0.00    -0.178 S  
HETATM   32  O   UNL     1      -8.502  12.025  66.580  1.00  0.00    -0.180 OA 
HETATM   33  O   UNL     1      -7.390  11.684  68.780  1.00  0.00    -0.108 OA 
BRANCH  31  34
HETATM   34  C   UNL     1      -8.274  14.018  68.163  1.00  0.00    -0.155 A  
HETATM   35  N   UNL     1      -7.670  18.154  68.290  1.00  0.00    -0.274 NA 
HETATM   36  C   UNL     1      -7.607  14.573  69.255  1.00  0.00    -0.073 A  
HETATM   37  H1  UNL     1      -8.025  18.751  67.542  1.00  0.00     0.000 HD 
HETATM   38  H2  UNL     1      -6.665  18.310  68.372  1.00  0.00     0.000 HD 
HETATM   39  C   UNL     1      -8.609  14.810  67.063  1.00  0.00    -0.260 A  
HETATM   40  C   UNL     1      -8.418  16.182  67.116  1.00  0.00    -0.218 A  
HETATM   41  C   UNL     1      -7.412  15.955  69.294  1.00  0.00    -0.219 A  
HETATM   42  C   UNL     1      -7.900  16.775  68.268  1.00  0.00    -0.194 A  
ENDBRANCH  31  34
ENDBRANCH   5  31
ENDBRANCH   4   5
TORSDOF 12
ENDMDL
MODEL      259
REMARK 921   NORMALIZED FREE ENERGY PREDICTED BY IDOCK:   -3.93 KCAL/MOL
REMARK 922        TOTAL FREE ENERGY PREDICTED BY IDOCK:   -9.49 KCAL/MOL
REMARK 923 INTER-LIGAND FREE ENERGY PREDICTED BY IDOCK:   -7.68 KCAL/MOL
REMARK 924 INTRA-LIGAND FREE ENERGY PREDICTED BY IDOCK:   -1.81 KCAL/MOL
REMARK 927      BINDING AFFINITY PREDICTED BY RF-SCORE:    0.00 PKD
ROOT
HETATM    1  C   UNL     1      -7.854   6.521  62.874  1.00  0.00    -0.099 C  
HETATM    2  C   UNL     1      -7.265   6.707  64.263  1.00  0.00    -0.070 C  
HETATM    3  C   UNL     1      -5.773   7.049  64.266  1.00  0.00    -0.033 C  
HETATM    4  C   UNL     1      -7.990   7.461  65.383  1.00  0.00    -0.125 C  
ENDROOT
BRANCH   4   5
HETATM    5  N   UNL     1      -8.904   8.635  65.267  1.00  0.00    -0.170 N  
BRANCH   5   6
HETATM    6  C   UNL     1      -9.489   8.882  66.690  1.00  0.00    -0.202 C  
BRANCH   6   7
HETATM    7  C   UNL     1      -8.710   8.198  67.904  1.00  0.00    -0.128 C  
BRANCH   7   8
HETATM    8  C   UNL     1      -9.392   6.802  68.321  1.00  0.00    -0.124 C  
BRANCH   8   9
HETATM    9  N   UNL     1      -8.631   6.081  69.356  1.00  0.00    -0.121 N  
HETATM   10  C   UNL     1      -8.113   4.833  69.117  1.00  0.00    -0.074 C  
HETATM   11  H   UNL     1      -8.486   6.517  70.267  1.00  0.00     0.000 HD 
HETATM   12  O   UNL     1      -8.164   4.229  68.059  1.00  0.00    -0.092 OA 
BRANCH  10  13
HETATM   13  O   UNL     1      -7.504   4.366  70.241  1.00  0.00    -0.048 OA 
BRANCH  13  14
HETATM   14  C   UNL     1      -8.109   3.192  70.814  1.00  0.00    -0.053 C  
HETATM   15  C   UNL     1      -7.792   2.995  72.279  1.00  0.00    -0.055 C  
HETATM   16  O   UNL     1     -10.120   2.702  72.021  1.00  0.00    -0.165 OA 
HETATM   17  C   UNL     1      -9.001   2.250  72.790  1.00  0.00    -0.070 C  
HETATM   18  C   UNL     1      -9.626   3.337  70.832  1.00  0.00    -0.164 C  
ENDBRANCH  13  14
ENDBRANCH  10  13
ENDBRANCH   8   9
BRANCH   8  19
HETATM   19  C   UNL     1     -10.902   6.817  68.656  1.00  0.00    -0.277 C  
BRANCH  19  20
HETATM   20  C   UNL     1     -11.309   7.267  70.034  1.00  0.00    -0.195 A  
HETATM   21  C   UNL     1     -11.525   9.009  71.708  1.00  0.00    -0.442 A  
HETATM   22  C   UNL     1     -11.880   6.699  72.319  1.00  0.00    -0.289 A  
HETATM   23  C   UNL     1     -11.630   6.311  71.004  1.00  0.00    -0.337 A  
HETATM   24  C   UNL     1     -11.266   8.621  70.393  1.00  0.00    -0.236 A  
HETATM   25  C   UNL     1     -11.825   8.046  72.671  1.00  0.00    -0.380 A  
ENDBRANCH  19  20
ENDBRANCH   8  19
ENDBRANCH   7   8
BRANCH   7  26
HETATM   26  O   UNL     1      -8.427   9.145  68.999  1.00  0.00    -0.127 OA 
HETATM   27  O   UNL     1      -5.297   9.543  69.892  1.00  0.00    -0.032 OA 
HETATM   28  O   UNL     1      -6.710  10.567  68.382  1.00  0.00    -0.059 OA 
HETATM   29  O   UNL     1      -6.246   8.165  68.507  1.00  0.00    -0.046 OA 
HETATM   30  P   UNL     1      -6.775   9.355  69.470  1.00  0.00    -0.054 P  
ENDBRANCH   7  26
ENDBRANCH   6   7
ENDBRANCH   5   6
BRANCH   5  31
HETATM   31  S   UNL     1      -8.584  10.127  64.497  1.00  0.00    -0.202 S  
HETATM   32  O   UNL     1      -8.522   9.921  63.065  1.00  0.00    -0.146 OA 
HETATM   33  O   UNL     1      -7.443  10.730  65.157  1.00  0.00    -0.021 OA 
BRANCH  31  34
HETATM   34  C   UNL     1      -9.936  11.215  64.754  1.00  0.00    -0.287 A  
HETATM   35  N   UNL     1     -13.100  13.928  65.102  1.00  0.00    -0.764 NA 
HETATM   36  C   UNL     1      -9.928  12.134  65.803  1.00  0.00    -0.271 A  
HETATM   37  H1  UNL     1     -13.876  13.903  64.441  1.00  0.00     0.000 HD 
HETATM   38  H2  UNL     1     -12.696  14.865  65.084  1.00  0.00     0.000 HD 
HETATM   39  C   UNL     1     -10.908  11.290  63.755  1.00  0.00    -0.424 A  
HETATM   40  C   UNL     1     -11.961  12.183  63.882  1.00  0.00    -0.581 A  
HETATM   41  C   UNL     1     -10.990  13.035  65.916  1.00  0.00    -0.292 A  
HETATM   42  C   UNL     1     -12.057  13.000  65.009  1.00  0.00    -0.427 A  
ENDBRANCH  31  34
ENDBRANCH   5  31
ENDBRANCH   4   5
TORSDOF 12
ENDMDL
MODEL      260
REMARK 921   NORMALIZED FREE ENERGY PREDICTED BY IDOCK:   -3.91 KCAL/MOL
REMARK 922        TOTAL FREE ENERGY PREDICTED BY IDOCK:   -9.45 KCAL/MOL
REMARK 923 INTER-LIGAND FREE ENERGY PREDICTED BY IDOCK:   -8.53 KCAL/MOL
REMARK 924 INTRA-LIGAND FREE ENERGY PREDICTED BY IDOCK:   -0.92 KCAL/MOL
REMARK 927      BINDING AFFINITY PREDICTED BY RF-SCORE:    0.00 PKD
ROOT
HETATM    1  C   UNL     1     -11.994   7.237  70.962  1.00  0.00    -0.362 C  
HETATM    2  C   UNL     1     -11.146   7.961  71.995  1.00  0.00    -0.332 C  
HETATM    3  C   UNL     1     -10.923   7.167  73.285  1.00  0.00    -0.325 C  
HETATM    4  C   UNL     1      -9.888   8.758  71.633  1.00  0.00    -0.308 C  
ENDROOT
BRANCH   4   5
HETATM    5  N   UNL     1      -8.900   8.486  70.549  1.00  0.00    -0.145 N  
BRANCH   5   6
HETATM    6  C   UNL     1      -8.529   9.867  69.930  1.00  0.00    -0.191 C  
BRANCH   6   7
HETATM    7  C   UNL     1      -8.909  10.078  68.394  1.00  0.00    -0.117 C  
BRANCH   7   8
HETATM    8  C   UNL     1     -10.332   9.412  68.049  1.00  0.00    -0.220 C  
BRANCH   8   9
HETATM    9  N   UNL     1     -11.464  10.138  68.653  1.00  0.00    -0.505 N  
HETATM   10  C   UNL     1     -11.380  11.477  68.937  1.00  0.00    -0.268 C  
HETATM   11  H   UNL     1     -12.326   9.634  68.864  1.00  0.00     0.000 HD 
HETATM   12  O   UNL     1     -10.433  12.203  68.682  1.00  0.00    -0.228 OA 
BRANCH  10  13
HETATM   13  O   UNL     1     -12.529  11.894  69.533  1.00  0.00    -0.080 OA 
BRANCH  13  14
HETATM   14  C   UNL     1     -12.349  12.583  70.783  1.00  0.00    -0.286 C  
HETATM   15  C   UNL     1     -12.640  14.065  70.713  1.00  0.00    -0.431 C  
HETATM   16  O   UNL     1     -13.751  13.223  72.619  1.00  0.00    -0.674 OA 
HETATM   17  C   UNL     1     -13.090  14.389  72.116  1.00  0.00    -0.366 C  
HETATM   18  C   UNL     1     -13.377  12.103  71.802  1.00  0.00    -0.242 C  
ENDBRANCH  13  14
ENDBRANCH  10  13
ENDBRANCH   8   9
BRANCH   8  19
HETATM   19  C   UNL     1     -10.622   9.073  66.568  1.00  0.00    -0.076 C  
BRANCH  19  20
HETATM   20  C   UNL     1     -10.361  10.142  65.540  1.00  0.00    -0.196 A  
HETATM   21  C   UNL     1     -10.916  12.273  64.524  1.00  0.00    -0.358 A  
HETATM   22  C   UNL     1      -9.315  10.811  63.460  1.00  0.00    -0.304 A  
HETATM   23  C   UNL     1      -9.470   9.888  64.492  1.00  0.00    -0.328 A  
HETATM   24  C   UNL     1     -11.079  11.346  65.554  1.00  0.00    -0.203 A  
HETATM   25  C   UNL     1     -10.040  12.001  63.474  1.00  0.00    -0.448 A  
ENDBRANCH  19  20
ENDBRANCH   8  19
ENDBRANCH   7   8
BRANCH   7  26
HETATM   26  O   UNL     1      -7.793   9.753  67.485  1.00  0.00    -0.095 OA 
HETATM   27  O   UNL     1      -5.829  12.206  66.552  1.00  0.00    -0.212 OA 
HETATM   28  O   UNL     1      -5.833  10.684  68.287  1.00  0.00    -0.046 OA 
HETATM   29  O   UNL     1      -7.678  12.182  67.691  1.00  0.00    -0.127 OA 
HETATM   30  P   UNL     1      -6.757  11.047  66.993  1.00  0.00    -0.128 P  
ENDBRANCH   7  26
ENDBRANCH   6   7
ENDBRANCH   5   6
BRANCH   5  31
HETATM   31  S   UNL     1      -7.514   7.491  70.636  1.00  0.00    -0.078 S  
HETATM   32  O   UNL     1      -6.896   7.644  71.936  1.00  0.00    -0.059 OA 
HETATM   33  O   UNL     1      -6.711   7.746  69.456  1.00  0.00    -0.041 OA 
BRANCH  31  34
HETATM   34  C   UNL     1      -8.001   5.807  70.546  1.00  0.00    -0.105 A  
HETATM   35  N   UNL     1      -8.927   1.747  70.160  1.00  0.00    -0.071 NA 
HETATM   36  C   UNL     1      -9.214   5.441  69.963  1.00  0.00    -0.175 A  
HETATM   37  H1  UNL     1      -8.284   1.036  70.507  1.00  0.00     0.000 HD 
HETATM   38  H2  UNL     1      -9.095   1.569  69.169  1.00  0.00     0.000 HD 
HETATM   39  C   UNL     1      -7.049   4.837  70.866  1.00  0.00    -0.041 A  
HETATM   40  C   UNL     1      -7.366   3.493  70.748  1.00  0.00    -0.037 A  
HETATM   41  C   UNL     1      -9.519   4.084  69.841  1.00  0.00    -0.265 A  
HETATM   42  C   UNL     1      -8.636   3.106  70.318  1.00  0.00    -0.060 A  
ENDBRANCH  31  34
ENDBRANCH   5  31
ENDBRANCH   4   5
TORSDOF 12
ENDMDL
MODEL      261
REMARK 921   NORMALIZED FREE ENERGY PREDICTED BY IDOCK:   -3.90 KCAL/MOL
REMARK 922        TOTAL FREE ENERGY PREDICTED BY IDOCK:   -9.44 KCAL/MOL
REMARK 923 INTER-LIGAND FREE ENERGY PREDICTED BY IDOCK:   -7.42 KCAL/MOL
REMARK 924 INTRA-LIGAND FREE ENERGY PREDICTED BY IDOCK:   -2.02 KCAL/MOL
REMARK 927      BINDING AFFINITY PREDICTED BY RF-SCORE:    0.00 PKD
ROOT
HETATM    1  C   UNL     1      -6.154  12.525  67.882  1.00  0.00    -0.101 C  
HETATM    2  C   UNL     1      -7.481  13.179  68.233  1.00  0.00    -0.129 C  
HETATM    3  C   UNL     1      -7.818  14.403  67.379  1.00  0.00    -0.211 C  
HETATM    4  C   UNL     1      -8.749  12.377  68.544  1.00  0.00    -0.060 C  
ENDROOT
BRANCH   4   5
HETATM    5  N   UNL     1      -9.184  11.070  67.968  1.00  0.00    -0.154 N  
BRANCH   5   6
HETATM    6  C   UNL     1      -8.884   9.988  69.049  1.00  0.00    -0.159 C  
BRANCH   6   7
HETATM    7  C   UNL     1      -8.361   8.579  68.512  1.00  0.00    -0.123 C  
BRANCH   7   8
HETATM    8  C   UNL     1      -8.671   7.404  69.565  1.00  0.00    -0.137 C  
BRANCH   8   9
HETATM    9  N   UNL     1      -8.424   6.060  69.012  1.00  0.00    -0.116 N  
HETATM   10  C   UNL     1      -9.426   5.347  68.405  1.00  0.00    -0.123 C  
HETATM   11  H   UNL     1      -7.491   5.653  69.082  1.00  0.00     0.000 HD 
HETATM   12  O   UNL     1     -10.563   5.740  68.205  1.00  0.00    -0.218 OA 
BRANCH  10  13
HETATM   13  O   UNL     1      -8.958   4.125  68.030  1.00  0.00    -0.107 OA 
BRANCH  13  14
HETATM   14  C   UNL     1      -7.524   4.000  68.025  1.00  0.00    -0.067 C  
HETATM   15  C   UNL     1      -7.016   2.758  68.721  1.00  0.00    -0.044 C  
HETATM   16  O   UNL     1      -5.892   2.910  66.649  1.00  0.00    -0.021 OA 
HETATM   17  C   UNL     1      -5.720   2.474  68.002  1.00  0.00    -0.019 C  
HETATM   18  C   UNL     1      -7.018   3.799  66.601  1.00  0.00    -0.059 C  
ENDBRANCH  13  14
ENDBRANCH  10  13
ENDBRANCH   8   9
BRANCH   8  19
HETATM   19  C   UNL     1      -8.064   7.536  70.982  1.00  0.00    -0.100 C  
BRANCH  19  20
HETATM   20  C   UNL     1      -8.828   6.936  72.131  1.00  0.00    -0.136 A  
HETATM   21  C   UNL     1      -9.424   6.903  74.483  1.00  0.00    -0.222 A  
HETATM   22  C   UNL     1     -10.069   5.069  73.050  1.00  0.00    -0.202 A  
HETATM   23  C   UNL     1      -9.470   5.704  71.963  1.00  0.00    -0.169 A  
HETATM   24  C   UNL     1      -8.816   7.536  73.398  1.00  0.00    -0.241 A  
HETATM   25  C   UNL     1     -10.044   5.666  74.308  1.00  0.00    -0.276 A  
ENDBRANCH  19  20
ENDBRANCH   8  19
ENDBRANCH   7   8
BRANCH   7  26
HETATM   26  O   UNL     1      -6.983   8.648  67.990  1.00  0.00    -0.072 OA 
HETATM   27  O   UNL     1      -6.447   7.512  64.962  1.00  0.00    -0.038 OA 
HETATM   28  O   UNL     1      -6.995   9.564  65.866  1.00  0.00    -0.087 OA 
HETATM   29  O   UNL     1      -8.203   7.465  66.238  1.00  0.00    -0.114 OA 
HETATM   30  P   UNL     1      -6.701   8.049  66.392  1.00  0.00    -0.059 P  
ENDBRANCH   7  26
ENDBRANCH   6   7
ENDBRANCH   5   6
BRANCH   5  31
HETATM   31  S   UNL     1     -10.661  10.723  67.183  1.00  0.00    -0.267 S  
HETATM   32  O   UNL     1     -11.725  10.680  68.164  1.00  0.00    -0.474 OA 
HETATM   33  O   UNL     1     -10.453   9.563  66.340  1.00  0.00    -0.199 OA 
BRANCH  31  34
HETATM   34  C   UNL     1     -11.072  12.048  66.107  1.00  0.00    -0.322 A  
HETATM   35  N   UNL     1     -12.315  15.073  63.501  1.00  0.00    -0.818 NA 
HETATM   36  C   UNL     1     -10.351  12.270  64.935  1.00  0.00    -0.319 A  
HETATM   37  H1  UNL     1     -13.121  15.654  63.731  1.00  0.00     0.000 HD 
HETATM   38  H2  UNL     1     -12.484  14.638  62.593  1.00  0.00     0.000 HD 
HETATM   39  C   UNL     1     -12.270  12.726  66.341  1.00  0.00    -0.242 A  
HETATM   40  C   UNL     1     -12.671  13.736  65.480  1.00  0.00    -0.530 A  
HETATM   41  C   UNL     1     -10.769  13.284  64.070  1.00  0.00    -0.254 A  
HETATM   42  C   UNL     1     -11.876  14.083  64.386  1.00  0.00    -0.431 A  
ENDBRANCH  31  34
ENDBRANCH   5  31
ENDBRANCH   4   5
TORSDOF 12
ENDMDL
MODEL      262
REMARK 921   NORMALIZED FREE ENERGY PREDICTED BY IDOCK:   -3.90 KCAL/MOL
REMARK 922        TOTAL FREE ENERGY PREDICTED BY IDOCK:   -9.43 KCAL/MOL
REMARK 923 INTER-LIGAND FREE ENERGY PREDICTED BY IDOCK:   -7.79 KCAL/MOL
REMARK 924 INTRA-LIGAND FREE ENERGY PREDICTED BY IDOCK:   -1.64 KCAL/MOL
REMARK 927      BINDING AFFINITY PREDICTED BY RF-SCORE:    0.00 PKD
ROOT
HETATM    1  C   UNL     1      -9.107  14.034  68.327  1.00  0.00    -0.191 C  
HETATM    2  C   UNL     1      -7.961  13.226  67.740  1.00  0.00    -0.166 C  
HETATM    3  C   UNL     1      -6.628  13.417  68.467  1.00  0.00    -0.089 C  
HETATM    4  C   UNL     1      -8.115  11.774  67.276  1.00  0.00    -0.164 C  
ENDROOT
BRANCH   4   5
HETATM    5  N   UNL     1      -8.994  10.709  67.843  1.00  0.00    -0.136 N  
BRANCH   5   6
HETATM    6  C   UNL     1      -8.519  10.476  69.308  1.00  0.00    -0.129 C  
BRANCH   6   7
HETATM    7  C   UNL     1      -8.438   8.957  69.792  1.00  0.00    -0.131 C  
BRANCH   7   8
HETATM    8  C   UNL     1      -7.445   8.101  68.861  1.00  0.00    -0.089 C  
BRANCH   8   9
HETATM    9  N   UNL     1      -6.316   7.521  69.611  1.00  0.00    -0.031 N  
HETATM   10  C   UNL     1      -6.492   6.438  70.434  1.00  0.00    -0.044 C  
HETATM   11  H   UNL     1      -5.388   7.933  69.516  1.00  0.00     0.000 HD 
HETATM   12  O   UNL     1      -7.532   5.821  70.590  1.00  0.00    -0.081 OA 
BRANCH  10  13
HETATM   13  O   UNL     1      -5.316   6.131  71.047  1.00  0.00    -0.017 OA 
BRANCH  13  14
HETATM   14  C   UNL     1      -5.182   6.634  72.389  1.00  0.00    -0.032 C  
HETATM   15  C   UNL     1      -5.180   8.143  72.479  1.00  0.00    -0.036 C  
HETATM   16  O   UNL     1      -6.676   7.345  74.123  1.00  0.00    -0.082 OA 
HETATM   17  C   UNL     1      -5.747   8.400  73.854  1.00  0.00    -0.098 C  
HETATM   18  C   UNL     1      -6.410   6.266  73.214  1.00  0.00    -0.064 C  
ENDBRANCH  13  14
ENDBRANCH  10  13
ENDBRANCH   8   9
BRANCH   8  19
HETATM   19  C   UNL     1      -8.077   7.051  67.918  1.00  0.00    -0.115 C  
BRANCH  19  20
HETATM   20  C   UNL     1      -7.925   7.260  66.435  1.00  0.00    -0.112 A  
HETATM   21  C   UNL     1      -7.691   8.735  64.524  1.00  0.00    -0.121 A  
HETATM   22  C   UNL     1      -8.109   6.381  64.185  1.00  0.00    -0.052 A  
HETATM   23  C   UNL     1      -8.115   6.181  65.564  1.00  0.00    -0.131 A  
HETATM   24  C   UNL     1      -7.705   8.539  65.905  1.00  0.00    -0.097 A  
HETATM   25  C   UNL     1      -7.901   7.657  63.665  1.00  0.00    -0.120 A  
ENDBRANCH  19  20
ENDBRANCH   8  19
ENDBRANCH   7   8
BRANCH   7  26
HETATM   26  O   UNL     1      -9.769   8.372  70.045  1.00  0.00    -0.174 OA 
HETATM   27  O   UNL     1     -10.718   8.050  73.167  1.00  0.00    -0.332 OA 
HETATM   28  O   UNL     1     -10.929   9.688  71.554  1.00  0.00    -0.348 OA 
HETATM   29  O   UNL     1      -8.830   8.653  72.280  1.00  0.00    -0.295 OA 
HETATM   30  P   UNL     1     -10.270   8.203  71.693  1.00  0.00    -0.243 P  
ENDBRANCH   7  26
ENDBRANCH   6   7
ENDBRANCH   5   6
BRANCH   5  31
HETATM   31  S   UNL     1     -10.698  10.615  67.755  1.00  0.00    -0.278 S  
HETATM   32  O   UNL     1     -11.271  11.240  68.929  1.00  0.00    -0.209 OA 
HETATM   33  O   UNL     1     -11.051   9.240  67.463  1.00  0.00    -0.101 OA 
BRANCH  31  34
HETATM   34  C   UNL     1     -11.263  11.570  66.395  1.00  0.00    -0.243 A  
HETATM   35  N   UNL     1     -12.324  13.894  63.085  1.00  0.00    -1.106 NA 
HETATM   36  C   UNL     1     -12.005  12.733  66.594  1.00  0.00    -0.411 A  
HETATM   37  H1  UNL     1     -12.062  13.602  62.143  1.00  0.00     0.000 HD 
HETATM   38  H2  UNL     1     -11.953  14.832  63.243  1.00  0.00     0.000 HD 
HETATM   39  C   UNL     1     -10.759  11.260  65.130  1.00  0.00    -0.312 A  
HETATM   40  C   UNL     1     -11.125  12.026  64.035  1.00  0.00    -0.452 A  
HETATM   41  C   UNL     1     -12.360  13.503  65.484  1.00  0.00    -0.524 A  
HETATM   42  C   UNL     1     -12.000  13.102  64.191  1.00  0.00    -0.436 A  
ENDBRANCH  31  34
ENDBRANCH   5  31
ENDBRANCH   4   5
TORSDOF 12
ENDMDL
MODEL      263
REMARK 921   NORMALIZED FREE ENERGY PREDICTED BY IDOCK:   -3.86 KCAL/MOL
REMARK 922        TOTAL FREE ENERGY PREDICTED BY IDOCK:   -9.37 KCAL/MOL
REMARK 923 INTER-LIGAND FREE ENERGY PREDICTED BY IDOCK:   -7.48 KCAL/MOL
REMARK 924 INTRA-LIGAND FREE ENERGY PREDICTED BY IDOCK:   -1.89 KCAL/MOL
REMARK 927      BINDING AFFINITY PREDICTED BY RF-SCORE:    0.00 PKD
ROOT
HETATM    1  C   UNL     1      -7.933   6.533  64.402  1.00  0.00    -0.103 C  
HETATM    2  C   UNL     1      -7.280   7.077  65.662  1.00  0.00    -0.073 C  
HETATM    3  C   UNL     1      -5.919   7.736  65.423  1.00  0.00    -0.038 C  
HETATM    4  C   UNL     1      -8.057   7.831  66.747  1.00  0.00    -0.115 C  
ENDROOT
BRANCH   4   5
HETATM    5  N   UNL     1      -9.232   8.737  66.584  1.00  0.00    -0.165 N  
BRANCH   5   6
HETATM    6  C   UNL     1      -9.868   8.895  67.997  1.00  0.00    -0.168 C  
BRANCH   6   7
HETATM    7  C   UNL     1      -8.984   8.400  69.230  1.00  0.00    -0.150 C  
BRANCH   7   8
HETATM    8  C   UNL     1      -9.634   7.107  69.931  1.00  0.00    -0.163 C  
BRANCH   8   9
HETATM    9  N   UNL     1      -9.178   6.920  71.321  1.00  0.00    -0.157 N  
HETATM   10  C   UNL     1      -8.473   5.803  71.692  1.00  0.00    -0.128 C  
HETATM   11  H   UNL     1      -9.391   7.633  72.018  1.00  0.00     0.000 HD 
HETATM   12  O   UNL     1      -8.105   4.910  70.948  1.00  0.00    -0.090 OA 
BRANCH  10  13
HETATM   13  O   UNL     1      -8.218   5.845  73.028  1.00  0.00    -0.117 OA 
BRANCH  13  14
HETATM   14  C   UNL     1      -9.071   5.012  73.834  1.00  0.00    -0.112 C  
HETATM   15  C   UNL     1     -10.547   5.249  73.608  1.00  0.00    -0.322 C  
HETATM   16  O   UNL     1     -10.195   2.914  73.559  1.00  0.00    -0.104 OA 
HETATM   17  C   UNL     1     -11.158   3.906  73.930  1.00  0.00    -0.158 C  
HETATM   18  C   UNL     1      -8.915   3.550  73.430  1.00  0.00    -0.094 C  
ENDBRANCH  13  14
ENDBRANCH  10  13
ENDBRANCH   8   9
BRANCH   8  19
HETATM   19  C   UNL     1     -11.168   6.933  69.826  1.00  0.00    -0.315 C  
BRANCH  19  20
HETATM   20  C   UNL     1     -12.026   7.666  70.823  1.00  0.00    -0.192 A  
HETATM   21  C   UNL     1     -13.973   7.758  72.267  1.00  0.00    -0.114 A  
HETATM   22  C   UNL     1     -12.672   9.754  71.868  1.00  0.00    -0.501 A  
HETATM   23  C   UNL     1     -11.806   9.029  71.052  1.00  0.00    -0.339 A  
HETATM   24  C   UNL     1     -13.112   7.033  71.442  1.00  0.00    -0.375 A  
HETATM   25  C   UNL     1     -13.756   9.120  72.472  1.00  0.00    -0.499 A  
ENDBRANCH  19  20
ENDBRANCH   8  19
ENDBRANCH   7   8
BRANCH   7  26
HETATM   26  O   UNL     1      -8.592   9.506  70.125  1.00  0.00    -0.189 OA 
HETATM   27  O   UNL     1      -5.446   9.684  71.031  1.00  0.00    -0.047 OA 
HETATM   28  O   UNL     1      -6.701  10.550  69.298  1.00  0.00    -0.054 OA 
HETATM   29  O   UNL     1      -6.551   8.184  69.916  1.00  0.00    -0.038 OA 
HETATM   30  P   UNL     1      -6.932   9.600  70.603  1.00  0.00    -0.023 P  
ENDBRANCH   7  26
ENDBRANCH   6   7
ENDBRANCH   5   6
BRANCH   5  31
HETATM   31  S   UNL     1      -9.284  10.225  65.746  1.00  0.00    -0.188 S  
HETATM   32  O   UNL     1     -10.222  10.122  64.647  1.00  0.00    -0.279 OA 
HETATM   33  O   UNL     1      -7.920  10.617  65.453  1.00  0.00    -0.148 OA 
BRANCH  31  34
HETATM   34  C   UNL     1      -9.939  11.464  66.803  1.00  0.00    -0.208 A  
HETATM   35  N   UNL     1     -11.626  14.537  69.083  1.00  0.00    -0.280 NA 
HETATM   36  C   UNL     1      -9.097  12.334  67.495  1.00  0.00    -0.182 A  
HETATM   37  H1  UNL     1     -12.639  14.634  69.149  1.00  0.00     0.000 HD 
HETATM   38  H2  UNL     1     -11.243  15.416  68.735  1.00  0.00     0.000 HD 
HETATM   39  C   UNL     1     -11.314  11.698  66.755  1.00  0.00    -0.354 A  
HETATM   40  C   UNL     1     -11.869  12.711  67.523  1.00  0.00    -0.396 A  
HETATM   41  C   UNL     1      -9.667  13.356  68.258  1.00  0.00    -0.226 A  
HETATM   42  C   UNL     1     -11.058  13.490  68.349  1.00  0.00    -0.271 A  
ENDBRANCH  31  34
ENDBRANCH   5  31
ENDBRANCH   4   5
TORSDOF 12
ENDMDL
MODEL      264
REMARK 921   NORMALIZED FREE ENERGY PREDICTED BY IDOCK:   -3.80 KCAL/MOL
REMARK 922        TOTAL FREE ENERGY PREDICTED BY IDOCK:   -9.27 KCAL/MOL
REMARK 923 INTER-LIGAND FREE ENERGY PREDICTED BY IDOCK:   -8.86 KCAL/MOL
REMARK 924 INTRA-LIGAND FREE ENERGY PREDICTED BY IDOCK:   -0.41 KCAL/MOL
REMARK 927      BINDING AFFINITY PREDICTED BY RF-SCORE:    0.00 PKD
ROOT
HETATM    1  C   UNL     1     -12.796  12.360  64.351  1.00  0.00    -0.344 C  
HETATM    2  C   UNL     1     -11.690  13.383  64.151  1.00  0.00    -0.466 C  
HETATM    3  C   UNL     1     -12.192  14.779  63.775  1.00  0.00     0.165 C  
HETATM    4  C   UNL     1     -10.469  13.484  65.073  1.00  0.00    -0.376 C  
ENDROOT
BRANCH   4   5
HETATM    5  N   UNL     1     -10.392  13.218  66.539  1.00  0.00    -0.280 N  
BRANCH   5   6
HETATM    6  C   UNL     1     -11.363  14.225  67.224  1.00  0.00    -0.334 C  
BRANCH   6   7
HETATM    7  C   UNL     1     -10.761  15.662  67.572  1.00  0.00    -0.303 C  
BRANCH   7   8
HETATM    8  C   UNL     1     -10.496  15.816  69.151  1.00  0.00    -0.240 C  
BRANCH   8   9
HETATM    9  N   UNL     1     -11.739  15.790  69.944  1.00  0.00    -0.351 N  
HETATM   10  C   UNL     1     -12.346  14.605  70.274  1.00  0.00    -0.349 C  
HETATM   11  H   UNL     1     -12.153  16.669  70.254  1.00  0.00     0.000 HD 
HETATM   12  O   UNL     1     -11.924  13.490  70.017  1.00  0.00    -0.316 OA 
BRANCH  10  13
HETATM   13  O   UNL     1     -13.496  14.853  70.958  1.00  0.00    -0.387 OA 
BRANCH  13  14
HETATM   14  C   UNL     1     -13.380  14.767  72.390  1.00  0.00    -0.408 C  
HETATM   15  C   UNL     1     -11.967  14.928  72.900  1.00  0.00    -0.328 C  
HETATM   16  O   UNL     1     -13.349  16.320  74.215  1.00  0.00    -0.385 OA 
HETATM   17  C   UNL     1     -12.168  15.513  74.277  1.00  0.00    -0.618 C  
HETATM   18  C   UNL     1     -14.094  15.943  73.047  1.00  0.00    -0.095 C  
ENDBRANCH  13  14
ENDBRANCH  10  13
ENDBRANCH   8   9
BRANCH   8  19
HETATM   19  C   UNL     1      -9.418  14.907  69.786  1.00  0.00     0.146 C  
BRANCH  19  20
HETATM   20  C   UNL     1      -8.031  14.952  69.203  1.00  0.00    -0.165 A  
HETATM   21  C   UNL     1      -5.910  16.086  68.885  1.00  0.00    -0.113 A  
HETATM   22  C   UNL     1      -6.429  14.114  67.590  1.00  0.00    -0.153 A  
HETATM   23  C   UNL     1      -7.658  14.010  68.238  1.00  0.00    -0.135 A  
HETATM   24  C   UNL     1      -7.145  15.988  69.528  1.00  0.00    -0.181 A  
HETATM   25  C   UNL     1      -5.557  15.153  67.911  1.00  0.00    -0.140 A  
ENDBRANCH  19  20
ENDBRANCH   8  19
ENDBRANCH   7   8
BRANCH   7  26
HETATM   26  O   UNL     1     -11.501  16.759  66.920  1.00  0.00     0.435 OA 
HETATM   27  O   UNL     1      -9.752  19.204  65.611  1.00  0.00    -0.350 OA 
HETATM   28  O   UNL     1     -10.585  17.194  64.840  1.00  0.00    -0.620 OA 
HETATM   29  O   UNL     1      -9.177  17.496  66.822  1.00  0.00    -0.249 OA 
HETATM   30  P   UNL     1     -10.578  18.049  66.229  1.00  0.00    -0.011 P  
ENDBRANCH   7  26
ENDBRANCH   6   7
ENDBRANCH   5   6
BRANCH   5  31
HETATM   31  S   UNL     1     -10.469  11.702  67.324  1.00  0.00    -0.225 S  
HETATM   32  O   UNL     1     -11.825  11.197  67.254  1.00  0.00    -0.525 OA 
HETATM   33  O   UNL     1      -9.852  11.845  68.627  1.00  0.00    -0.197 OA 
BRANCH  31  34
HETATM   34  C   UNL     1      -9.493  10.541  66.440  1.00  0.00    -0.171 A  
HETATM   35  N   UNL     1      -7.169   7.964  64.107  1.00  0.00    -0.075 NA 
HETATM   36  C   UNL     1      -9.988   9.275  66.131  1.00  0.00    -0.348 A  
HETATM   37  H1  UNL     1      -6.243   8.250  63.788  1.00  0.00     0.000 HD 
HETATM   38  H2  UNL     1      -7.725   7.713  63.290  1.00  0.00     0.000 HD 
HETATM   39  C   UNL     1      -8.305  10.996  65.864  1.00  0.00    -0.119 A  
HETATM   40  C   UNL     1      -7.533  10.133  65.102  1.00  0.00    -0.141 A  
HETATM   41  C   UNL     1      -9.206   8.417  65.355  1.00  0.00     0.023 A  
HETATM   42  C   UNL     1      -7.935   8.809  64.916  1.00  0.00    -0.135 A  
ENDBRANCH  31  34
ENDBRANCH   5  31
ENDBRANCH   4   5
TORSDOF 12
ENDMDL
MODEL      265
REMARK 921   NORMALIZED FREE ENERGY PREDICTED BY IDOCK:   -3.80 KCAL/MOL
REMARK 922        TOTAL FREE ENERGY PREDICTED BY IDOCK:   -9.26 KCAL/MOL
REMARK 923 INTER-LIGAND FREE ENERGY PREDICTED BY IDOCK:   -8.40 KCAL/MOL
REMARK 924 INTRA-LIGAND FREE ENERGY PREDICTED BY IDOCK:   -0.86 KCAL/MOL
REMARK 927      BINDING AFFINITY PREDICTED BY RF-SCORE:    0.00 PKD
ROOT
HETATM    1  C   UNL     1     -10.825  15.215  66.416  1.00  0.00    -0.326 C  
HETATM    2  C   UNL     1     -11.985  14.389  65.883  1.00  0.00    -0.367 C  
HETATM    3  C   UNL     1     -12.052  14.322  64.355  1.00  0.00    -0.490 C  
HETATM    4  C   UNL     1     -12.408  13.051  66.497  1.00  0.00    -0.105 C  
ENDROOT
BRANCH   4   5
HETATM    5  N   UNL     1     -11.548  12.011  67.134  1.00  0.00    -0.335 N  
BRANCH   5   6
HETATM    6  C   UNL     1     -10.152  12.112  66.451  1.00  0.00    -0.220 C  
BRANCH   6   7
HETATM    7  C   UNL     1      -9.149  10.897  66.710  1.00  0.00    -0.152 C  
BRANCH   7   8
HETATM    8  C   UNL     1      -7.628  11.410  66.819  1.00  0.00    -0.143 C  
BRANCH   8   9
HETATM    9  N   UNL     1      -6.850  11.155  65.593  1.00  0.00    -0.367 N  
HETATM   10  C   UNL     1      -5.844  10.223  65.572  1.00  0.00    -0.102 C  
HETATM   11  H   UNL     1      -7.064  11.681  64.746  1.00  0.00     0.000 HD 
HETATM   12  O   UNL     1      -5.529   9.490  66.494  1.00  0.00    -0.044 OA 
BRANCH  10  13
HETATM   13  O   UNL     1      -5.250  10.216  64.347  1.00  0.00    -0.080 OA 
BRANCH  13  14
HETATM   14  C   UNL     1      -5.943   9.455  63.341  1.00  0.00    -0.090 C  
HETATM   15  C   UNL     1      -6.327   8.062  63.785  1.00  0.00    -0.067 C  
HETATM   16  O   UNL     1      -8.232   9.026  62.775  1.00  0.00    -0.162 OA 
HETATM   17  C   UNL     1      -7.563   7.775  62.966  1.00  0.00    -0.126 C  
HETATM   18  C   UNL     1      -7.301  10.084  63.048  1.00  0.00    -0.133 C  
ENDBRANCH  13  14
ENDBRANCH  10  13
ENDBRANCH   8   9
BRANCH   8  19
HETATM   19  C   UNL     1      -7.396  12.852  67.329  1.00  0.00    -0.077 C  
BRANCH  19  20
HETATM   20  C   UNL     1      -6.842  13.023  68.718  1.00  0.00    -0.102 A  
HETATM   21  C   UNL     1      -6.007  14.445  70.497  1.00  0.00    -0.180 A  
HETATM   22  C   UNL     1      -5.784  12.046  70.667  1.00  0.00    -0.127 A  
HETATM   23  C   UNL     1      -6.421  11.898  69.436  1.00  0.00    -0.119 A  
HETATM   24  C   UNL     1      -6.637  14.299  69.261  1.00  0.00    -0.120 A  
HETATM   25  C   UNL     1      -5.574  13.318  71.195  1.00  0.00    -0.172 A  
ENDBRANCH  19  20
ENDBRANCH   8  19
ENDBRANCH   7   8
BRANCH   7  26
HETATM   26  O   UNL     1      -9.395   9.757  65.807  1.00  0.00    -0.186 OA 
HETATM   27  O   UNL     1      -8.944   6.740  67.010  1.00  0.00    -0.112 OA 
HETATM   28  O   UNL     1     -10.732   8.193  66.865  1.00  0.00    -0.309 OA 
HETATM   29  O   UNL     1      -8.543   8.707  67.839  1.00  0.00    -0.135 OA 
HETATM   30  P   UNL     1      -9.157   8.165  66.442  1.00  0.00    -0.190 P  
ENDBRANCH   7  26
ENDBRANCH   6   7
ENDBRANCH   5   6
BRANCH   5  31
HETATM   31  S   UNL     1     -11.364  11.699  68.804  1.00  0.00    -0.293 S  
HETATM   32  O   UNL     1      -9.992  11.321  69.071  1.00  0.00    -0.189 OA 
HETATM   33  O   UNL     1     -12.420  10.790  69.204  1.00  0.00    -0.377 OA 
BRANCH  31  34
HETATM   34  C   UNL     1     -11.623  13.183  69.704  1.00  0.00    -0.253 A  
HETATM   35  N   UNL     1     -11.959  16.699  71.944  1.00  0.00    -0.563 NA 
HETATM   36  C   UNL     1     -12.566  13.246  70.729  1.00  0.00    -0.357 A  
HETATM   37  H1  UNL     1     -11.375  17.506  71.729  1.00  0.00     0.000 HD 
HETATM   38  H2  UNL     1     -11.810  16.449  72.922  1.00  0.00     0.000 HD 
HETATM   39  C   UNL     1     -10.709  14.223  69.519  1.00  0.00    -0.095 A  
HETATM   40  C   UNL     1     -10.833  15.390  70.256  1.00  0.00    -0.332 A  
HETATM   41  C   UNL     1     -12.676  14.424  71.471  1.00  0.00    -0.417 A  
HETATM   42  C   UNL     1     -11.874  15.533  71.175  1.00  0.00    -0.387 A  
ENDBRANCH  31  34
ENDBRANCH   5  31
ENDBRANCH   4   5
TORSDOF 12
ENDMDL
MODEL      266
REMARK 921   NORMALIZED FREE ENERGY PREDICTED BY IDOCK:   -3.74 KCAL/MOL
REMARK 922        TOTAL FREE ENERGY PREDICTED BY IDOCK:   -9.17 KCAL/MOL
REMARK 923 INTER-LIGAND FREE ENERGY PREDICTED BY IDOCK:   -7.14 KCAL/MOL
REMARK 924 INTRA-LIGAND FREE ENERGY PREDICTED BY IDOCK:   -2.03 KCAL/MOL
REMARK 927      BINDING AFFINITY PREDICTED BY RF-SCORE:    0.00 PKD
ROOT
HETATM    1  C   UNL     1      -5.363  10.531  68.616  1.00  0.00    -0.041 C  
HETATM    2  C   UNL     1      -6.765  10.092  69.007  1.00  0.00    -0.054 C  
HETATM    3  C   UNL     1      -7.795  11.224  69.007  1.00  0.00    -0.079 C  
HETATM    4  C   UNL     1      -7.400   8.789  68.511  1.00  0.00    -0.085 C  
ENDROOT
BRANCH   4   5
HETATM    5  N   UNL     1      -7.213   8.110  67.195  1.00  0.00    -0.082 N  
BRANCH   5   6
HETATM    6  C   UNL     1      -7.407   6.586  67.452  1.00  0.00    -0.091 C  
BRANCH   6   7
HETATM    7  C   UNL     1      -8.357   6.190  68.673  1.00  0.00    -0.114 C  
BRANCH   7   8
HETATM    8  C   UNL     1      -9.900   6.486  68.330  1.00  0.00    -0.137 C  
BRANCH   8   9
HETATM    9  N   UNL     1     -10.312   5.932  67.028  1.00  0.00    -0.213 N  
HETATM   10  C   UNL     1     -10.261   4.584  66.780  1.00  0.00    -0.132 C  
HETATM   11  H   UNL     1     -10.642   6.564  66.297  1.00  0.00     0.000 HD 
HETATM   12  O   UNL     1      -9.944   3.722  67.582  1.00  0.00    -0.056 OA 
BRANCH  10  13
HETATM   13  O   UNL     1     -10.642   4.338  65.497  1.00  0.00    -0.221 OA 
BRANCH  13  14
HETATM   14  C   UNL     1      -9.561   4.085  64.582  1.00  0.00    -0.175 C  
HETATM   15  C   UNL     1      -8.925   2.723  64.747  1.00  0.00    -0.126 C  
HETATM   16  O   UNL     1      -9.323   3.035  62.441  1.00  0.00    -0.087 OA 
HETATM   17  C   UNL     1      -8.417   2.416  63.360  1.00  0.00    -0.085 C  
HETATM   18  C   UNL     1     -10.086   4.022  63.152  1.00  0.00    -0.132 C  
ENDBRANCH  13  14
ENDBRANCH  10  13
ENDBRANCH   8   9
BRANCH   8  19
HETATM   19  C   UNL     1     -10.948   6.166  69.422  1.00  0.00    -0.454 C  
BRANCH  19  20
HETATM   20  C   UNL     1     -11.388   7.289  70.322  1.00  0.00    -0.266 A  
HETATM   21  C   UNL     1     -12.960   8.226  71.915  1.00  0.00    -0.371 A  
HETATM   22  C   UNL     1     -11.241   9.623  70.953  1.00  0.00    -0.422 A  
HETATM   23  C   UNL     1     -10.762   8.536  70.224  1.00  0.00    -0.242 A  
HETATM   24  C   UNL     1     -12.487   7.138  71.179  1.00  0.00    -0.400 A  
HETATM   25  C   UNL     1     -12.341   9.469  71.795  1.00  0.00    -0.474 A  
ENDBRANCH  19  20
ENDBRANCH   8  19
ENDBRANCH   7   8
BRANCH   7  26
HETATM   26  O   UNL     1      -7.860   6.702  69.965  1.00  0.00    -0.106 OA 
HETATM   27  O   UNL     1      -7.205   4.512  72.315  1.00  0.00    -0.066 OA 
HETATM   28  O   UNL     1      -5.994   5.501  70.618  1.00  0.00    -0.023 OA 
HETATM   29  O   UNL     1      -8.116   4.306  70.355  1.00  0.00    -0.058 OA 
HETATM   30  P   UNL     1      -7.514   5.546  71.205  1.00  0.00    -0.090 P  
ENDBRANCH   7  26
ENDBRANCH   6   7
ENDBRANCH   5   6
BRANCH   5  31
HETATM   31  S   UNL     1      -7.905   8.546  65.695  1.00  0.00    -0.107 S  
HETATM   32  O   UNL     1      -8.647   7.420  65.166  1.00  0.00    -0.075 OA 
HETATM   33  O   UNL     1      -6.860   9.129  64.878  1.00  0.00    -0.079 OA 
BRANCH  31  34
HETATM   34  C   UNL     1      -9.095   9.810  65.951  1.00  0.00    -0.168 A  
HETATM   35  N   UNL     1     -12.141  12.624  66.494  1.00  0.00    -0.552 NA 
HETATM   36  C   UNL     1      -9.121  10.945  65.141  1.00  0.00    -0.216 A  
HETATM   37  H1  UNL     1     -12.842  12.492  67.223  1.00  0.00     0.000 HD 
HETATM   38  H2  UNL     1     -12.625  12.721  65.601  1.00  0.00     0.000 HD 
HETATM   39  C   UNL     1     -10.146   9.545  66.831  1.00  0.00    -0.295 A  
HETATM   40  C   UNL     1     -11.146  10.487  67.016  1.00  0.00    -0.183 A  
HETATM   41  C   UNL     1     -10.139  11.883  65.330  1.00  0.00    -0.290 A  
HETATM   42  C   UNL     1     -11.101  11.702  66.332  1.00  0.00    -0.291 A  
ENDBRANCH  31  34
ENDBRANCH   5  31
ENDBRANCH   4   5
TORSDOF 12
ENDMDL
MODEL      267
REMARK 921   NORMALIZED FREE ENERGY PREDICTED BY IDOCK:   -3.63 KCAL/MOL
REMARK 922        TOTAL FREE ENERGY PREDICTED BY IDOCK:   -8.98 KCAL/MOL
REMARK 923 INTER-LIGAND FREE ENERGY PREDICTED BY IDOCK:   -6.56 KCAL/MOL
REMARK 924 INTRA-LIGAND FREE ENERGY PREDICTED BY IDOCK:   -2.42 KCAL/MOL
REMARK 927      BINDING AFFINITY PREDICTED BY RF-SCORE:    0.00 PKD
ROOT
HETATM    1  C   UNL     1     -14.411   6.669  71.987  1.00  0.00    -0.160 C  
HETATM    2  C   UNL     1     -13.840   8.021  71.593  1.00  0.00    -0.444 C  
HETATM    3  C   UNL     1     -14.034   9.111  72.649  1.00  0.00    -0.367 C  
HETATM    4  C   UNL     1     -12.484   8.185  70.897  1.00  0.00     0.004 C  
ENDROOT
BRANCH   4   5
HETATM    5  N   UNL     1     -11.252   7.359  71.064  1.00  0.00    -0.258 N  
BRANCH   5   6
HETATM    6  C   UNL     1     -10.050   8.277  70.695  1.00  0.00    -0.191 C  
BRANCH   6   7
HETATM    7  C   UNL     1     -10.139   9.028  69.289  1.00  0.00    -0.195 C  
BRANCH   7   8
HETATM    8  C   UNL     1      -9.363   8.211  68.142  1.00  0.00    -0.133 C  
BRANCH   8   9
HETATM    9  N   UNL     1      -8.510   9.072  67.303  1.00  0.00    -0.114 N  
HETATM   10  C   UNL     1      -8.937   9.517  66.078  1.00  0.00    -0.163 C  
HETATM   11  H   UNL     1      -7.586   9.341  67.640  1.00  0.00     0.000 HD 
HETATM   12  O   UNL     1     -10.036   9.317  65.588  1.00  0.00    -0.277 OA 
BRANCH  10  13
HETATM   13  O   UNL     1      -7.953  10.246  65.485  1.00  0.00    -0.141 OA 
BRANCH  13  14
HETATM   14  C   UNL     1      -7.539   9.768  64.192  1.00  0.00    -0.134 C  
HETATM   15  C   UNL     1      -6.204  10.313  63.737  1.00  0.00    -0.115 C  
HETATM   16  O   UNL     1      -6.171   7.981  63.370  1.00  0.00    -0.069 OA 
HETATM   17  C   UNL     1      -5.679   9.217  62.842  1.00  0.00    -0.084 C  
HETATM   18  C   UNL     1      -7.271   8.268  64.246  1.00  0.00    -0.089 C  
ENDBRANCH  13  14
ENDBRANCH  10  13
ENDBRANCH   8   9
BRANCH   8  19
HETATM   19  C   UNL     1      -8.606   6.930  68.566  1.00  0.00    -0.123 C  
BRANCH  19  20
HETATM   20  C   UNL     1      -8.258   5.933  67.493  1.00  0.00    -0.105 A  
HETATM   21  C   UNL     1      -8.825   4.736  65.461  1.00  0.00    -0.139 A  
HETATM   22  C   UNL     1      -6.884   4.085  66.742  1.00  0.00    -0.058 A  
HETATM   23  C   UNL     1      -7.145   5.102  67.658  1.00  0.00    -0.066 A  
HETATM   24  C   UNL     1      -9.094   5.749  66.382  1.00  0.00    -0.152 A  
HETATM   25  C   UNL     1      -7.725   3.900  65.646  1.00  0.00    -0.089 A  
ENDBRANCH  19  20
ENDBRANCH   8  19
ENDBRANCH   7   8
BRANCH   7  26
HETATM   26  O   UNL     1      -9.830  10.467  69.394  1.00  0.00    -0.220 OA 
HETATM   27  O   UNL     1     -12.035  12.586  68.213  1.00  0.00    -0.328 OA 
HETATM   28  O   UNL     1     -11.651  11.598  70.264  1.00  0.00    -0.280 OA 
HETATM   29  O   UNL     1     -11.918  10.419  68.133  1.00  0.00    -0.263 OA 
HETATM   30  P   UNL     1     -10.994  11.585  68.771  1.00  0.00    -0.257 P  
ENDBRANCH   7  26
ENDBRANCH   6   7
ENDBRANCH   5   6
BRANCH   5  31
HETATM   31  S   UNL     1     -10.844   6.362  72.391  1.00  0.00    -0.248 S  
HETATM   32  O   UNL     1     -11.885   5.373  72.583  1.00  0.00    -0.247 OA 
HETATM   33  O   UNL     1     -10.499   7.225  73.503  1.00  0.00    -0.349 OA 
BRANCH  31  34
HETATM   34  C   UNL     1      -9.396   5.448  72.007  1.00  0.00    -0.144 A  
HETATM   35  N   UNL     1      -6.099   3.023  71.151  1.00  0.00    -0.017 NA 
HETATM   36  C   UNL     1      -8.236   5.590  72.767  1.00  0.00    -0.109 A  
HETATM   37  H1  UNL     1      -6.137   2.352  70.383  1.00  0.00     0.000 HD 
HETATM   38  H2  UNL     1      -5.868   2.515  72.006  1.00  0.00     0.000 HD 
HETATM   39  C   UNL     1      -9.508   4.419  71.070  1.00  0.00    -0.232 A  
HETATM   40  C   UNL     1      -8.408   3.626  70.782  1.00  0.00    -0.092 A  
HETATM   41  C   UNL     1      -7.137   4.780  72.474  1.00  0.00    -0.080 A  
HETATM   42  C   UNL     1      -7.188   3.859  71.419  1.00  0.00    -0.036 A  
ENDBRANCH  31  34
ENDBRANCH   5  31
ENDBRANCH   4   5
TORSDOF 12
ENDMDL
MODEL      268
REMARK 921   NORMALIZED FREE ENERGY PREDICTED BY IDOCK:   -3.62 KCAL/MOL
REMARK 922        TOTAL FREE ENERGY PREDICTED BY IDOCK:   -8.96 KCAL/MOL
REMARK 923 INTER-LIGAND FREE ENERGY PREDICTED BY IDOCK:   -8.76 KCAL/MOL
REMARK 924 INTRA-LIGAND FREE ENERGY PREDICTED BY IDOCK:   -0.20 KCAL/MOL
REMARK 927      BINDING AFFINITY PREDICTED BY RF-SCORE:    0.00 PKD
ROOT
HETATM    1  C   UNL     1      -6.223  12.663  68.189  1.00  0.00    -0.083 C  
HETATM    2  C   UNL     1      -7.655  12.733  68.693  1.00  0.00    -0.085 C  
HETATM    3  C   UNL     1      -8.387  14.022  68.312  1.00  0.00    -0.162 C  
HETATM    4  C   UNL     1      -8.615  11.539  68.648  1.00  0.00    -0.109 C  
ENDROOT
BRANCH   4   5
HETATM    5  N   UNL     1      -8.691  10.450  67.631  1.00  0.00    -0.119 N  
BRANCH   5   6
HETATM    6  C   UNL     1      -7.938   9.227  68.235  1.00  0.00    -0.102 C  
BRANCH   6   7
HETATM    7  C   UNL     1      -8.356   8.800  69.716  1.00  0.00    -0.127 C  
BRANCH   7   8
HETATM    8  C   UNL     1      -9.930   8.485  69.808  1.00  0.00    -0.191 C  
BRANCH   8   9
HETATM    9  N   UNL     1     -10.281   7.158  69.271  1.00  0.00    -0.184 N  
HETATM   10  C   UNL     1      -9.491   6.063  69.513  1.00  0.00    -0.139 C  
HETATM   11  H   UNL     1     -11.125   7.053  68.710  1.00  0.00     0.000 HD 
HETATM   12  O   UNL     1      -8.492   6.042  70.213  1.00  0.00    -0.121 OA 
BRANCH  10  13
HETATM   13  O   UNL     1     -10.000   4.978  68.868  1.00  0.00    -0.167 OA 
BRANCH  13  14
HETATM   14  C   UNL     1      -9.513   4.786  67.528  1.00  0.00    -0.146 C  
HETATM   15  C   UNL     1      -9.066   3.371  67.237  1.00  0.00    -0.200 C  
HETATM   16  O   UNL     1     -10.441   4.054  65.443  1.00  0.00    -0.144 OA 
HETATM   17  C   UNL     1      -9.306   3.239  65.753  1.00  0.00    -0.123 C  
HETATM   18  C   UNL     1     -10.645   4.976  66.524  1.00  0.00    -0.231 C  
ENDBRANCH  13  14
ENDBRANCH  10  13
ENDBRANCH   8   9
BRANCH   8  19
HETATM   19  C   UNL     1     -10.629   8.732  71.166  1.00  0.00    -0.310 C  
BRANCH  19  20
HETATM   20  C   UNL     1     -10.621   7.613  72.173  1.00  0.00    -0.281 A  
HETATM   21  C   UNL     1      -9.475   6.299  73.860  1.00  0.00    -0.165 A  
HETATM   22  C   UNL     1     -11.621   5.576  73.021  1.00  0.00    -0.233 A  
HETATM   23  C   UNL     1     -11.675   6.692  72.189  1.00  0.00    -0.342 A  
HETATM   24  C   UNL     1      -9.522   7.413  73.020  1.00  0.00    -0.233 A  
HETATM   25  C   UNL     1     -10.521   5.378  73.853  1.00  0.00    -0.313 A  
ENDBRANCH  19  20
ENDBRANCH   8  19
ENDBRANCH   7   8
BRANCH   7  26
HETATM   26  O   UNL     1      -7.805   9.705  70.742  1.00  0.00    -0.292 OA 
HETATM   27  O   UNL     1      -5.142   8.708  72.375  1.00  0.00    -0.036 OA 
HETATM   28  O   UNL     1      -5.520   9.923  70.449  1.00  0.00    -0.040 OA 
HETATM   29  O   UNL     1      -6.426   7.701  70.943  1.00  0.00    -0.038 OA 
HETATM   30  P   UNL     1      -6.399   9.179  71.603  1.00  0.00     0.073 P  
ENDBRANCH   7  26
ENDBRANCH   6   7
ENDBRANCH   5   6
BRANCH   5  31
HETATM   31  S   UNL     1     -10.074   9.924  66.776  1.00  0.00    -0.234 S  
HETATM   32  O   UNL     1     -11.158   9.703  67.710  1.00  0.00    -0.219 OA 
HETATM   33  O   UNL     1      -9.672   8.830  65.914  1.00  0.00    -0.237 OA 
BRANCH  31  34
HETATM   34  C   UNL     1     -10.625  11.211  65.717  1.00  0.00    -0.227 A  
HETATM   35  N   UNL     1     -12.215  14.221  63.288  1.00  0.00    -0.960 NA 
HETATM   36  C   UNL     1     -10.469  11.118  64.334  1.00  0.00    -0.418 A  
HETATM   37  H1  UNL     1     -12.690  15.022  63.703  1.00  0.00     0.000 HD 
HETATM   38  H2  UNL     1     -12.857  13.773  62.633  1.00  0.00     0.000 HD 
HETATM   39  C   UNL     1     -11.419  12.215  66.274  1.00  0.00    -0.433 A  
HETATM   40  C   UNL     1     -11.933  13.217  65.465  1.00  0.00    -0.457 A  
HETATM   41  C   UNL     1     -10.999  12.128  63.528  1.00  0.00    -0.521 A  
HETATM   42  C   UNL     1     -11.652  13.229  64.098  1.00  0.00    -0.405 A  
ENDBRANCH  31  34
ENDBRANCH   5  31
ENDBRANCH   4   5
TORSDOF 12
ENDMDL
MODEL      269
REMARK 921   NORMALIZED FREE ENERGY PREDICTED BY IDOCK:   -3.60 KCAL/MOL
REMARK 922        TOTAL FREE ENERGY PREDICTED BY IDOCK:   -8.92 KCAL/MOL
REMARK 923 INTER-LIGAND FREE ENERGY PREDICTED BY IDOCK:   -8.81 KCAL/MOL
REMARK 924 INTRA-LIGAND FREE ENERGY PREDICTED BY IDOCK:   -0.12 KCAL/MOL
REMARK 927      BINDING AFFINITY PREDICTED BY RF-SCORE:    0.00 PKD
ROOT
HETATM    1  C   UNL     1     -11.901  12.279  67.902  1.00  0.00    -0.358 C  
HETATM    2  C   UNL     1     -11.199  11.693  69.116  1.00  0.00    -0.325 C  
HETATM    3  C   UNL     1     -12.064  10.730  69.932  1.00  0.00    -0.410 C  
HETATM    4  C   UNL     1      -9.744  11.212  69.088  1.00  0.00    -0.028 C  
ENDROOT
BRANCH   4   5
HETATM    5  N   UNL     1      -8.999  10.584  67.958  1.00  0.00    -0.133 N  
BRANCH   5   6
HETATM    6  C   UNL     1      -9.841   9.356  67.500  1.00  0.00    -0.173 C  
BRANCH   6   7
HETATM    7  C   UNL     1      -9.255   7.918  67.874  1.00  0.00    -0.134 C  
BRANCH   7   8
HETATM    8  C   UNL     1      -9.031   7.775  69.460  1.00  0.00    -0.142 C  
BRANCH   8   9
HETATM    9  N   UNL     1     -10.270   7.442  70.186  1.00  0.00    -0.202 N  
HETATM   10  C   UNL     1     -11.209   6.605  69.639  1.00  0.00    -0.340 C  
HETATM   11  H   UNL     1     -10.431   7.841  71.110  1.00  0.00     0.000 HD 
HETATM   12  O   UNL     1     -11.112   6.020  68.574  1.00  0.00    -0.313 OA 
BRANCH  10  13
HETATM   13  O   UNL     1     -12.275   6.501  70.479  1.00  0.00    -0.325 OA 
BRANCH  13  14
HETATM   14  C   UNL     1     -12.753   7.750  71.011  1.00  0.00    -0.088 C  
HETATM   15  C   UNL     1     -14.241   7.773  71.275  1.00  0.00    -0.401 C  
HETATM   16  O   UNL     1     -13.175   8.647  73.192  1.00  0.00    -0.171 OA 
HETATM   17  C   UNL     1     -14.368   8.760  72.409  1.00  0.00    -0.332 C  
HETATM   18  C   UNL     1     -12.177   7.984  72.403  1.00  0.00    -0.287 C  
ENDBRANCH  13  14
ENDBRANCH  10  13
ENDBRANCH   8   9
BRANCH   8  19
HETATM   19  C   UNL     1      -7.857   6.889  69.938  1.00  0.00    -0.115 C  
BRANCH  19  20
HETATM   20  C   UNL     1      -8.143   5.439  70.222  1.00  0.00    -0.097 A  
HETATM   21  C   UNL     1      -8.666   3.200  69.449  1.00  0.00    -0.130 A  
HETATM   22  C   UNL     1      -8.786   3.720  71.804  1.00  0.00    -0.124 A  
HETATM   23  C   UNL     1      -8.389   5.029  71.537  1.00  0.00    -0.119 A  
HETATM   24  C   UNL     1      -8.277   4.513  69.179  1.00  0.00    -0.082 A  
HETATM   25  C   UNL     1      -8.928   2.808  70.761  1.00  0.00    -0.162 A  
ENDBRANCH  19  20
ENDBRANCH   8  19
ENDBRANCH   7   8
BRANCH   7  26
HETATM   26  O   UNL     1      -8.124   7.526  67.012  1.00  0.00    -0.113 OA 
HETATM   27  O   UNL     1      -8.683   5.257  64.712  1.00  0.00    -0.152 OA 
HETATM   28  O   UNL     1      -8.781   7.562  64.794  1.00  0.00     0.103 OA 
HETATM   29  O   UNL     1      -9.920   6.024  66.323  1.00  0.00    -0.129 OA 
HETATM   30  P   UNL     1      -8.419   6.329  65.798  1.00  0.00    -0.129 P  
ENDBRANCH   7  26
ENDBRANCH   6   7
ENDBRANCH   5   6
BRANCH   5  31
HETATM   31  S   UNL     1      -8.319  11.368  66.601  1.00  0.00    -0.162 S  
HETATM   32  O   UNL     1      -7.623  10.394  65.785  1.00  0.00    -0.138 OA 
HETATM   33  O   UNL     1      -7.580  12.520  67.079  1.00  0.00    -0.119 OA 
BRANCH  31  34
HETATM   34  C   UNL     1      -9.606  11.993  65.586  1.00  0.00    -0.189 A  
HETATM   35  N   UNL     1     -12.519  13.392  62.931  1.00  0.00    -0.837 NA 
HETATM   36  C   UNL     1      -9.911  13.354  65.569  1.00  0.00    -0.226 A  
HETATM   37  H1  UNL     1     -13.015  12.743  62.319  1.00  0.00     0.000 HD 
HETATM   38  H2  UNL     1     -12.079  14.105  62.349  1.00  0.00     0.000 HD 
HETATM   39  C   UNL     1     -10.160  11.133  64.635  1.00  0.00    -0.358 A  
HETATM   40  C   UNL     1     -11.134  11.599  63.766  1.00  0.00    -0.499 A  
HETATM   41  C   UNL     1     -10.888  13.814  64.683  1.00  0.00    -0.416 A  
HETATM   42  C   UNL     1     -11.569  12.923  63.844  1.00  0.00    -0.453 A  
ENDBRANCH  31  34
ENDBRANCH   5  31
ENDBRANCH   4   5
TORSDOF 12
ENDMDL
MODEL      270
REMARK 921   NORMALIZED FREE ENERGY PREDICTED BY IDOCK:   -3.58 KCAL/MOL
REMARK 922        TOTAL FREE ENERGY PREDICTED BY IDOCK:   -8.90 KCAL/MOL
REMARK 923 INTER-LIGAND FREE ENERGY PREDICTED BY IDOCK:   -7.98 KCAL/MOL
REMARK 924 INTRA-LIGAND FREE ENERGY PREDICTED BY IDOCK:   -0.91 KCAL/MOL
REMARK 927      BINDING AFFINITY PREDICTED BY RF-SCORE:    0.00 PKD
ROOT
HETATM    1  C   UNL     1      -5.547   7.641  71.556  1.00  0.00    -0.035 C  
HETATM    2  C   UNL     1      -6.462   6.779  70.700  1.00  0.00    -0.051 C  
HETATM    3  C   UNL     1      -7.515   6.007  71.497  1.00  0.00    -0.094 C  
HETATM    4  C   UNL     1      -7.041   7.251  69.362  1.00  0.00    -0.074 C  
ENDROOT
BRANCH   4   5
HETATM    5  N   UNL     1      -7.443   8.631  68.962  1.00  0.00    -0.087 N  
BRANCH   5   6
HETATM    6  C   UNL     1      -8.478   8.474  67.808  1.00  0.00    -0.130 C  
BRANCH   6   7
HETATM    7  C   UNL     1      -8.395   7.122  66.962  1.00  0.00    -0.118 C  
BRANCH   7   8
HETATM    8  C   UNL     1      -7.754   7.383  65.511  1.00  0.00    -0.107 C  
BRANCH   8   9
HETATM    9  N   UNL     1      -8.510   6.731  64.426  1.00  0.00    -0.339 N  
HETATM   10  C   UNL     1      -7.869   6.048  63.424  1.00  0.00    -0.107 C  
HETATM   11  H   UNL     1      -9.528   6.789  64.421  1.00  0.00     0.000 HD 
HETATM   12  O   UNL     1      -6.668   5.856  63.345  1.00  0.00    -0.035 OA 
BRANCH  10  13
HETATM   13  O   UNL     1      -8.782   5.589  62.525  1.00  0.00    -0.093 OA 
BRANCH  13  14
HETATM   14  C   UNL     1      -9.076   4.184  62.623  1.00  0.00    -0.113 C  
HETATM   15  C   UNL     1      -8.878   3.613  64.009  1.00  0.00    -0.103 C  
HETATM   16  O   UNL     1     -10.976   2.857  63.232  1.00  0.00    -0.233 OA 
HETATM   17  C   UNL     1      -9.866   2.472  64.048  1.00  0.00    -0.137 C  
HETATM   18  C   UNL     1     -10.562   3.939  62.384  1.00  0.00    -0.203 C  
ENDBRANCH  13  14
ENDBRANCH  10  13
ENDBRANCH   8   9
BRANCH   8  19
HETATM   19  C   UNL     1      -7.401   8.842  65.137  1.00  0.00    -0.088 C  
BRANCH  19  20
HETATM   20  C   UNL     1      -8.480   9.687  64.516  1.00  0.00    -0.186 A  
HETATM   21  C   UNL     1      -9.276  11.111  62.721  1.00  0.00    -0.374 A  
HETATM   22  C   UNL     1     -10.552  10.919  64.762  1.00  0.00    -0.316 A  
HETATM   23  C   UNL     1      -9.607  10.030  65.272  1.00  0.00    -0.355 A  
HETATM   24  C   UNL     1      -8.324  10.228  63.233  1.00  0.00    -0.168 A  
HETATM   25  C   UNL     1     -10.385  11.461  63.489  1.00  0.00    -0.476 A  
ENDBRANCH  19  20
ENDBRANCH   8  19
ENDBRANCH   7   8
BRANCH   7  26
HETATM   26  O   UNL     1      -9.654   6.355  66.997  1.00  0.00    -0.132 OA 
HETATM   27  O   UNL     1      -9.487   3.200  67.874  1.00  0.00    -0.203 OA 
HETATM   28  O   UNL     1      -9.809   5.194  68.992  1.00  0.00    -0.148 OA 
HETATM   29  O   UNL     1      -7.947   4.681  67.485  1.00  0.00    -0.096 OA 
HETATM   30  P   UNL     1      -9.565   4.690  67.460  1.00  0.00    -0.151 P  
ENDBRANCH   7  26
ENDBRANCH   6   7
ENDBRANCH   5   6
BRANCH   5  31
HETATM   31  S   UNL     1      -7.900   9.917  69.990  1.00  0.00    -0.162 S  
HETATM   32  O   UNL     1      -8.168  11.095  69.191  1.00  0.00    -0.109 OA 
HETATM   33  O   UNL     1      -6.913  10.011  71.047  1.00  0.00    -0.339 OA 
BRANCH  31  34
HETATM   34  C   UNL     1      -9.422   9.525  70.770  1.00  0.00    -0.168 A  
HETATM   35  N   UNL     1     -12.985   8.302  72.587  1.00  0.00    -0.608 NA 
HETATM   36  C   UNL     1     -10.638   9.913  70.207  1.00  0.00    -0.359 A  
HETATM   37  H1  UNL     1     -12.964   7.746  73.442  1.00  0.00     0.000 HD 
HETATM   38  H2  UNL     1     -13.521   7.790  71.886  1.00  0.00     0.000 HD 
HETATM   39  C   UNL     1      -9.392   8.626  71.838  1.00  0.00    -0.357 A  
HETATM   40  C   UNL     1     -10.576   8.234  72.444  1.00  0.00    -0.408 A  
HETATM   41  C   UNL     1     -11.824   9.505  70.821  1.00  0.00    -0.350 A  
HETATM   42  C   UNL     1     -11.796   8.742  71.995  1.00  0.00    -0.372 A  
ENDBRANCH  31  34
ENDBRANCH   5  31
ENDBRANCH   4   5
TORSDOF 12
ENDMDL
MODEL      271
REMARK 921   NORMALIZED FREE ENERGY PREDICTED BY IDOCK:   -3.57 KCAL/MOL
REMARK 922        TOTAL FREE ENERGY PREDICTED BY IDOCK:   -8.87 KCAL/MOL
REMARK 923 INTER-LIGAND FREE ENERGY PREDICTED BY IDOCK:   -7.04 KCAL/MOL
REMARK 924 INTRA-LIGAND FREE ENERGY PREDICTED BY IDOCK:   -1.83 KCAL/MOL
REMARK 927      BINDING AFFINITY PREDICTED BY RF-SCORE:    0.00 PKD
ROOT
HETATM    1  C   UNL     1      -7.920   9.993  67.210  1.00  0.00    -0.106 C  
HETATM    2  C   UNL     1      -8.867   8.861  66.847  1.00  0.00    -0.141 C  
HETATM    3  C   UNL     1      -9.748   9.152  65.630  1.00  0.00    -0.247 C  
HETATM    4  C   UNL     1      -8.451   7.386  66.867  1.00  0.00    -0.123 C  
ENDROOT
BRANCH   4   5
HETATM    5  N   UNL     1      -7.118   6.796  66.551  1.00  0.00    -0.069 N  
BRANCH   5   6
HETATM    6  C   UNL     1      -6.595   6.151  67.869  1.00  0.00    -0.059 C  
BRANCH   6   7
HETATM    7  C   UNL     1      -7.670   5.361  68.745  1.00  0.00    -0.083 C  
BRANCH   7   8
HETATM    8  C   UNL     1      -8.124   6.222  70.026  1.00  0.00    -0.120 C  
BRANCH   8   9
HETATM    9  N   UNL     1      -9.500   6.737  69.910  1.00  0.00    -0.156 N  
HETATM   10  C   UNL     1      -9.806   8.028  70.258  1.00  0.00    -0.184 C  
HETATM   11  H   UNL     1     -10.237   6.123  69.565  1.00  0.00     0.000 HD 
HETATM   12  O   UNL     1      -9.011   8.877  70.626  1.00  0.00    -0.162 OA 
BRANCH  10  13
HETATM   13  O   UNL     1     -11.142   8.239  70.110  1.00  0.00    -0.252 OA 
BRANCH  13  14
HETATM   14  C   UNL     1     -11.825   8.661  71.305  1.00  0.00    -0.295 C  
HETATM   15  C   UNL     1     -12.304  10.094  71.262  1.00  0.00    -0.501 C  
HETATM   16  O   UNL     1     -14.103   8.777  72.039  1.00  0.00    -0.423 OA 
HETATM   17  C   UNL     1     -13.512  10.074  72.167  1.00  0.00    -0.318 C  
HETATM   18  C   UNL     1     -13.132   7.891  71.463  1.00  0.00    -0.311 C  
ENDBRANCH  13  14
ENDBRANCH  10  13
ENDBRANCH   8   9
BRANCH   8  19
HETATM   19  C   UNL     1      -7.882   5.604  71.423  1.00  0.00    -0.111 C  
BRANCH  19  20
HETATM   20  C   UNL     1      -9.059   4.986  72.129  1.00  0.00    -0.147 A  
HETATM   21  C   UNL     1     -10.804   5.089  73.812  1.00  0.00    -0.366 A  
HETATM   22  C   UNL     1     -10.356   3.011  72.665  1.00  0.00    -0.211 A  
HETATM   23  C   UNL     1      -9.355   3.634  71.922  1.00  0.00    -0.189 A  
HETATM   24  C   UNL     1      -9.796   5.712  73.075  1.00  0.00    -0.181 A  
HETATM   25  C   UNL     1     -11.077   3.737  73.611  1.00  0.00    -0.318 A  
ENDBRANCH  19  20
ENDBRANCH   8  19
ENDBRANCH   7   8
BRANCH   7  26
HETATM   26  O   UNL     1      -7.276   3.962  68.999  1.00  0.00    -0.052 OA 
HETATM   27  O   UNL     1      -9.491   1.624  68.385  1.00  0.00    -0.177 OA 
HETATM   28  O   UNL     1      -7.818   2.651  67.172  1.00  0.00    -0.069 OA 
HETATM   29  O   UNL     1      -9.627   3.791  68.367  1.00  0.00    -0.162 OA 
HETATM   30  P   UNL     1      -8.445   2.729  68.675  1.00  0.00    -0.082 P  
ENDBRANCH   7  26
ENDBRANCH   6   7
ENDBRANCH   5   6
BRANCH   5  31
HETATM   31  S   UNL     1      -6.709   5.812  65.214  1.00  0.00    -0.045 S  
HETATM   32  O   UNL     1      -5.633   4.920  65.589  1.00  0.00    -0.013 OA 
HETATM   33  O   UNL     1      -6.520   6.679  64.068  1.00  0.00    -0.036 OA 
BRANCH  31  34
HETATM   34  C   UNL     1      -8.066   4.769  64.825  1.00  0.00    -0.106 A  
HETATM   35  N   UNL     1     -11.248   2.342  63.610  1.00  0.00    -0.601 NA 
HETATM   36  C   UNL     1      -9.358   5.085  65.244  1.00  0.00    -0.095 A  
HETATM   37  H1  UNL     1     -11.078   1.518  63.033  1.00  0.00     0.000 HD 
HETATM   38  H2  UNL     1     -11.915   2.941  63.122  1.00  0.00     0.000 HD 
HETATM   39  C   UNL     1      -7.853   3.745  63.900  1.00  0.00    -0.084 A  
HETATM   40  C   UNL     1      -8.910   2.936  63.511  1.00  0.00    -0.092 A  
HETATM   41  C   UNL     1     -10.416   4.269  64.838  1.00  0.00    -0.176 A  
HETATM   42  C   UNL     1     -10.182   3.137  64.046  1.00  0.00    -0.174 A  
ENDBRANCH  31  34
ENDBRANCH   5  31
ENDBRANCH   4   5
TORSDOF 12
ENDMDL
MODEL      272
REMARK 921   NORMALIZED FREE ENERGY PREDICTED BY IDOCK:   -3.56 KCAL/MOL
REMARK 922        TOTAL FREE ENERGY PREDICTED BY IDOCK:   -8.86 KCAL/MOL
REMARK 923 INTER-LIGAND FREE ENERGY PREDICTED BY IDOCK:   -9.31 KCAL/MOL
REMARK 924 INTRA-LIGAND FREE ENERGY PREDICTED BY IDOCK:    0.46 KCAL/MOL
REMARK 927      BINDING AFFINITY PREDICTED BY RF-SCORE:    0.00 PKD
ROOT
HETATM    1  C   UNL     1      -8.604   8.753  66.234  1.00  0.00    -0.144 C  
HETATM    2  C   UNL     1      -7.972  10.085  66.602  1.00  0.00    -0.115 C  
HETATM    3  C   UNL     1      -7.901  11.082  65.443  1.00  0.00     0.180 C  
HETATM    4  C   UNL     1      -8.266  10.814  67.918  1.00  0.00    -0.113 C  
ENDROOT
BRANCH   4   5
HETATM    5  N   UNL     1      -9.539  10.843  68.696  1.00  0.00    -0.184 N  
BRANCH   5   6
HETATM    6  C   UNL     1      -9.969  12.338  68.785  1.00  0.00    -0.034 C  
BRANCH   6   7
HETATM    7  C   UNL     1     -10.190  13.094  67.396  1.00  0.00    -0.232 C  
BRANCH   7   8
HETATM    8  C   UNL     1      -9.182  14.338  67.244  1.00  0.00    -0.214 C  
BRANCH   8   9
HETATM    9  N   UNL     1      -9.569  15.492  68.075  1.00  0.00    -0.202 N  
HETATM   10  C   UNL     1     -10.315  16.521  67.559  1.00  0.00    -0.294 C  
HETATM   11  H   UNL     1      -9.277  15.526  69.052  1.00  0.00     0.000 HD 
HETATM   12  O   UNL     1     -10.775  16.574  66.431  1.00  0.00    -0.261 OA 
BRANCH  10  13
HETATM   13  O   UNL     1     -10.491  17.481  68.507  1.00  0.00    -0.362 OA 
BRANCH  13  14
HETATM   14  C   UNL     1      -9.794  18.715  68.258  1.00  0.00    -0.371 C  
HETATM   15  C   UNL     1      -8.687  18.596  67.235  1.00  0.00    -0.280 C  
HETATM   16  O   UNL     1      -9.963  20.501  66.670  1.00  0.00    -0.409 OA 
HETATM   17  C   UNL     1      -8.630  19.981  66.637  1.00  0.00    -0.321 C  
HETATM   18  C   UNL     1     -10.730  19.725  67.602  1.00  0.00    -0.324 C  
ENDBRANCH  13  14
ENDBRANCH  10  13
ENDBRANCH   8   9
BRANCH   8  19
HETATM   19  C   UNL     1      -7.668  14.050  67.372  1.00  0.00    -0.177 C  
BRANCH  19  20
HETATM   20  C   UNL     1      -6.929  14.678  68.523  1.00  0.00    -0.110 A  
HETATM   21  C   UNL     1      -5.711  16.543  69.483  1.00  0.00    -0.169 A  
HETATM   22  C   UNL     1      -5.768  14.420  70.634  1.00  0.00    -0.173 A  
HETATM   23  C   UNL     1      -6.566  13.891  69.621  1.00  0.00    -0.082 A  
HETATM   24  C   UNL     1      -6.502  16.012  68.464  1.00  0.00    -0.115 A  
HETATM   25  C   UNL     1      -5.339  15.744  70.563  1.00  0.00    -0.159 A  
ENDBRANCH  19  20
ENDBRANCH   8  19
ENDBRANCH   7   8
BRANCH   7  26
HETATM   26  O   UNL     1     -11.614  13.363  67.119  1.00  0.00    -0.321 OA 
HETATM   27  O   UNL     1     -12.445  14.113  64.037  1.00  0.00    -0.685 OA 
HETATM   28  O   UNL     1     -12.291  12.162  65.261  1.00  0.00    -0.513 OA 
HETATM   29  O   UNL     1     -10.515  13.828  64.990  1.00  0.00    -0.356 OA 
HETATM   30  P   UNL     1     -12.052  13.759  65.492  1.00  0.00    -0.469 P  
ENDBRANCH   7  26
ENDBRANCH   6   7
ENDBRANCH   5   6
BRANCH   5  31
HETATM   31  S   UNL     1     -10.911   9.849  68.476  1.00  0.00    -0.189 S  
HETATM   32  O   UNL     1     -10.898   9.306  67.133  1.00  0.00    -0.217 OA 
HETATM   33  O   UNL     1     -12.075  10.598  68.905  1.00  0.00    -0.361 OA 
BRANCH  31  34
HETATM   34  C   UNL     1     -10.798   8.459  69.542  1.00  0.00    -0.117 A  
HETATM   35  N   UNL     1     -10.675   4.992  71.877  1.00  0.00    -0.161 NA 
HETATM   36  C   UNL     1     -11.413   8.463  70.794  1.00  0.00    -0.277 A  
HETATM   37  H1  UNL     1     -10.184   4.163  71.545  1.00  0.00     0.000 HD 
HETATM   38  H2  UNL     1     -11.641   4.731  72.080  1.00  0.00     0.000 HD 
HETATM   39  C   UNL     1     -10.274   7.277  69.015  1.00  0.00    -0.197 A  
HETATM   40  C   UNL     1     -10.224   6.134  69.799  1.00  0.00    -0.249 A  
HETATM   41  C   UNL     1     -11.365   7.304  71.571  1.00  0.00    -0.280 A  
HETATM   42  C   UNL     1     -10.689   6.164  71.114  1.00  0.00    -0.256 A  
ENDBRANCH  31  34
ENDBRANCH   5  31
ENDBRANCH   4   5
TORSDOF 12
ENDMDL
MODEL      273
REMARK 921   NORMALIZED FREE ENERGY PREDICTED BY IDOCK:   -3.54 KCAL/MOL
REMARK 922        TOTAL FREE ENERGY PREDICTED BY IDOCK:   -8.83 KCAL/MOL
REMARK 923 INTER-LIGAND FREE ENERGY PREDICTED BY IDOCK:   -6.14 KCAL/MOL
REMARK 924 INTRA-LIGAND FREE ENERGY PREDICTED BY IDOCK:   -2.69 KCAL/MOL
REMARK 927      BINDING AFFINITY PREDICTED BY RF-SCORE:    0.00 PKD
ROOT
HETATM    1  C   UNL     1     -10.557  14.286  68.915  1.00  0.00    -0.252 C  
HETATM    2  C   UNL     1     -11.179  13.424  67.828  1.00  0.00    -0.306 C  
HETATM    3  C   UNL     1     -10.952  13.950  66.409  1.00  0.00    -0.303 C  
HETATM    4  C   UNL     1     -11.127  11.893  67.847  1.00  0.00    -0.242 C  
ENDROOT
BRANCH   4   5
HETATM    5  N   UNL     1     -10.044  11.009  68.370  1.00  0.00    -0.177 N  
BRANCH   5   6
HETATM    6  C   UNL     1     -10.663   9.586  68.512  1.00  0.00    -0.182 C  
BRANCH   6   7
HETATM    7  C   UNL     1     -10.888   9.058  70.002  1.00  0.00    -0.231 C  
BRANCH   7   8
HETATM    8  C   UNL     1      -9.958   7.784  70.315  1.00  0.00    -0.189 C  
BRANCH   8   9
HETATM    9  N   UNL     1      -8.927   7.562  69.285  1.00  0.00    -0.136 N  
HETATM   10  C   UNL     1      -8.745   6.327  68.716  1.00  0.00    -0.121 C  
HETATM   11  H   UNL     1      -8.338   8.341  68.990  1.00  0.00     0.000 HD 
HETATM   12  O   UNL     1      -9.416   5.333  68.937  1.00  0.00    -0.115 OA 
BRANCH  10  13
HETATM   13  O   UNL     1      -7.705   6.374  67.840  1.00  0.00    -0.100 OA 
BRANCH  13  14
HETATM   14  C   UNL     1      -7.361   5.112  67.239  1.00  0.00    -0.082 C  
HETATM   15  C   UNL     1      -8.052   4.855  65.920  1.00  0.00    -0.108 C  
HETATM   16  O   UNL     1      -5.765   4.350  65.623  1.00  0.00    -0.020 OA 
HETATM   17  C   UNL     1      -7.075   3.963  65.194  1.00  0.00    -0.066 C  
HETATM   18  C   UNL     1      -5.890   5.104  66.837  1.00  0.00    -0.022 C  
ENDBRANCH  13  14
ENDBRANCH  10  13
ENDBRANCH   8   9
BRANCH   8  19
HETATM   19  C   UNL     1      -9.352   7.673  71.734  1.00  0.00    -0.176 C  
BRANCH  19  20
HETATM   20  C   UNL     1      -9.813   6.535  72.605  1.00  0.00    -0.179 A  
HETATM   21  C   UNL     1      -9.395   4.929  74.374  1.00  0.00    -0.130 A  
HETATM   22  C   UNL     1     -11.378   4.731  73.009  1.00  0.00    -0.325 A  
HETATM   23  C   UNL     1     -11.003   5.868  72.296  1.00  0.00    -0.313 A  
HETATM   24  C   UNL     1      -9.014   6.062  73.655  1.00  0.00    -0.127 A  
HETATM   25  C   UNL     1     -10.573   4.260  74.044  1.00  0.00    -0.323 A  
ENDBRANCH  19  20
ENDBRANCH   8  19
ENDBRANCH   7   8
BRANCH   7  26
HETATM   26  O   UNL     1     -12.316   8.930  70.347  1.00  0.00     0.121 OA 
HETATM   27  O   UNL     1     -13.652  11.294  72.186  1.00  0.00    -0.288 OA 
HETATM   28  O   UNL     1     -13.407  10.925  69.920  1.00  0.00     0.120 OA 
HETATM   29  O   UNL     1     -11.603  10.914  71.577  1.00  0.00     0.238 OA 
HETATM   30  P   UNL     1     -13.021  10.178  71.317  1.00  0.00    -0.419 P  
ENDBRANCH   7  26
ENDBRANCH   6   7
ENDBRANCH   5   6
BRANCH   5  31
HETATM   31  S   UNL     1      -8.435  10.896  67.806  1.00  0.00    -0.126 S  
HETATM   32  O   UNL     1      -7.684  10.018  68.679  1.00  0.00    -0.082 OA 
HETATM   33  O   UNL     1      -7.944  12.242  67.593  1.00  0.00    -0.138 OA 
BRANCH  31  34
HETATM   34  C   UNL     1      -8.424  10.113  66.235  1.00  0.00    -0.128 A  
HETATM   35  N   UNL     1      -8.686   8.188  62.532  1.00  0.00    -0.427 NA 
HETATM   36  C   UNL     1      -7.640   8.984  66.001  1.00  0.00    -0.094 A  
HETATM   37  H1  UNL     1      -9.299   8.552  61.803  1.00  0.00     0.000 HD 
HETATM   38  H2  UNL     1      -8.948   7.218  62.714  1.00  0.00     0.000 HD 
HETATM   39  C   UNL     1      -9.385  10.512  65.304  1.00  0.00    -0.258 A  
HETATM   40  C   UNL     1      -9.459   9.878  64.073  1.00  0.00    -0.231 A  
HETATM   41  C   UNL     1      -7.729   8.348  64.761  1.00  0.00    -0.109 A  
HETATM   42  C   UNL     1      -8.570   8.848  63.759  1.00  0.00    -0.087 A  
ENDBRANCH  31  34
ENDBRANCH   5  31
ENDBRANCH   4   5
TORSDOF 12
ENDMDL
MODEL      274
REMARK 921   NORMALIZED FREE ENERGY PREDICTED BY IDOCK:   -3.48 KCAL/MOL
REMARK 922        TOTAL FREE ENERGY PREDICTED BY IDOCK:   -8.73 KCAL/MOL
REMARK 923 INTER-LIGAND FREE ENERGY PREDICTED BY IDOCK:   -8.12 KCAL/MOL
REMARK 924 INTRA-LIGAND FREE ENERGY PREDICTED BY IDOCK:   -0.61 KCAL/MOL
REMARK 927      BINDING AFFINITY PREDICTED BY RF-SCORE:    0.00 PKD
ROOT
HETATM    1  C   UNL     1      -5.642  12.201  67.028  1.00  0.00    -0.079 C  
HETATM    2  C   UNL     1      -5.685  11.500  68.377  1.00  0.00    -0.045 C  
HETATM    3  C   UNL     1      -5.163  12.350  69.537  1.00  0.00    -0.072 C  
HETATM    4  C   UNL     1      -6.868  10.639  68.833  1.00  0.00    -0.066 C  
ENDROOT
BRANCH   4   5
HETATM    5  N   UNL     1      -8.317  10.819  68.524  1.00  0.00    -0.131 N  
BRANCH   5   6
HETATM    6  C   UNL     1      -8.430  10.928  66.974  1.00  0.00    -0.134 C  
BRANCH   6   7
HETATM    7  C   UNL     1      -9.167  12.226  66.409  1.00  0.00    -0.203 C  
BRANCH   7   8
HETATM    8  C   UNL     1      -8.678  13.553  67.175  1.00  0.00    -0.215 C  
BRANCH   8   9
HETATM    9  N   UNL     1      -9.040  14.792  66.462  1.00  0.00    -0.350 N  
HETATM   10  C   UNL     1      -8.164  15.843  66.376  1.00  0.00    -0.228 C  
HETATM   11  H   UNL     1      -9.958  14.867  66.024  1.00  0.00     0.000 HD 
HETATM   12  O   UNL     1      -7.021  15.859  66.803  1.00  0.00    -0.225 OA 
BRANCH  10  13
HETATM   13  O   UNL     1      -8.752  16.878  65.717  1.00  0.00    -0.512 OA 
BRANCH  13  14
HETATM   14  C   UNL     1      -9.068  18.018  66.537  1.00  0.00    -0.269 C  
HETATM   15  C   UNL     1     -10.532  18.394  66.522  1.00  0.00    -0.411 C  
HETATM   16  O   UNL     1      -9.838  18.370  68.779  1.00  0.00    -0.357 OA 
HETATM   17  C   UNL     1     -10.732  19.030  67.876  1.00  0.00    -0.293 C  
HETATM   18  C   UNL     1      -8.837  17.689  68.008  1.00  0.00    -0.257 C  
ENDBRANCH  13  14
ENDBRANCH  10  13
ENDBRANCH   8   9
BRANCH   8  19
HETATM   19  C   UNL     1      -9.007  13.669  68.682  1.00  0.00    -0.025 C  
BRANCH  19  20
HETATM   20  C   UNL     1     -10.293  14.348  69.069  1.00  0.00    -0.204 A  
HETATM   21  C   UNL     1     -12.503  15.168  68.495  1.00  0.00     0.337 A  
HETATM   22  C   UNL     1     -11.516  15.751  70.621  1.00  0.00    -0.415 A  
HETATM   23  C   UNL     1     -10.382  15.005  70.301  1.00  0.00    -0.002 A  
HETATM   24  C   UNL     1     -11.365  14.428  68.170  1.00  0.00    -0.317 A  
HETATM   25  C   UNL     1     -12.573  15.835  69.717  1.00  0.00     0.058 A  
ENDBRANCH  19  20
ENDBRANCH   8  19
ENDBRANCH   7   8
BRANCH   7  26
HETATM   26  O   UNL     1     -10.625  12.039  66.282  1.00  0.00    -0.238 OA 
HETATM   27  O   UNL     1     -12.035  12.957  63.467  1.00  0.00    -0.500 OA 
HETATM   28  O   UNL     1     -11.110  11.001  64.272  1.00  0.00    -0.242 OA 
HETATM   29  O   UNL     1     -10.011  13.190  64.219  1.00  0.00    -0.256 OA 
HETATM   30  P   UNL     1     -11.368  12.523  64.796  1.00  0.00    -0.347 P  
ENDBRANCH   7  26
ENDBRANCH   6   7
ENDBRANCH   5   6
BRANCH   5  31
HETATM   31  S   UNL     1      -9.629   9.918  69.147  1.00  0.00    -0.211 S  
HETATM   32  O   UNL     1     -10.871  10.557  68.764  1.00  0.00    -0.202 OA 
HETATM   33  O   UNL     1      -9.378   9.686  70.556  1.00  0.00    -0.253 OA 
BRANCH  31  34
HETATM   34  C   UNL     1      -9.662   8.338  68.385  1.00  0.00    -0.158 A  
HETATM   35  N   UNL     1     -10.014   4.535  66.680  1.00  0.00    -0.225 NA 
HETATM   36  C   UNL     1      -8.760   7.343  68.757  1.00  0.00    -0.128 A  
HETATM   37  H1  UNL     1     -10.737   4.346  65.986  1.00  0.00     0.000 HD 
HETATM   38  H2  UNL     1     -10.125   3.871  67.446  1.00  0.00     0.000 HD 
HETATM   39  C   UNL     1     -10.752   8.035  67.566  1.00  0.00    -0.238 A  
HETATM   40  C   UNL     1     -10.857   6.776  66.994  1.00  0.00    -0.453 A  
HETATM   41  C   UNL     1      -8.880   6.076  68.181  1.00  0.00    -0.111 A  
HETATM   42  C   UNL     1      -9.872   5.815  67.227  1.00  0.00    -0.141 A  
ENDBRANCH  31  34
ENDBRANCH   5  31
ENDBRANCH   4   5
TORSDOF 12
ENDMDL
MODEL      275
REMARK 921   NORMALIZED FREE ENERGY PREDICTED BY IDOCK:   -3.48 KCAL/MOL
REMARK 922        TOTAL FREE ENERGY PREDICTED BY IDOCK:   -8.72 KCAL/MOL
REMARK 923 INTER-LIGAND FREE ENERGY PREDICTED BY IDOCK:   -6.08 KCAL/MOL
REMARK 924 INTRA-LIGAND FREE ENERGY PREDICTED BY IDOCK:   -2.64 KCAL/MOL
REMARK 927      BINDING AFFINITY PREDICTED BY RF-SCORE:    0.00 PKD
ROOT
HETATM    1  C   UNL     1     -11.672  13.104  70.629  1.00  0.00     0.093 C  
HETATM    2  C   UNL     1     -12.259  12.813  69.257  1.00  0.00    -0.104 C  
HETATM    3  C   UNL     1     -12.308  14.028  68.329  1.00  0.00    -0.012 C  
HETATM    4  C   UNL     1     -11.930  11.545  68.462  1.00  0.00    -0.224 C  
ENDROOT
BRANCH   4   5
HETATM    5  N   UNL     1     -10.650  10.779  68.427  1.00  0.00    -0.184 N  
BRANCH   5   6
HETATM    6  C   UNL     1     -11.035   9.278  68.270  1.00  0.00     0.008 C  
BRANCH   6   7
HETATM    7  C   UNL     1     -10.676   8.323  69.499  1.00  0.00    -0.174 C  
BRANCH   7   8
HETATM    8  C   UNL     1      -9.564   7.237  69.086  1.00  0.00    -0.155 C  
BRANCH   8   9
HETATM    9  N   UNL     1      -9.336   7.176  67.631  1.00  0.00    -0.127 N  
HETATM   10  C   UNL     1      -9.383   5.984  66.954  1.00  0.00    -0.131 C  
HETATM   11  H   UNL     1      -9.141   8.036  67.118  1.00  0.00     0.000 HD 
HETATM   12  O   UNL     1      -9.662   4.899  67.435  1.00  0.00    -0.146 OA 
BRANCH  10  13
HETATM   13  O   UNL     1      -9.088   6.190  65.641  1.00  0.00    -0.107 OA 
BRANCH  13  14
HETATM   14  C   UNL     1      -8.588   5.035  64.944  1.00  0.00    -0.150 C  
HETATM   15  C   UNL     1      -9.657   4.246  64.222  1.00  0.00    -0.126 C  
HETATM   16  O   UNL     1      -7.868   4.546  62.711  1.00  0.00    -0.063 OA 
HETATM   17  C   UNL     1      -8.901   3.624  63.073  1.00  0.00    -0.096 C  
HETATM   18  C   UNL     1      -7.679   5.465  63.797  1.00  0.00    -0.083 C  
ENDBRANCH  13  14
ENDBRANCH  10  13
ENDBRANCH   8   9
BRANCH   8  19
HETATM   19  C   UNL     1      -8.221   7.262  69.854  1.00  0.00    -0.133 C  
BRANCH  19  20
HETATM   20  C   UNL     1      -8.197   6.686  71.244  1.00  0.00    -0.120 A  
HETATM   21  C   UNL     1      -7.097   6.381  73.384  1.00  0.00    -0.082 A  
HETATM   22  C   UNL     1      -9.057   5.079  72.840  1.00  0.00    -0.127 A  
HETATM   23  C   UNL     1      -9.144   5.720  71.606  1.00  0.00    -0.152 A  
HETATM   24  C   UNL     1      -7.177   7.018  72.145  1.00  0.00    -0.077 A  
HETATM   25  C   UNL     1      -8.033   5.406  73.727  1.00  0.00    -0.109 A  
ENDBRANCH  19  20
ENDBRANCH   8  19
ENDBRANCH   7   8
BRANCH   7  26
HETATM   26  O   UNL     1     -11.876   7.807  70.184  1.00  0.00     0.020 OA 
HETATM   27  O   UNL     1     -12.648   9.120  73.088  1.00  0.00     0.079 OA 
HETATM   28  O   UNL     1     -13.193   9.573  70.891  1.00  0.00    -0.233 OA 
HETATM   29  O   UNL     1     -10.924   9.376  71.793  1.00  0.00    -0.363 OA 
HETATM   30  P   UNL     1     -12.283   8.500  71.716  1.00  0.00    -0.382 P  
ENDBRANCH   7  26
ENDBRANCH   6   7
ENDBRANCH   5   6
BRANCH   5  31
HETATM   31  S   UNL     1      -9.257  11.128  67.500  1.00  0.00    -0.154 S  
HETATM   32  O   UNL     1      -9.098  10.115  66.478  1.00  0.00    -0.142 OA 
HETATM   33  O   UNL     1      -8.160  11.360  68.418  1.00  0.00    -0.131 OA 
BRANCH  31  34
HETATM   34  C   UNL     1      -9.501  12.634  66.632  1.00  0.00    -0.244 A  
HETATM   35  N   UNL     1     -10.192  16.336  64.813  1.00  0.00    -0.334 NA 
HETATM   36  C   UNL     1     -10.372  12.703  65.545  1.00  0.00    -0.305 A  
HETATM   37  H1  UNL     1      -9.713  17.172  65.147  1.00  0.00     0.000 HD 
HETATM   38  H2  UNL     1     -11.197  16.507  64.851  1.00  0.00     0.000 HD 
HETATM   39  C   UNL     1      -8.978  13.800  67.195  1.00  0.00    -0.241 A  
HETATM   40  C   UNL     1      -9.200  15.023  66.580  1.00  0.00    -0.302 A  
HETATM   41  C   UNL     1     -10.595  13.941  64.939  1.00  0.00    -0.436 A  
HETATM   42  C   UNL     1      -9.938  15.090  65.397  1.00  0.00    -0.330 A  
ENDBRANCH  31  34
ENDBRANCH   5  31
ENDBRANCH   4   5
TORSDOF 12
ENDMDL
MODEL      276
REMARK 921   NORMALIZED FREE ENERGY PREDICTED BY IDOCK:   -3.46 KCAL/MOL
REMARK 922        TOTAL FREE ENERGY PREDICTED BY IDOCK:   -8.69 KCAL/MOL
REMARK 923 INTER-LIGAND FREE ENERGY PREDICTED BY IDOCK:   -9.19 KCAL/MOL
REMARK 924 INTRA-LIGAND FREE ENERGY PREDICTED BY IDOCK:    0.50 KCAL/MOL
REMARK 927      BINDING AFFINITY PREDICTED BY RF-SCORE:    0.00 PKD
ROOT
HETATM    1  C   UNL     1      -8.777   7.812  66.062  1.00  0.00    -0.184 C  
HETATM    2  C   UNL     1      -8.365   9.239  65.738  1.00  0.00    -0.128 C  
HETATM    3  C   UNL     1      -8.801   9.713  64.349  1.00  0.00    -0.263 C  
HETATM    4  C   UNL     1      -8.461  10.386  66.750  1.00  0.00    -0.125 C  
ENDROOT
BRANCH   4   5
HETATM    5  N   UNL     1      -9.473  10.587  67.828  1.00  0.00    -0.148 N  
BRANCH   5   6
HETATM    6  C   UNL     1      -9.614  12.127  68.022  1.00  0.00    -0.204 C  
BRANCH   6   7
HETATM    7  C   UNL     1      -9.740  12.998  66.690  1.00  0.00    -0.256 C  
BRANCH   7   8
HETATM    8  C   UNL     1      -8.787  14.292  66.749  1.00  0.00    -0.182 C  
BRANCH   8   9
HETATM    9  N   UNL     1      -9.432  15.448  67.398  1.00  0.00    -0.205 N  
HETATM   10  C   UNL     1     -10.052  16.423  66.659  1.00  0.00    -0.284 C  
HETATM   11  H   UNL     1      -9.416  15.524  68.415  1.00  0.00     0.000 HD 
HETATM   12  O   UNL     1     -10.192  16.421  65.447  1.00  0.00    -0.546 OA 
BRANCH  10  13
HETATM   13  O   UNL     1     -10.518  17.399  67.485  1.00  0.00    -0.343 OA 
BRANCH  13  14
HETATM   14  C   UNL     1     -11.141  16.925  68.692  1.00  0.00    -0.194 C  
HETATM   15  C   UNL     1     -11.998  15.695  68.497  1.00  0.00    -0.145 C  
HETATM   16  O   UNL     1     -10.626  15.301  70.377  1.00  0.00    -0.276 OA 
HETATM   17  C   UNL     1     -11.921  15.012  69.840  1.00  0.00    -0.334 C  
HETATM   18  C   UNL     1     -10.083  16.426  69.670  1.00  0.00    -0.149 C  
ENDBRANCH  13  14
ENDBRANCH  10  13
ENDBRANCH   8   9
BRANCH   8  19
HETATM   19  C   UNL     1      -7.347  14.095  67.278  1.00  0.00    -0.035 C  
BRANCH  19  20
HETATM   20  C   UNL     1      -6.572  15.323  67.674  1.00  0.00    -0.196 A  
HETATM   21  C   UNL     1      -5.301  16.579  69.315  1.00  0.00    -0.134 A  
HETATM   22  C   UNL     1      -6.002  17.642  67.262  1.00  0.00    -0.161 A  
HETATM   23  C   UNL     1      -6.602  16.454  66.850  1.00  0.00    -0.170 A  
HETATM   24  C   UNL     1      -5.910  15.392  68.908  1.00  0.00    -0.098 A  
HETATM   25  C   UNL     1      -5.355  17.705  68.495  1.00  0.00    -0.150 A  
ENDBRANCH  19  20
ENDBRANCH   8  19
ENDBRANCH   7   8
BRANCH   7  26
HETATM   26  O   UNL     1     -11.142  13.231  66.297  1.00  0.00    -0.286 OA 
HETATM   27  O   UNL     1     -11.881  13.025  63.109  1.00  0.00    -0.494 OA 
HETATM   28  O   UNL     1     -11.850  11.545  64.880  1.00  0.00    -0.038 OA 
HETATM   29  O   UNL     1      -9.985  12.964  64.165  1.00  0.00    -0.284 OA 
HETATM   30  P   UNL     1     -11.532  13.122  64.615  1.00  0.00    -0.377 P  
ENDBRANCH   7  26
ENDBRANCH   6   7
ENDBRANCH   5   6
BRANCH   5  31
HETATM   31  S   UNL     1     -11.000   9.835  67.971  1.00  0.00    -0.106 S  
HETATM   32  O   UNL     1     -11.097   8.764  67.000  1.00  0.00     0.072 OA 
HETATM   33  O   UNL     1     -12.010  10.874  67.954  1.00  0.00    -0.585 OA 
BRANCH  31  34
HETATM   34  C   UNL     1     -11.120   9.056  69.539  1.00  0.00    -0.024 A  
HETATM   35  N   UNL     1     -11.269   7.437  73.392  1.00  0.00    -0.596 NA 
HETATM   36  C   UNL     1     -10.469   7.849  69.792  1.00  0.00    -0.233 A  
HETATM   37  H1  UNL     1     -11.792   7.908  74.130  1.00  0.00     0.000 HD 
HETATM   38  H2  UNL     1     -10.305   7.321  73.708  1.00  0.00     0.000 HD 
HETATM   39  C   UNL     1     -11.691   9.785  70.584  1.00  0.00    -0.377 A  
HETATM   40  C   UNL     1     -11.748   9.238  71.856  1.00  0.00    -0.420 A  
HETATM   41  C   UNL     1     -10.526   7.311  71.080  1.00  0.00    -0.226 A  
HETATM   42  C   UNL     1     -11.245   7.958  72.094  1.00  0.00    -0.307 A  
ENDBRANCH  31  34
ENDBRANCH   5  31
ENDBRANCH   4   5
TORSDOF 12
ENDMDL
MODEL      277
REMARK 921   NORMALIZED FREE ENERGY PREDICTED BY IDOCK:   -3.43 KCAL/MOL
REMARK 922        TOTAL FREE ENERGY PREDICTED BY IDOCK:   -8.64 KCAL/MOL
REMARK 923 INTER-LIGAND FREE ENERGY PREDICTED BY IDOCK:   -7.78 KCAL/MOL
REMARK 924 INTRA-LIGAND FREE ENERGY PREDICTED BY IDOCK:   -0.86 KCAL/MOL
REMARK 927      BINDING AFFINITY PREDICTED BY RF-SCORE:    0.00 PKD
ROOT
HETATM    1  C   UNL     1     -14.153   6.778  71.582  1.00  0.00    -0.215 C  
HETATM    2  C   UNL     1     -13.571   8.181  71.523  1.00  0.00    -0.338 C  
HETATM    3  C   UNL     1     -13.835   9.019  72.776  1.00  0.00    -0.292 C  
HETATM    4  C   UNL     1     -12.179   8.485  70.959  1.00  0.00    -0.168 C  
ENDROOT
BRANCH   4   5
HETATM    5  N   UNL     1     -10.952   7.637  71.017  1.00  0.00    -0.244 N  
BRANCH   5   6
HETATM    6  C   UNL     1      -9.838   8.418  70.257  1.00  0.00    -0.181 C  
BRANCH   6   7
HETATM    7  C   UNL     1      -9.937   8.418  68.663  1.00  0.00    -0.184 C  
BRANCH   7   8
HETATM    8  C   UNL     1      -9.936   9.917  68.080  1.00  0.00    -0.151 C  
BRANCH   8   9
HETATM    9  N   UNL     1      -9.136  10.052  66.850  1.00  0.00    -0.138 N  
HETATM   10  C   UNL     1      -7.815  10.422  66.899  1.00  0.00    -0.114 C  
HETATM   11  H   UNL     1      -9.571   9.867  65.947  1.00  0.00     0.000 HD 
HETATM   12  O   UNL     1      -7.164  10.614  67.912  1.00  0.00    -0.085 OA 
BRANCH  10  13
HETATM   13  O   UNL     1      -7.320  10.525  65.636  1.00  0.00    -0.147 OA 
BRANCH  13  14
HETATM   14  C   UNL     1      -6.734   9.320  65.113  1.00  0.00    -0.077 C  
HETATM   15  C   UNL     1      -7.543   8.673  64.012  1.00  0.00    -0.126 C  
HETATM   16  O   UNL     1      -5.300   8.753  63.279  1.00  0.00    -0.066 OA 
HETATM   17  C   UNL     1      -6.492   7.966  63.191  1.00  0.00    -0.072 C  
HETATM   18  C   UNL     1      -5.422   9.637  64.403  1.00  0.00    -0.066 C  
ENDBRANCH  13  14
ENDBRANCH  10  13
ENDBRANCH   8   9
BRANCH   8  19
HETATM   19  C   UNL     1     -11.303  10.625  67.929  1.00  0.00    -0.342 C  
BRANCH  19  20
HETATM   20  C   UNL     1     -11.634  11.726  68.900  1.00  0.00    -0.370 A  
HETATM   21  C   UNL     1     -12.574  12.468  71.010  1.00  0.00    -0.350 A  
HETATM   22  C   UNL     1     -11.951  14.089  69.331  1.00  0.00    -0.390 A  
HETATM   23  C   UNL     1     -11.525  13.061  68.493  1.00  0.00    -0.340 A  
HETATM   24  C   UNL     1     -12.155  11.437  70.169  1.00  0.00    -0.439 A  
HETATM   25  C   UNL     1     -12.479  13.793  70.587  1.00  0.00    -0.429 A  
ENDBRANCH  19  20
ENDBRANCH   8  19
ENDBRANCH   7   8
BRANCH   7  26
HETATM   26  O   UNL     1     -10.993   7.518  68.161  1.00  0.00    -0.059 OA 
HETATM   27  O   UNL     1     -10.119   5.200  66.014  1.00  0.00    -0.185 OA 
HETATM   28  O   UNL     1     -10.287   5.321  68.313  1.00  0.00    -0.167 OA 
HETATM   29  O   UNL     1      -9.020   6.858  66.886  1.00  0.00    -0.115 OA 
HETATM   30  P   UNL     1     -10.531   6.295  67.029  1.00  0.00    -0.325 P  
ENDBRANCH   7  26
ENDBRANCH   6   7
ENDBRANCH   5   6
BRANCH   5  31
HETATM   31  S   UNL     1     -10.293   6.859  72.388  1.00  0.00    -0.208 S  
HETATM   32  O   UNL     1     -10.018   5.474  72.065  1.00  0.00    -0.173 OA 
HETATM   33  O   UNL     1     -11.154   7.146  73.517  1.00  0.00    -0.260 OA 
BRANCH  31  34
HETATM   34  C   UNL     1      -8.732   7.569  72.764  1.00  0.00    -0.133 A  
HETATM   35  N   UNL     1      -5.159   9.481  73.796  1.00  0.00    -0.125 NA 
HETATM   36  C   UNL     1      -7.875   7.997  71.750  1.00  0.00    -0.127 A  
HETATM   37  H1  UNL     1      -4.909   9.613  74.776  1.00  0.00     0.000 HD 
HETATM   38  H2  UNL     1      -5.164  10.395  73.343  1.00  0.00     0.000 HD 
HETATM   39  C   UNL     1      -8.473   7.899  74.096  1.00  0.00    -0.312 A  
HETATM   40  C   UNL     1      -7.281   8.521  74.433  1.00  0.00    -0.198 A  
HETATM   41  C   UNL     1      -6.682   8.631  72.102  1.00  0.00    -0.072 A  
HETATM   42  C   UNL     1      -6.337   8.812  73.447  1.00  0.00    -0.003 A  
ENDBRANCH  31  34
ENDBRANCH   5  31
ENDBRANCH   4   5
TORSDOF 12
ENDMDL
MODEL      278
REMARK 921   NORMALIZED FREE ENERGY PREDICTED BY IDOCK:   -3.43 KCAL/MOL
REMARK 922        TOTAL FREE ENERGY PREDICTED BY IDOCK:   -8.63 KCAL/MOL
REMARK 923 INTER-LIGAND FREE ENERGY PREDICTED BY IDOCK:   -7.62 KCAL/MOL
REMARK 924 INTRA-LIGAND FREE ENERGY PREDICTED BY IDOCK:   -1.01 KCAL/MOL
REMARK 927      BINDING AFFINITY PREDICTED BY RF-SCORE:    0.00 PKD
ROOT
HETATM    1  C   UNL     1      -9.467  14.090  68.672  1.00  0.00    -0.142 C  
HETATM    2  C   UNL     1      -8.212  13.346  68.243  1.00  0.00    -0.160 C  
HETATM    3  C   UNL     1      -7.080  13.390  69.271  1.00  0.00     0.060 C  
HETATM    4  C   UNL     1      -8.249  11.983  67.544  1.00  0.00    -0.159 C  
ENDROOT
BRANCH   4   5
HETATM    5  N   UNL     1      -9.226  10.871  67.732  1.00  0.00    -0.151 N  
BRANCH   5   6
HETATM    6  C   UNL     1      -9.726  10.966  69.205  1.00  0.00    -0.122 C  
BRANCH   6   7
HETATM    7  C   UNL     1      -9.642   9.625  70.067  1.00  0.00    -0.243 C  
BRANCH   7   8
HETATM    8  C   UNL     1      -8.382   8.727  69.626  1.00  0.00    -0.126 C  
BRANCH   8   9
HETATM    9  N   UNL     1      -7.992   7.744  70.653  1.00  0.00    -0.096 N  
HETATM   10  C   UNL     1      -6.786   7.833  71.298  1.00  0.00    -0.045 C  
HETATM   11  H   UNL     1      -8.632   6.985  70.887  1.00  0.00     0.000 HD 
HETATM   12  O   UNL     1      -5.961   8.719  71.154  1.00  0.00    -0.036 OA 
BRANCH  10  13
HETATM   13  O   UNL     1      -6.645   6.784  72.154  1.00  0.00    -0.056 OA 
BRANCH  13  14
HETATM   14  C   UNL     1      -7.240   5.553  71.708  1.00  0.00    -0.089 C  
HETATM   15  C   UNL     1      -6.387   4.332  71.967  1.00  0.00    -0.021 C  
HETATM   16  O   UNL     1      -8.575   3.825  72.695  1.00  0.00    -0.092 OA 
HETATM   17  C   UNL     1      -7.408   3.231  72.117  1.00  0.00    -0.051 C  
HETATM   18  C   UNL     1      -8.492   5.247  72.523  1.00  0.00    -0.118 C  
ENDBRANCH  13  14
ENDBRANCH  10  13
ENDBRANCH   8   9
BRANCH   8  19
HETATM   19  C   UNL     1      -8.429   8.072  68.225  1.00  0.00    -0.123 C  
BRANCH  19  20
HETATM   20  C   UNL     1      -7.439   6.977  67.930  1.00  0.00    -0.099 A  
HETATM   21  C   UNL     1      -6.933   4.636  67.544  1.00  0.00    -0.061 A  
HETATM   22  C   UNL     1      -5.138   6.220  67.866  1.00  0.00    -0.004 A  
HETATM   23  C   UNL     1      -6.068   7.249  68.004  1.00  0.00    -0.031 A  
HETATM   24  C   UNL     1      -7.866   5.664  67.691  1.00  0.00    -0.097 A  
HETATM   25  C   UNL     1      -5.570   4.915  67.639  1.00  0.00    -0.017 A  
ENDBRANCH  19  20
ENDBRANCH   8  19
ENDBRANCH   7   8
BRANCH   7  26
HETATM   26  O   UNL     1     -10.941   8.933  70.166  1.00  0.00    -0.238 OA 
HETATM   27  O   UNL     1     -11.889   7.896  73.128  1.00  0.00    -0.216 OA 
HETATM   28  O   UNL     1     -12.177   9.831  71.902  1.00  0.00    -0.375 OA 
HETATM   29  O   UNL     1     -10.030   8.772  72.424  1.00  0.00    -0.282 OA 
HETATM   30  P   UNL     1     -11.441   8.386  71.729  1.00  0.00    -0.355 P  
ENDBRANCH   7  26
ENDBRANCH   6   7
ENDBRANCH   5   6
BRANCH   5  31
HETATM   31  S   UNL     1     -10.518  10.440  66.700  1.00  0.00    -0.184 S  
HETATM   32  O   UNL     1     -11.651  10.025  67.500  1.00  0.00    -0.048 OA 
HETATM   33  O   UNL     1     -10.002   9.521  65.705  1.00  0.00    -0.300 OA 
BRANCH  31  34
HETATM   34  C   UNL     1     -11.060  11.861  65.824  1.00  0.00    -0.317 A  
HETATM   35  N   UNL     1     -12.625  15.198  63.847  1.00  0.00    -0.932 NA 
HETATM   36  C   UNL     1     -11.013  11.908  64.431  1.00  0.00    -0.392 A  
HETATM   37  H1  UNL     1     -13.016  15.976  64.378  1.00  0.00     0.000 HD 
HETATM   38  H2  UNL     1     -13.341  14.859  63.204  1.00  0.00     0.000 HD 
HETATM   39  C   UNL     1     -11.745  12.844  66.542  1.00  0.00    -0.453 A  
HETATM   40  C   UNL     1     -12.251  13.954  65.882  1.00  0.00    -0.497 A  
HETATM   41  C   UNL     1     -11.533  13.026  63.777  1.00  0.00    -0.486 A  
HETATM   42  C   UNL     1     -12.070  14.096  64.506  1.00  0.00    -0.468 A  
ENDBRANCH  31  34
ENDBRANCH   5  31
ENDBRANCH   4   5
TORSDOF 12
ENDMDL
MODEL      279
REMARK 921   NORMALIZED FREE ENERGY PREDICTED BY IDOCK:   -3.37 KCAL/MOL
REMARK 922        TOTAL FREE ENERGY PREDICTED BY IDOCK:   -8.54 KCAL/MOL
REMARK 923 INTER-LIGAND FREE ENERGY PREDICTED BY IDOCK:   -8.44 KCAL/MOL
REMARK 924 INTRA-LIGAND FREE ENERGY PREDICTED BY IDOCK:   -0.10 KCAL/MOL
REMARK 927      BINDING AFFINITY PREDICTED BY RF-SCORE:    0.00 PKD
ROOT
HETATM    1  C   UNL     1      -8.349  15.865  66.557  1.00  0.00    -0.330 C  
HETATM    2  C   UNL     1      -8.187  14.802  67.631  1.00  0.00    -0.187 C  
HETATM    3  C   UNL     1      -8.191  15.353  69.059  1.00  0.00    -0.217 C  
HETATM    4  C   UNL     1      -8.900  13.447  67.578  1.00  0.00    -0.210 C  
ENDROOT
BRANCH   4   5
HETATM    5  N   UNL     1     -10.249  13.132  67.022  1.00  0.00    -0.248 N  
BRANCH   5   6
HETATM    6  C   UNL     1     -10.583  11.677  67.468  1.00  0.00    -0.209 C  
BRANCH   6   7
HETATM    7  C   UNL     1      -9.408  10.871  68.189  1.00  0.00    -0.165 C  
BRANCH   7   8
HETATM    8  C   UNL     1      -8.899   9.646  67.280  1.00  0.00    -0.132 C  
BRANCH   8   9
HETATM    9  N   UNL     1      -8.846   8.370  68.016  1.00  0.00    -0.141 N  
HETATM   10  C   UNL     1      -7.781   8.060  68.823  1.00  0.00    -0.108 C  
HETATM   11  H   UNL     1      -9.615   7.707  67.924  1.00  0.00     0.000 HD 
HETATM   12  O   UNL     1      -6.832   8.786  69.065  1.00  0.00    -0.057 OA 
BRANCH  10  13
HETATM   13  O   UNL     1      -7.948   6.814  69.344  1.00  0.00    -0.111 OA 
BRANCH  13  14
HETATM   14  C   UNL     1      -7.486   6.655  70.697  1.00  0.00    -0.083 C  
HETATM   15  C   UNL     1      -8.373   5.774  71.547  1.00  0.00    -0.127 C  
HETATM   16  O   UNL     1      -6.147   5.064  71.888  1.00  0.00    -0.023 OA 
HETATM   17  C   UNL     1      -7.409   5.191  72.551  1.00  0.00    -0.094 C  
HETATM   18  C   UNL     1      -6.165   5.894  70.717  1.00  0.00    -0.034 C  
ENDBRANCH  13  14
ENDBRANCH  10  13
ENDBRANCH   8   9
BRANCH   8  19
HETATM   19  C   UNL     1      -9.567   9.457  65.897  1.00  0.00    -0.338 C  
BRANCH  19  20
HETATM   20  C   UNL     1      -8.835   9.974  64.688  1.00  0.00    -0.227 A  
HETATM   21  C   UNL     1      -8.848  10.833  62.419  1.00  0.00    -0.341 A  
HETATM   22  C   UNL     1      -6.760  10.205  63.458  1.00  0.00    -0.124 A  
HETATM   23  C   UNL     1      -7.442   9.854  64.622  1.00  0.00    -0.140 A  
HETATM   24  C   UNL     1      -9.534  10.474  63.580  1.00  0.00    -0.347 A  
HETATM   25  C   UNL     1      -7.463  10.690  62.357  1.00  0.00    -0.158 A  
ENDBRANCH  19  20
ENDBRANCH   8  19
ENDBRANCH   7   8
BRANCH   7  26
HETATM   26  O   UNL     1      -9.717  10.560  69.598  1.00  0.00    -0.176 OA 
HETATM   27  O   UNL     1     -12.849   9.974  70.372  1.00  0.00    -0.176 OA 
HETATM   28  O   UNL     1     -11.058   8.678  69.709  1.00  0.00    -0.190 OA 
HETATM   29  O   UNL     1     -11.912  10.651  68.534  1.00  0.00    -0.425 OA 
HETATM   30  P   UNL     1     -11.369  10.250  70.006  1.00  0.00    -0.319 P  
ENDBRANCH   7  26
ENDBRANCH   6   7
ENDBRANCH   5   6
BRANCH   5  31
HETATM   31  S   UNL     1     -11.652  14.104  67.091  1.00  0.00    -0.396 S  
HETATM   32  O   UNL     1     -12.810  13.296  66.766  1.00  0.00     0.039 OA 
HETATM   33  O   UNL     1     -11.403  15.298  66.309  1.00  0.00    -0.280 OA 
BRANCH  31  34
HETATM   34  C   UNL     1     -11.906  14.640  68.743  1.00  0.00    -0.313 A  
HETATM   35  N   UNL     1     -12.221  15.978  72.693  1.00  0.00    -0.480 NA 
HETATM   36  C   UNL     1     -12.344  13.753  69.726  1.00  0.00    -0.311 A  
HETATM   37  H1  UNL     1     -12.001  16.946  72.929  1.00  0.00     0.000 HD 
HETATM   38  H2  UNL     1     -11.636  15.369  73.265  1.00  0.00     0.000 HD 
HETATM   39  C   UNL     1     -11.444  15.911  69.092  1.00  0.00    -0.377 A  
HETATM   40  C   UNL     1     -11.563  16.353  70.400  1.00  0.00    -0.058 A  
HETATM   41  C   UNL     1     -12.451  14.207  71.042  1.00  0.00    -0.438 A  
HETATM   42  C   UNL     1     -12.149  15.536  71.367  1.00  0.00    -0.393 A  
ENDBRANCH  31  34
ENDBRANCH   5  31
ENDBRANCH   4   5
TORSDOF 12
ENDMDL
MODEL      280
REMARK 921   NORMALIZED FREE ENERGY PREDICTED BY IDOCK:   -3.37 KCAL/MOL
REMARK 922        TOTAL FREE ENERGY PREDICTED BY IDOCK:   -8.54 KCAL/MOL
REMARK 923 INTER-LIGAND FREE ENERGY PREDICTED BY IDOCK:   -7.37 KCAL/MOL
REMARK 924 INTRA-LIGAND FREE ENERGY PREDICTED BY IDOCK:   -1.17 KCAL/MOL
REMARK 927      BINDING AFFINITY PREDICTED BY RF-SCORE:    0.00 PKD
ROOT
HETATM    1  C   UNL     1      -5.627  11.257  70.577  1.00  0.00    -0.141 C  
HETATM    2  C   UNL     1      -5.966  10.096  69.658  1.00  0.00    -0.044 C  
HETATM    3  C   UNL     1      -6.997   9.123  70.236  1.00  0.00    -0.059 C  
HETATM    4  C   UNL     1      -6.173  10.260  68.148  1.00  0.00    -0.052 C  
ENDROOT
BRANCH   4   5
HETATM    5  N   UNL     1      -6.751  11.423  67.413  1.00  0.00    -0.085 N  
BRANCH   5   6
HETATM    6  C   UNL     1      -7.038  10.933  65.963  1.00  0.00    -0.067 C  
BRANCH   6   7
HETATM    7  C   UNL     1      -7.857   9.570  65.827  1.00  0.00    -0.104 C  
BRANCH   7   8
HETATM    8  C   UNL     1      -9.404   9.779  66.214  1.00  0.00    -0.180 C  
BRANCH   8   9
HETATM    9  N   UNL     1     -10.085  10.755  65.344  1.00  0.00    -0.270 N  
HETATM   10  C   UNL     1     -11.207  11.421  65.766  1.00  0.00    -0.090 C  
HETATM   11  H   UNL     1      -9.714  10.939  64.412  1.00  0.00     0.000 HD 
HETATM   12  O   UNL     1     -11.715  11.336  66.872  1.00  0.00    -0.464 OA 
BRANCH  10  13
HETATM   13  O   UNL     1     -11.670  12.220  64.767  1.00  0.00    -0.350 OA 
BRANCH  13  14
HETATM   14  C   UNL     1     -11.878  13.595  65.137  1.00  0.00    -0.348 C  
HETATM   15  C   UNL     1     -10.601  14.398  65.251  1.00  0.00    -0.398 C  
HETATM   16  O   UNL     1     -12.122  15.676  63.974  1.00  0.00    -0.587 OA 
HETATM   17  C   UNL     1     -11.052  15.799  64.917  1.00  0.00    -0.399 C  
HETATM   18  C   UNL     1     -12.621  14.332  64.028  1.00  0.00     0.038 C  
ENDBRANCH  13  14
ENDBRANCH  10  13
ENDBRANCH   8   9
BRANCH   8  19
HETATM   19  C   UNL     1     -10.271   8.511  66.402  1.00  0.00    -0.193 C  
BRANCH  19  20
HETATM   20  C   UNL     1     -10.471   8.001  67.804  1.00  0.00    -0.280 A  
HETATM   21  C   UNL     1     -11.208   6.270  69.336  1.00  0.00    -0.489 A  
HETATM   22  C   UNL     1     -10.636   8.461  70.177  1.00  0.00    -0.235 A  
HETATM   23  C   UNL     1     -10.326   8.879  68.885  1.00  0.00    -0.229 A  
HETATM   24  C   UNL     1     -10.907   6.690  68.040  1.00  0.00    -0.345 A  
HETATM   25  C   UNL     1     -11.080   7.159  70.402  1.00  0.00    -0.309 A  
ENDBRANCH  19  20
ENDBRANCH   8  19
ENDBRANCH   7   8
BRANCH   7  26
HETATM   26  O   UNL     1      -7.169   8.430  66.462  1.00  0.00    -0.075 OA 
HETATM   27  O   UNL     1      -6.422   5.859  64.569  1.00  0.00    -0.032 OA 
HETATM   28  O   UNL     1      -5.345   7.806  65.183  1.00  0.00    -0.029 OA 
HETATM   29  O   UNL     1      -7.576   7.658  64.183  1.00  0.00    -0.098 OA 
HETATM   30  P   UNL     1      -6.775   7.074  65.462  1.00  0.00    -0.053 P  
ENDBRANCH   7  26
ENDBRANCH   6   7
ENDBRANCH   5   6
BRANCH   5  31
HETATM   31  S   UNL     1      -7.998  12.466  67.939  1.00  0.00    -0.169 S  
HETATM   32  O   UNL     1      -8.740  11.824  69.005  1.00  0.00     0.055 OA 
HETATM   33  O   UNL     1      -8.723  12.916  66.768  1.00  0.00    -0.190 OA 
BRANCH  31  34
HETATM   34  C   UNL     1      -7.290  13.900  68.662  1.00  0.00    -0.117 A  
HETATM   35  N   UNL     1      -5.631  17.451  70.121  1.00  0.00    -0.240 NA 
HETATM   36  C   UNL     1      -5.984  13.887  69.151  1.00  0.00    -0.092 A  
HETATM   37  H1  UNL     1      -6.182  18.309  70.139  1.00  0.00     0.000 HD 
HETATM   38  H2  UNL     1      -4.781  17.629  69.586  1.00  0.00     0.000 HD 
HETATM   39  C   UNL     1      -7.983  15.105  68.529  1.00  0.00    -0.142 A  
HETATM   40  C   UNL     1      -7.434  16.276  69.026  1.00  0.00    -0.220 A  
HETATM   41  C   UNL     1      -5.437  15.075  69.641  1.00  0.00    -0.096 A  
HETATM   42  C   UNL     1      -6.194  16.254  69.666  1.00  0.00    -0.195 A  
ENDBRANCH  31  34
ENDBRANCH   5  31
ENDBRANCH   4   5
TORSDOF 12
ENDMDL
MODEL      281
REMARK 921   NORMALIZED FREE ENERGY PREDICTED BY IDOCK:   -3.36 KCAL/MOL
REMARK 922        TOTAL FREE ENERGY PREDICTED BY IDOCK:   -8.52 KCAL/MOL
REMARK 923 INTER-LIGAND FREE ENERGY PREDICTED BY IDOCK:   -8.50 KCAL/MOL
REMARK 924 INTRA-LIGAND FREE ENERGY PREDICTED BY IDOCK:   -0.02 KCAL/MOL
REMARK 927      BINDING AFFINITY PREDICTED BY RF-SCORE:    0.00 PKD
ROOT
HETATM    1  C   UNL     1     -12.909  11.353  71.695  1.00  0.00    -0.497 C  
HETATM    2  C   UNL     1     -12.580  11.681  70.248  1.00  0.00    -0.159 C  
HETATM    3  C   UNL     1     -11.973  13.071  70.046  1.00  0.00    -0.383 C  
HETATM    4  C   UNL     1     -11.939  10.672  69.288  1.00  0.00    -0.197 C  
ENDROOT
BRANCH   4   5
HETATM    5  N   UNL     1     -10.954   9.595  69.600  1.00  0.00    -0.239 N  
BRANCH   5   6
HETATM    6  C   UNL     1      -9.541  10.242  69.489  1.00  0.00    -0.202 C  
BRANCH   6   7
HETATM    7  C   UNL     1      -9.370  11.383  68.385  1.00  0.00    -0.194 C  
BRANCH   7   8
HETATM    8  C   UNL     1      -9.436  10.770  66.899  1.00  0.00    -0.168 C  
BRANCH   8   9
HETATM    9  N   UNL     1      -8.744   9.473  66.785  1.00  0.00    -0.127 N  
HETATM   10  C   UNL     1      -9.445   8.294  66.755  1.00  0.00    -0.198 C  
HETATM   11  H   UNL     1      -7.726   9.452  66.726  1.00  0.00     0.000 HD 
HETATM   12  O   UNL     1     -10.660   8.185  66.759  1.00  0.00    -0.313 OA 
BRANCH  10  13
HETATM   13  O   UNL     1      -8.579   7.246  66.699  1.00  0.00    -0.118 OA 
BRANCH  13  14
HETATM   14  C   UNL     1      -8.490   6.602  65.415  1.00  0.00    -0.107 C  
HETATM   15  C   UNL     1      -7.191   6.864  64.688  1.00  0.00    -0.076 C  
HETATM   16  O   UNL     1      -7.599   4.541  64.578  1.00  0.00    -0.071 OA 
HETATM   17  C   UNL     1      -7.019   5.625  63.844  1.00  0.00    -0.050 C  
HETATM   18  C   UNL     1      -8.460   5.087  65.588  1.00  0.00    -0.127 C  
ENDBRANCH  13  14
ENDBRANCH  10  13
ENDBRANCH   8   9
BRANCH   8  19
HETATM   19  C   UNL     1     -10.819  10.720  66.208  1.00  0.00    -0.143 C  
BRANCH  19  20
HETATM   20  C   UNL     1     -11.299  11.964  65.511  1.00  0.00    -0.334 A  
HETATM   21  C   UNL     1     -12.468  14.090  65.552  1.00  0.00    -0.533 A  
HETATM   22  C   UNL     1     -11.790  13.128  63.443  1.00  0.00    -0.490 A  
HETATM   23  C   UNL     1     -11.231  12.043  64.115  1.00  0.00    -0.441 A  
HETATM   24  C   UNL     1     -11.916  13.000  66.227  1.00  0.00    -0.477 A  
HETATM   25  C   UNL     1     -12.411  14.148  64.161  1.00  0.00    -0.267 A  
ENDBRANCH  19  20
ENDBRANCH   8  19
ENDBRANCH   7   8
BRANCH   7  26
HETATM   26  O   UNL     1      -8.239  12.285  68.674  1.00  0.00    -0.115 OA 
HETATM   27  O   UNL     1      -5.393  10.919  69.558  1.00  0.00    -0.038 OA 
HETATM   28  O   UNL     1      -6.350  11.557  67.556  1.00  0.00    -0.061 OA 
HETATM   29  O   UNL     1      -7.365  10.074  69.222  1.00  0.00    -0.074 OA 
HETATM   30  P   UNL     1      -6.737  11.564  69.140  1.00  0.00    -0.109 P  
ENDBRANCH   7  26
ENDBRANCH   6   7
ENDBRANCH   5   6
BRANCH   5  31
HETATM   31  S   UNL     1     -10.996   8.498  70.909  1.00  0.00    -0.260 S  
HETATM   32  O   UNL     1     -12.368   8.113  71.165  1.00  0.00    -0.294 OA 
HETATM   33  O   UNL     1     -10.227   9.073  71.994  1.00  0.00    -0.339 OA 
BRANCH  31  34
HETATM   34  C   UNL     1     -10.173   7.017  70.451  1.00  0.00    -0.196 A  
HETATM   35  N   UNL     1      -8.037   3.651  69.187  1.00  0.00    -0.057 NA 
HETATM   36  C   UNL     1     -10.849   5.998  69.781  1.00  0.00    -0.433 A  
HETATM   37  H1  UNL     1      -7.040   3.568  69.385  1.00  0.00     0.000 HD 
HETATM   38  H2  UNL     1      -8.169   3.572  68.178  1.00  0.00     0.000 HD 
HETATM   39  C   UNL     1      -8.782   6.983  70.573  1.00  0.00    -0.153 A  
HETATM   40  C   UNL     1      -8.081   5.859  70.164  1.00  0.00    -0.110 A  
HETATM   41  C   UNL     1     -10.131   4.875  69.365  1.00  0.00    -0.270 A  
HETATM   42  C   UNL     1      -8.762   4.760  69.638  1.00  0.00    -0.085 A  
ENDBRANCH  31  34
ENDBRANCH   5  31
ENDBRANCH   4   5
TORSDOF 12
ENDMDL
MODEL      282
REMARK 921   NORMALIZED FREE ENERGY PREDICTED BY IDOCK:   -3.35 KCAL/MOL
REMARK 922        TOTAL FREE ENERGY PREDICTED BY IDOCK:   -8.51 KCAL/MOL
REMARK 923 INTER-LIGAND FREE ENERGY PREDICTED BY IDOCK:   -7.24 KCAL/MOL
REMARK 924 INTRA-LIGAND FREE ENERGY PREDICTED BY IDOCK:   -1.27 KCAL/MOL
REMARK 927      BINDING AFFINITY PREDICTED BY RF-SCORE:    0.00 PKD
ROOT
HETATM    1  C   UNL     1     -11.675  14.564  69.534  1.00  0.00    -0.361 C  
HETATM    2  C   UNL     1     -11.969  13.596  68.399  1.00  0.00    -0.391 C  
HETATM    3  C   UNL     1     -12.053  14.257  67.022  1.00  0.00    -0.424 C  
HETATM    4  C   UNL     1     -11.315  12.214  68.291  1.00  0.00    -0.289 C  
ENDROOT
BRANCH   4   5
HETATM    5  N   UNL     1      -9.942  11.804  68.708  1.00  0.00    -0.163 N  
BRANCH   5   6
HETATM    6  C   UNL     1      -9.977  10.256  68.888  1.00  0.00    -0.201 C  
BRANCH   6   7
HETATM    7  C   UNL     1     -10.696   9.714  70.206  1.00  0.00    -0.281 C  
BRANCH   7   8
HETATM    8  C   UNL     1      -9.941   8.419  70.790  1.00  0.00    -0.189 C  
BRANCH   8   9
HETATM    9  N   UNL     1      -9.744   7.367  69.777  1.00  0.00    -0.170 N  
HETATM   10  C   UNL     1     -10.602   6.301  69.683  1.00  0.00    -0.264 C  
HETATM   11  H   UNL     1      -8.955   7.433  69.133  1.00  0.00     0.000 HD 
HETATM   12  O   UNL     1     -11.610   6.135  70.349  1.00  0.00    -0.343 OA 
BRANCH  10  13
HETATM   13  O   UNL     1     -10.174   5.451  68.711  1.00  0.00    -0.178 OA 
BRANCH  13  14
HETATM   14  C   UNL     1      -9.301   4.401  69.164  1.00  0.00    -0.155 C  
HETATM   15  C   UNL     1      -9.487   3.091  68.433  1.00  0.00    -0.211 C  
HETATM   16  O   UNL     1      -7.168   3.527  68.509  1.00  0.00    -0.050 OA 
HETATM   17  C   UNL     1      -8.120   2.458  68.518  1.00  0.00    -0.056 C  
HETATM   18  C   UNL     1      -7.851   4.745  68.840  1.00  0.00    -0.076 C  
ENDBRANCH  13  14
ENDBRANCH  10  13
ENDBRANCH   8   9
BRANCH   8  19
HETATM   19  C   UNL     1      -8.644   8.654  71.600  1.00  0.00    -0.254 C  
BRANCH  19  20
HETATM   20  C   UNL     1      -8.254   7.613  72.615  1.00  0.00    -0.153 A  
HETATM   21  C   UNL     1      -6.658   6.006  73.483  1.00  0.00    -0.074 A  
HETATM   22  C   UNL     1      -8.911   6.057  74.351  1.00  0.00    -0.134 A  
HETATM   23  C   UNL     1      -9.219   7.113  73.496  1.00  0.00    -0.220 A  
HETATM   24  C   UNL     1      -6.967   7.057  72.620  1.00  0.00    -0.069 A  
HETATM   25  C   UNL     1      -7.633   5.502  74.343  1.00  0.00    -0.095 A  
ENDBRANCH  19  20
ENDBRANCH   8  19
ENDBRANCH   7   8
BRANCH   7  26
HETATM   26  O   UNL     1     -12.159   9.606  70.049  1.00  0.00    -0.001 OA 
HETATM   27  O   UNL     1     -13.952   9.201  72.764  1.00  0.00    -0.450 OA 
HETATM   28  O   UNL     1     -13.213  11.018  71.548  1.00  0.00    -0.388 OA 
HETATM   29  O   UNL     1     -11.806   9.218  72.432  1.00  0.00    -0.194 OA 
HETATM   30  P   UNL     1     -13.105   9.393  71.482  1.00  0.00    -0.373 P  
ENDBRANCH   7  26
ENDBRANCH   6   7
ENDBRANCH   5   6
BRANCH   5  31
HETATM   31  S   UNL     1      -8.459  12.280  68.005  1.00  0.00    -0.178 S  
HETATM   32  O   UNL     1      -7.515  12.603  69.054  1.00  0.00    -0.034 OA 
HETATM   33  O   UNL     1      -8.747  13.287  67.003  1.00  0.00    -0.212 OA 
BRANCH  31  34
HETATM   34  C   UNL     1      -7.758  10.918  67.149  1.00  0.00    -0.123 A  
HETATM   35  N   UNL     1      -5.820   7.787  65.167  1.00  0.00    -0.037 NA 
HETATM   36  C   UNL     1      -8.009  10.716  65.793  1.00  0.00    -0.152 A  
HETATM   37  H1  UNL     1      -5.189   7.166  65.675  1.00  0.00     0.000 HD 
HETATM   38  H2  UNL     1      -5.305   8.196  64.387  1.00  0.00     0.000 HD 
HETATM   39  C   UNL     1      -6.770  10.179  67.804  1.00  0.00    -0.071 A  
HETATM   40  C   UNL     1      -6.140   9.134  67.145  1.00  0.00    -0.057 A  
HETATM   41  C   UNL     1      -7.362   9.666  65.137  1.00  0.00    -0.115 A  
HETATM   42  C   UNL     1      -6.496   8.814  65.834  1.00  0.00    -0.057 A  
ENDBRANCH  31  34
ENDBRANCH   5  31
ENDBRANCH   4   5
TORSDOF 12
ENDMDL
MODEL      283
REMARK 921   NORMALIZED FREE ENERGY PREDICTED BY IDOCK:   -3.32 KCAL/MOL
REMARK 922        TOTAL FREE ENERGY PREDICTED BY IDOCK:   -8.46 KCAL/MOL
REMARK 923 INTER-LIGAND FREE ENERGY PREDICTED BY IDOCK:   -8.77 KCAL/MOL
REMARK 924 INTRA-LIGAND FREE ENERGY PREDICTED BY IDOCK:    0.32 KCAL/MOL
REMARK 927      BINDING AFFINITY PREDICTED BY RF-SCORE:    0.00 PKD
ROOT
HETATM    1  C   UNL     1     -12.138  12.330  68.052  1.00  0.00    -0.063 C  
HETATM    2  C   UNL     1     -11.179  11.762  69.085  1.00  0.00    -0.324 C  
HETATM    3  C   UNL     1     -11.858  10.932  70.177  1.00  0.00    -0.438 C  
HETATM    4  C   UNL     1      -9.820  11.155  68.719  1.00  0.00    -0.192 C  
ENDROOT
BRANCH   4   5
HETATM    5  N   UNL     1      -9.447  10.394  67.491  1.00  0.00    -0.148 N  
BRANCH   5   6
HETATM    6  C   UNL     1     -10.219   9.042  67.556  1.00  0.00    -0.241 C  
BRANCH   6   7
HETATM    7  C   UNL     1      -9.362   7.757  67.959  1.00  0.00    -0.141 C  
BRANCH   7   8
HETATM    8  C   UNL     1      -9.116   7.696  69.547  1.00  0.00    -0.146 C  
BRANCH   8   9
HETATM    9  N   UNL     1     -10.370   7.735  70.322  1.00  0.00    -0.211 N  
HETATM   10  C   UNL     1     -11.430   6.927  69.997  1.00  0.00    -0.277 C  
HETATM   11  H   UNL     1     -10.450   8.373  71.113  1.00  0.00     0.000 HD 
HETATM   12  O   UNL     1     -11.443   6.084  69.116  1.00  0.00    -0.316 OA 
BRANCH  10  13
HETATM   13  O   UNL     1     -12.478   7.190  70.825  1.00  0.00    -0.301 OA 
BRANCH  13  14
HETATM   14  C   UNL     1     -12.220   6.959  72.222  1.00  0.00    -0.138 C  
HETATM   15  C   UNL     1     -11.550   5.634  72.509  1.00  0.00    -0.303 C  
HETATM   16  O   UNL     1     -10.374   7.291  73.713  1.00  0.00    -0.360 OA 
HETATM   17  C   UNL     1     -10.770   5.917  73.770  1.00  0.00    -0.194 C  
HETATM   18  C   UNL     1     -11.190   7.957  72.739  1.00  0.00    -0.405 C  
ENDBRANCH  13  14
ENDBRANCH  10  13
ENDBRANCH   8   9
BRANCH   8  19
HETATM   19  C   UNL     1      -8.172   6.594  70.083  1.00  0.00    -0.133 C  
BRANCH  19  20
HETATM   20  C   UNL     1      -8.623   5.164  69.960  1.00  0.00    -0.109 A  
HETATM   21  C   UNL     1      -9.333   3.079  70.977  1.00  0.00    -0.214 A  
HETATM   22  C   UNL     1      -8.810   3.154  68.620  1.00  0.00    -0.166 A  
HETATM   23  C   UNL     1      -8.523   4.513  68.725  1.00  0.00    -0.093 A  
HETATM   24  C   UNL     1      -9.038   4.439  71.085  1.00  0.00    -0.180 A  
HETATM   25  C   UNL     1      -9.211   2.437  69.746  1.00  0.00    -0.188 A  
ENDBRANCH  19  20
ENDBRANCH   8  19
ENDBRANCH   7   8
BRANCH   7  26
HETATM   26  O   UNL     1      -8.174   7.578  67.103  1.00  0.00    -0.112 OA 
HETATM   27  O   UNL     1      -8.422   5.505  64.575  1.00  0.00    -0.139 OA 
HETATM   28  O   UNL     1      -8.777   7.766  64.878  1.00  0.00     0.014 OA 
HETATM   29  O   UNL     1      -9.775   5.968  66.209  1.00  0.00    -0.151 OA 
HETATM   30  P   UNL     1      -8.305   6.484  65.769  1.00  0.00    -0.136 P  
ENDBRANCH   7  26
ENDBRANCH   6   7
ENDBRANCH   5   6
BRANCH   5  31
HETATM   31  S   UNL     1      -9.411  10.972  65.883  1.00  0.00    -0.212 S  
HETATM   32  O   UNL     1     -10.520  10.404  65.145  1.00  0.00    -0.255 OA 
HETATM   33  O   UNL     1      -8.069  10.776  65.372  1.00  0.00    -0.138 OA 
BRANCH  31  34
HETATM   34  C   UNL     1      -9.690  12.705  65.883  1.00  0.00    -0.207 A  
HETATM   35  N   UNL     1     -10.283  16.835  65.595  1.00  0.00    -0.577 NA 
HETATM   36  C   UNL     1      -8.909  13.558  66.663  1.00  0.00    -0.080 A  
HETATM   37  H1  UNL     1     -11.003  17.211  64.979  1.00  0.00     0.000 HD 
HETATM   38  H2  UNL     1      -9.389  17.250  65.331  1.00  0.00     0.000 HD 
HETATM   39  C   UNL     1     -10.556  13.223  64.918  1.00  0.00    -0.381 A  
HETATM   40  C   UNL     1     -10.757  14.593  64.836  1.00  0.00    -0.447 A  
HETATM   41  C   UNL     1      -9.115  14.936  66.565  1.00  0.00    -0.309 A  
HETATM   42  C   UNL     1     -10.104  15.453  65.719  1.00  0.00    -0.363 A  
ENDBRANCH  31  34
ENDBRANCH   5  31
ENDBRANCH   4   5
TORSDOF 12
ENDMDL
MODEL      284
REMARK 921   NORMALIZED FREE ENERGY PREDICTED BY IDOCK:   -3.30 KCAL/MOL
REMARK 922        TOTAL FREE ENERGY PREDICTED BY IDOCK:   -8.43 KCAL/MOL
REMARK 923 INTER-LIGAND FREE ENERGY PREDICTED BY IDOCK:   -8.25 KCAL/MOL
REMARK 924 INTRA-LIGAND FREE ENERGY PREDICTED BY IDOCK:   -0.18 KCAL/MOL
REMARK 927      BINDING AFFINITY PREDICTED BY RF-SCORE:    0.00 PKD
ROOT
HETATM    1  C   UNL     1      -8.011  16.244  67.410  1.00  0.00    -0.179 C  
HETATM    2  C   UNL     1      -7.977  15.021  68.312  1.00  0.00    -0.128 C  
HETATM    3  C   UNL     1      -8.242  15.328  69.787  1.00  0.00    -0.009 C  
HETATM    4  C   UNL     1      -8.606  13.679  67.922  1.00  0.00    -0.181 C  
ENDROOT
BRANCH   4   5
HETATM    5  N   UNL     1      -9.828  13.432  67.103  1.00  0.00    -0.233 N  
BRANCH   5   6
HETATM    6  C   UNL     1     -10.154  11.915  67.239  1.00  0.00    -0.196 C  
BRANCH   6   7
HETATM    7  C   UNL     1      -9.377  11.125  68.389  1.00  0.00    -0.185 C  
BRANCH   7   8
HETATM    8  C   UNL     1      -8.936   9.660  67.892  1.00  0.00    -0.118 C  
BRANCH   8   9
HETATM    9  N   UNL     1      -8.785   8.701  69.002  1.00  0.00    -0.133 N  
HETATM   10  C   UNL     1      -7.577   8.523  69.627  1.00  0.00    -0.088 C  
HETATM   11  H   UNL     1      -9.593   8.161  69.310  1.00  0.00     0.000 HD 
HETATM   12  O   UNL     1      -6.554   9.145  69.395  1.00  0.00    -0.043 OA 
BRANCH  10  13
HETATM   13  O   UNL     1      -7.689   7.553  70.574  1.00  0.00    -0.091 OA 
BRANCH  13  14
HETATM   14  C   UNL     1      -8.713   7.781  71.558  1.00  0.00    -0.121 C  
HETATM   15  C   UNL     1      -9.530   6.552  71.887  1.00  0.00    -0.153 C  
HETATM   16  O   UNL     1      -8.905   7.548  73.935  1.00  0.00    -0.201 OA 
HETATM   17  C   UNL     1      -9.957   6.802  73.314  1.00  0.00    -0.203 C  
HETATM   18  C   UNL     1      -8.084   8.118  72.906  1.00  0.00    -0.167 C  
ENDBRANCH  13  14
ENDBRANCH  10  13
ENDBRANCH   8   9
BRANCH   8  19
HETATM   19  C   UNL     1      -9.734   9.031  66.725  1.00  0.00    -0.279 C  
BRANCH  19  20
HETATM   20  C   UNL     1      -9.570   7.555  66.480  1.00  0.00    -0.239 A  
HETATM   21  C   UNL     1      -8.442   5.711  65.380  1.00  0.00    -0.147 A  
HETATM   22  C   UNL     1     -10.485   5.315  66.607  1.00  0.00    -0.345 A  
HETATM   23  C   UNL     1     -10.550   6.667  66.938  1.00  0.00    -0.376 A  
HETATM   24  C   UNL     1      -8.510   7.066  65.703  1.00  0.00    -0.144 A  
HETATM   25  C   UNL     1      -9.434   4.838  65.826  1.00  0.00    -0.173 A  
ENDBRANCH  19  20
ENDBRANCH   8  19
ENDBRANCH   7   8
BRANCH   7  26
HETATM   26  O   UNL     1     -10.065  11.198  69.691  1.00  0.00     0.023 OA 
HETATM   27  O   UNL     1     -13.268  10.500  69.757  1.00  0.00     0.007 OA 
HETATM   28  O   UNL     1     -11.323   9.285  70.021  1.00  0.00    -0.214 OA 
HETATM   29  O   UNL     1     -11.866  10.725  68.114  1.00  0.00    -0.533 OA 
HETATM   30  P   UNL     1     -11.755  10.829  69.726  1.00  0.00    -0.351 P  
ENDBRANCH   7  26
ENDBRANCH   6   7
ENDBRANCH   5   6
BRANCH   5  31
HETATM   31  S   UNL     1     -11.272  14.345  67.094  1.00  0.00    -0.341 S  
HETATM   32  O   UNL     1     -12.374  13.493  66.696  1.00  0.00    -0.376 OA 
HETATM   33  O   UNL     1     -11.027  15.555  66.335  1.00  0.00    -0.309 OA 
BRANCH  31  34
HETATM   34  C   UNL     1     -11.646  14.856  68.731  1.00  0.00    -0.323 A  
HETATM   35  N   UNL     1     -12.825  16.052  72.561  1.00  0.00    -0.435 NA 
HETATM   36  C   UNL     1     -11.267  16.115  69.194  1.00  0.00    -0.336 A  
HETATM   37  H1  UNL     1     -13.363  15.422  73.156  1.00  0.00     0.000 HD 
HETATM   38  H2  UNL     1     -13.350  16.920  72.457  1.00  0.00     0.000 HD 
HETATM   39  C   UNL     1     -12.523  14.063  69.474  1.00  0.00    -0.159 A  
HETATM   40  C   UNL     1     -12.900  14.459  70.748  1.00  0.00    -0.417 A  
HETATM   41  C   UNL     1     -11.660  16.507  70.475  1.00  0.00     0.076 A  
HETATM   42  C   UNL     1     -12.400  15.643  71.293  1.00  0.00    -0.426 A  
ENDBRANCH  31  34
ENDBRANCH   5  31
ENDBRANCH   4   5
TORSDOF 12
ENDMDL
MODEL      285
REMARK 921   NORMALIZED FREE ENERGY PREDICTED BY IDOCK:   -3.28 KCAL/MOL
REMARK 922        TOTAL FREE ENERGY PREDICTED BY IDOCK:   -8.38 KCAL/MOL
REMARK 923 INTER-LIGAND FREE ENERGY PREDICTED BY IDOCK:   -6.97 KCAL/MOL
REMARK 924 INTRA-LIGAND FREE ENERGY PREDICTED BY IDOCK:   -1.41 KCAL/MOL
REMARK 927      BINDING AFFINITY PREDICTED BY RF-SCORE:    0.00 PKD
ROOT
HETATM    1  C   UNL     1     -12.416  13.374  67.027  1.00  0.00    -0.071 C  
HETATM    2  C   UNL     1     -11.829  13.071  68.396  1.00  0.00    -0.370 C  
HETATM    3  C   UNL     1     -12.256  11.719  68.972  1.00  0.00    -0.132 C  
HETATM    4  C   UNL     1     -10.373  13.375  68.766  1.00  0.00    -0.152 C  
ENDROOT
BRANCH   4   5
HETATM    5  N   UNL     1      -9.167  13.331  67.889  1.00  0.00    -0.205 N  
BRANCH   5   6
HETATM    6  C   UNL     1      -9.250  11.998  67.086  1.00  0.00    -0.190 C  
BRANCH   6   7
HETATM    7  C   UNL     1      -8.098  10.930  67.368  1.00  0.00    -0.114 C  
BRANCH   7   8
HETATM    8  C   UNL     1      -7.588  11.012  68.891  1.00  0.00    -0.134 C  
BRANCH   8   9
HETATM    9  N   UNL     1      -8.598  10.544  69.858  1.00  0.00    -0.338 N  
HETATM   10  C   UNL     1      -9.356   9.429  69.609  1.00  0.00    -0.189 C  
HETATM   11  H   UNL     1      -8.735  11.059  70.728  1.00  0.00     0.000 HD 
HETATM   12  O   UNL     1      -9.251   8.695  68.641  1.00  0.00    -0.139 OA 
BRANCH  10  13
HETATM   13  O   UNL     1     -10.243   9.241  70.623  1.00  0.00    -0.229 OA 
BRANCH  13  14
HETATM   14  C   UNL     1     -10.128   7.978  71.305  1.00  0.00    -0.185 C  
HETATM   15  C   UNL     1      -9.886   8.106  72.792  1.00  0.00    -0.353 C  
HETATM   16  O   UNL     1     -11.608   6.518  72.495  1.00  0.00    -0.265 OA 
HETATM   17  C   UNL     1     -10.503   6.844  73.344  1.00  0.00    -0.331 C  
HETATM   18  C   UNL     1     -11.456   7.231  71.259  1.00  0.00    -0.276 C  
ENDBRANCH  13  14
ENDBRANCH  10  13
ENDBRANCH   8   9
BRANCH   8  19
HETATM   19  C   UNL     1      -6.198  10.413  69.213  1.00  0.00    -0.046 C  
BRANCH  19  20
HETATM   20  C   UNL     1      -6.115   8.932  69.469  1.00  0.00    -0.036 A  
HETATM   21  C   UNL     1      -6.190   6.644  68.668  1.00  0.00    -0.027 A  
HETATM   22  C   UNL     1      -6.182   7.090  71.042  1.00  0.00    -0.036 A  
HETATM   23  C   UNL     1      -6.124   8.459  70.786  1.00  0.00    -0.033 A  
HETATM   24  C   UNL     1      -6.141   8.014  68.410  1.00  0.00    -0.045 A  
HETATM   25  C   UNL     1      -6.218   6.184  69.984  1.00  0.00    -0.031 A  
ENDBRANCH  19  20
ENDBRANCH   8  19
ENDBRANCH   7   8
BRANCH   7  26
HETATM   26  O   UNL     1      -7.055  10.935  66.325  1.00  0.00    -0.131 OA 
HETATM   27  O   UNL     1      -7.091   8.499  64.131  1.00  0.00    -0.084 OA 
HETATM   28  O   UNL     1      -8.022  10.608  64.249  1.00  0.00    -0.058 OA 
HETATM   29  O   UNL     1      -8.250   8.844  65.934  1.00  0.00    -0.111 OA 
HETATM   30  P   UNL     1      -7.074   9.650  65.167  1.00  0.00    -0.127 P  
ENDBRANCH   7  26
ENDBRANCH   6   7
ENDBRANCH   5   6
BRANCH   5  31
HETATM   31  S   UNL     1      -8.565  14.581  66.891  1.00  0.00    -0.127 S  
HETATM   32  O   UNL     1      -9.200  14.503  65.592  1.00  0.00    -0.037 OA 
HETATM   33  O   UNL     1      -7.118  14.541  66.955  1.00  0.00    -0.095 OA 
BRANCH  31  34
HETATM   34  C   UNL     1      -9.045  16.134  67.552  1.00  0.00    -0.203 A  
HETATM   35  N   UNL     1     -10.239  19.927  68.849  1.00  0.00    -0.563 NA 
HETATM   36  C   UNL     1      -8.139  16.925  68.257  1.00  0.00    -0.217 A  
HETATM   37  H1  UNL     1     -11.187  20.259  68.670  1.00  0.00     0.000 HD 
HETATM   38  H2  UNL     1      -9.585  20.601  68.451  1.00  0.00     0.000 HD 
HETATM   39  C   UNL     1     -10.282  16.652  67.161  1.00  0.00    -0.290 A  
HETATM   40  C   UNL     1     -10.677  17.905  67.604  1.00  0.00    -0.343 A  
HETATM   41  C   UNL     1      -8.545  18.189  68.691  1.00  0.00    -0.282 A  
HETATM   42  C   UNL     1      -9.847  18.646  68.447  1.00  0.00    -0.384 A  
ENDBRANCH  31  34
ENDBRANCH   5  31
ENDBRANCH   4   5
TORSDOF 12
ENDMDL
MODEL      286
REMARK 921   NORMALIZED FREE ENERGY PREDICTED BY IDOCK:   -3.25 KCAL/MOL
REMARK 922        TOTAL FREE ENERGY PREDICTED BY IDOCK:   -8.34 KCAL/MOL
REMARK 923 INTER-LIGAND FREE ENERGY PREDICTED BY IDOCK:   -7.51 KCAL/MOL
REMARK 924 INTRA-LIGAND FREE ENERGY PREDICTED BY IDOCK:   -0.83 KCAL/MOL
REMARK 927      BINDING AFFINITY PREDICTED BY RF-SCORE:    0.00 PKD
ROOT
HETATM    1  C   UNL     1      -5.564  10.342  68.612  1.00  0.00    -0.037 C  
HETATM    2  C   UNL     1      -6.148  11.438  67.735  1.00  0.00    -0.049 C  
HETATM    3  C   UNL     1      -5.231  11.874  66.590  1.00  0.00     0.014 C  
HETATM    4  C   UNL     1      -7.612  11.455  67.285  1.00  0.00    -0.138 C  
ENDROOT
BRANCH   4   5
HETATM    5  N   UNL     1      -8.499  10.296  66.973  1.00  0.00    -0.129 N  
BRANCH   5   6
HETATM    6  C   UNL     1      -9.341  10.025  68.256  1.00  0.00    -0.132 C  
BRANCH   6   7
HETATM    7  C   UNL     1      -9.133   8.603  68.951  1.00  0.00    -0.145 C  
BRANCH   7   8
HETATM    8  C   UNL     1      -9.228   8.719  70.552  1.00  0.00    -0.188 C  
BRANCH   8   9
HETATM    9  N   UNL     1     -10.100   9.822  70.995  1.00  0.00    -0.303 N  
HETATM   10  C   UNL     1     -11.465   9.685  71.012  1.00  0.00    -0.371 C  
HETATM   11  H   UNL     1      -9.681  10.702  71.294  1.00  0.00     0.000 HD 
HETATM   12  O   UNL     1     -12.085   8.672  70.737  1.00  0.00    -0.210 OA 
BRANCH  10  13
HETATM   13  O   UNL     1     -12.038  10.854  71.408  1.00  0.00    -0.278 OA 
BRANCH  13  14
HETATM   14  C   UNL     1     -12.540  11.676  70.339  1.00  0.00    -0.132 C  
HETATM   15  C   UNL     1     -11.830  13.004  70.203  1.00  0.00    -0.324 C  
HETATM   16  O   UNL     1     -11.968  12.060  68.043  1.00  0.00    -0.495 OA 
HETATM   17  C   UNL     1     -11.970  13.314  68.733  1.00  0.00    -0.300 C  
HETATM   18  C   UNL     1     -12.253  11.021  68.992  1.00  0.00    -0.097 C  
ENDBRANCH  13  14
ENDBRANCH  10  13
ENDBRANCH   8   9
BRANCH   8  19
HETATM   19  C   UNL     1      -9.530   7.425  71.345  1.00  0.00    -0.160 C  
BRANCH  19  20
HETATM   20  C   UNL     1      -8.378   6.735  72.026  1.00  0.00    -0.111 A  
HETATM   21  C   UNL     1      -7.527   5.226  73.724  1.00  0.00    -0.091 A  
HETATM   22  C   UNL     1      -5.999   6.610  72.465  1.00  0.00    -0.042 A  
HETATM   23  C   UNL     1      -7.069   7.144  71.749  1.00  0.00    -0.068 A  
HETATM   24  C   UNL     1      -8.600   5.766  73.014  1.00  0.00    -0.121 A  
HETATM   25  C   UNL     1      -6.228   5.655  73.454  1.00  0.00    -0.057 A  
ENDBRANCH  19  20
ENDBRANCH   8  19
ENDBRANCH   7   8
BRANCH   7  26
HETATM   26  O   UNL     1      -7.968   7.876  68.413  1.00  0.00    -0.117 OA 
HETATM   27  O   UNL     1      -8.458   4.825  67.315  1.00  0.00    -0.106 OA 
HETATM   28  O   UNL     1      -8.510   6.931  66.372  1.00  0.00    -0.118 OA 
HETATM   29  O   UNL     1      -9.759   6.218  68.356  1.00  0.00    -0.123 OA 
HETATM   30  P   UNL     1      -8.227   6.266  67.833  1.00  0.00    -0.114 P  
ENDBRANCH   7  26
ENDBRANCH   6   7
ENDBRANCH   5   6
BRANCH   5  31
HETATM   31  S   UNL     1      -9.463  10.074  65.580  1.00  0.00    -0.259 S  
HETATM   32  O   UNL     1     -10.510   9.116  65.871  1.00  0.00     0.039 OA 
HETATM   33  O   UNL     1      -8.576   9.808  64.465  1.00  0.00    -0.156 OA 
BRANCH  31  34
HETATM   34  C   UNL     1     -10.294  11.573  65.203  1.00  0.00    -0.278 A  
HETATM   35  N   UNL     1     -12.335  15.032  64.036  1.00  0.00    -1.015 NA 
HETATM   36  C   UNL     1      -9.605  12.784  65.162  1.00  0.00     0.124 A  
HETATM   37  H1  UNL     1     -13.328  14.993  63.806  1.00  0.00     0.000 HD 
HETATM   38  H2  UNL     1     -11.837  15.420  63.235  1.00  0.00     0.000 HD 
HETATM   39  C   UNL     1     -11.604  11.487  64.727  1.00  0.00    -0.086 A  
HETATM   40  C   UNL     1     -12.279  12.639  64.354  1.00  0.00    -0.518 A  
HETATM   41  C   UNL     1     -10.293  13.937  64.775  1.00  0.00    -0.419 A  
HETATM   42  C   UNL     1     -11.657  13.884  64.460  1.00  0.00    -0.393 A  
ENDBRANCH  31  34
ENDBRANCH   5  31
ENDBRANCH   4   5
TORSDOF 12
ENDMDL
MODEL      287
REMARK 921   NORMALIZED FREE ENERGY PREDICTED BY IDOCK:   -3.24 KCAL/MOL
REMARK 922        TOTAL FREE ENERGY PREDICTED BY IDOCK:   -8.32 KCAL/MOL
REMARK 923 INTER-LIGAND FREE ENERGY PREDICTED BY IDOCK:   -5.84 KCAL/MOL
REMARK 924 INTRA-LIGAND FREE ENERGY PREDICTED BY IDOCK:   -2.48 KCAL/MOL
REMARK 927      BINDING AFFINITY PREDICTED BY RF-SCORE:    0.00 PKD
ROOT
HETATM    1  C   UNL     1     -10.950  13.928  68.967  1.00  0.00    -0.281 C  
HETATM    2  C   UNL     1     -11.812  13.065  68.060  1.00  0.00    -0.391 C  
HETATM    3  C   UNL     1     -12.207  13.743  66.746  1.00  0.00    -0.440 C  
HETATM    4  C   UNL     1     -11.550  11.572  67.835  1.00  0.00    -0.282 C  
ENDROOT
BRANCH   4   5
HETATM    5  N   UNL     1     -10.241  10.855  67.803  1.00  0.00    -0.176 N  
BRANCH   5   6
HETATM    6  C   UNL     1     -10.560   9.341  67.987  1.00  0.00    -0.208 C  
BRANCH   6   7
HETATM    7  C   UNL     1     -10.485   8.779  69.479  1.00  0.00    -0.220 C  
BRANCH   7   8
HETATM    8  C   UNL     1      -9.293   7.712  69.640  1.00  0.00    -0.156 C  
BRANCH   8   9
HETATM    9  N   UNL     1      -9.032   7.354  71.045  1.00  0.00    -0.151 N  
HETATM   10  C   UNL     1      -8.166   8.087  71.817  1.00  0.00    -0.122 C  
HETATM   11  H   UNL     1      -9.503   6.546  71.452  1.00  0.00     0.000 HD 
HETATM   12  O   UNL     1      -7.587   9.104  71.471  1.00  0.00    -0.318 OA 
BRANCH  10  13
HETATM   13  O   UNL     1      -8.060   7.524  73.050  1.00  0.00    -0.100 OA 
BRANCH  13  14
HETATM   14  C   UNL     1      -6.901   6.692  73.240  1.00  0.00    -0.076 C  
HETATM   15  C   UNL     1      -7.208   5.347  73.859  1.00  0.00    -0.086 C  
HETATM   16  O   UNL     1      -5.801   4.959  72.003  1.00  0.00    -0.014 OA 
HETATM   17  C   UNL     1      -6.115   4.464  73.309  1.00  0.00    -0.020 C  
HETATM   18  C   UNL     1      -6.311   6.296  71.891  1.00  0.00    -0.043 C  
ENDBRANCH  13  14
ENDBRANCH  10  13
ENDBRANCH   8   9
BRANCH   8  19
HETATM   19  C   UNL     1      -9.340   6.448  68.749  1.00  0.00    -0.125 C  
BRANCH  19  20
HETATM   20  C   UNL     1      -9.097   5.117  69.407  1.00  0.00    -0.144 A  
HETATM   21  C   UNL     1      -9.723   3.412  71.015  1.00  0.00    -0.216 A  
HETATM   22  C   UNL     1      -7.587   3.286  69.893  1.00  0.00    -0.044 A  
HETATM   23  C   UNL     1      -7.885   4.452  69.191  1.00  0.00    -0.061 A  
HETATM   24  C   UNL     1     -10.019   4.584  70.319  1.00  0.00    -0.288 A  
HETATM   25  C   UNL     1      -8.503   2.768  70.807  1.00  0.00    -0.091 A  
ENDBRANCH  19  20
ENDBRANCH   8  19
ENDBRANCH   7   8
BRANCH   7  26
HETATM   26  O   UNL     1     -11.805   8.374  69.998  1.00  0.00     0.173 OA 
HETATM   27  O   UNL     1     -12.806   9.712  72.818  1.00  0.00    -0.089 OA 
HETATM   28  O   UNL     1     -13.026  10.249  70.584  1.00  0.00    -0.354 OA 
HETATM   29  O   UNL     1     -10.916   9.818  71.753  1.00  0.00    -0.147 OA 
HETATM   30  P   UNL     1     -12.333   9.081  71.486  1.00  0.00    -0.358 P  
ENDBRANCH   7  26
ENDBRANCH   6   7
ENDBRANCH   5   6
BRANCH   5  31
HETATM   31  S   UNL     1      -8.977  11.056  66.671  1.00  0.00    -0.174 S  
HETATM   32  O   UNL     1      -8.247  12.268  66.980  1.00  0.00    -0.177 OA 
HETATM   33  O   UNL     1      -9.542  10.911  65.345  1.00  0.00    -0.201 OA 
BRANCH  31  34
HETATM   34  C   UNL     1      -7.817   9.753  66.859  1.00  0.00    -0.102 A  
HETATM   35  N   UNL     1      -5.282   6.460  67.331  1.00  0.00    -0.005 NA 
HETATM   36  C   UNL     1      -6.947   9.717  67.949  1.00  0.00    -0.078 A  
HETATM   37  H1  UNL     1      -5.285   5.704  66.646  1.00  0.00     0.000 HD 
HETATM   38  H2  UNL     1      -5.476   6.059  68.249  1.00  0.00     0.000 HD 
HETATM   39  C   UNL     1      -7.943   8.645  66.018  1.00  0.00    -0.107 A  
HETATM   40  C   UNL     1      -7.091   7.562  66.172  1.00  0.00    -0.070 A  
HETATM   41  C   UNL     1      -6.100   8.617  68.099  1.00  0.00    -0.051 A  
HETATM   42  C   UNL     1      -6.104   7.578  67.158  1.00  0.00    -0.051 A  
ENDBRANCH  31  34
ENDBRANCH   5  31
ENDBRANCH   4   5
TORSDOF 12
ENDMDL
MODEL      288
REMARK 921   NORMALIZED FREE ENERGY PREDICTED BY IDOCK:   -3.24 KCAL/MOL
REMARK 922        TOTAL FREE ENERGY PREDICTED BY IDOCK:   -8.31 KCAL/MOL
REMARK 923 INTER-LIGAND FREE ENERGY PREDICTED BY IDOCK:   -7.25 KCAL/MOL
REMARK 924 INTRA-LIGAND FREE ENERGY PREDICTED BY IDOCK:   -1.06 KCAL/MOL
REMARK 927      BINDING AFFINITY PREDICTED BY RF-SCORE:    0.00 PKD
ROOT
HETATM    1  C   UNL     1     -10.999  13.729  64.218  1.00  0.00    -0.268 C  
HETATM    2  C   UNL     1     -11.758  14.884  64.850  1.00  0.00    -0.371 C  
HETATM    3  C   UNL     1     -13.280  14.767  64.735  1.00  0.00     0.955 C  
HETATM    4  C   UNL     1     -11.369  15.501  66.198  1.00  0.00    -0.010 C  
ENDROOT
BRANCH   4   5
HETATM    5  N   UNL     1     -10.775  14.826  67.388  1.00  0.00    -0.275 N  
BRANCH   5   6
HETATM    6  C   UNL     1     -11.677  13.593  67.694  1.00  0.00    -0.363 C  
BRANCH   6   7
HETATM    7  C   UNL     1     -11.686  13.082  69.207  1.00  0.00    -0.320 C  
BRANCH   7   8
HETATM    8  C   UNL     1     -11.428  11.496  69.287  1.00  0.00    -0.305 C  
BRANCH   8   9
HETATM    9  N   UNL     1     -10.274  11.064  68.478  1.00  0.00    -0.184 N  
HETATM   10  C   UNL     1     -10.441  10.277  67.367  1.00  0.00    -0.251 C  
HETATM   11  H   UNL     1      -9.335  11.354  68.750  1.00  0.00     0.000 HD 
HETATM   12  O   UNL     1     -11.509   9.912  66.904  1.00  0.00     0.248 OA 
BRANCH  10  13
HETATM   13  O   UNL     1      -9.227   9.975  66.831  1.00  0.00    -0.144 OA 
BRANCH  13  14
HETATM   14  C   UNL     1      -8.709   8.683  67.195  1.00  0.00    -0.128 C  
HETATM   15  C   UNL     1      -9.655   7.540  66.903  1.00  0.00    -0.242 C  
HETATM   16  O   UNL     1      -7.531   6.920  66.077  1.00  0.00    -0.077 OA 
HETATM   17  C   UNL     1      -8.720   6.380  66.663  1.00  0.00    -0.127 C  
HETATM   18  C   UNL     1      -7.507   8.334  66.324  1.00  0.00    -0.079 C  
ENDBRANCH  13  14
ENDBRANCH  10  13
ENDBRANCH   8   9
BRANCH   8  19
HETATM   19  C   UNL     1     -11.390  10.849  70.692  1.00  0.00    -0.097 C  
BRANCH  19  20
HETATM   20  C   UNL     1     -12.227   9.619  70.919  1.00  0.00    -0.368 A  
HETATM   21  C   UNL     1     -14.263   8.568  71.716  1.00  0.00    -0.525 A  
HETATM   22  C   UNL     1     -12.367   7.207  71.097  1.00  0.00    -0.404 A  
HETATM   23  C   UNL     1     -11.649   8.354  70.763  1.00  0.00    -0.252 A  
HETATM   24  C   UNL     1     -13.543   9.718  71.391  1.00  0.00    -0.322 A  
HETATM   25  C   UNL     1     -13.671   7.314  71.576  1.00  0.00    -0.451 A  
ENDBRANCH  19  20
ENDBRANCH   8  19
ENDBRANCH   7   8
BRANCH   7  26
HETATM   26  O   UNL     1     -12.836  13.600  69.972  1.00  0.00    -0.086 OA 
HETATM   27  O   UNL     1     -12.243  15.893  72.240  1.00  0.00    -0.407 OA 
HETATM   28  O   UNL     1     -12.783  15.913  69.996  1.00  0.00    -0.253 OA 
HETATM   29  O   UNL     1     -10.916  14.692  71.009  1.00  0.00     0.002 OA 
HETATM   30  P   UNL     1     -12.523  14.810  71.168  1.00  0.00    -0.395 P  
ENDBRANCH   7  26
ENDBRANCH   6   7
ENDBRANCH   5   6
BRANCH   5  31
HETATM   31  S   UNL     1      -9.132  14.430  67.643  1.00  0.00    -0.203 S  
HETATM   32  O   UNL     1      -8.514  14.116  66.372  1.00  0.00     0.135 OA 
HETATM   33  O   UNL     1      -9.074  13.440  68.701  1.00  0.00    -0.117 OA 
BRANCH  31  34
HETATM   34  C   UNL     1      -8.280  15.843  68.242  1.00  0.00    -0.152 A  
HETATM   35  N   UNL     1      -6.166  19.264  69.388  1.00  0.00    -0.279 NA 
HETATM   36  C   UNL     1      -7.220  15.715  69.138  1.00  0.00    -0.178 A  
HETATM   37  H1  UNL     1      -6.436  20.181  69.033  1.00  0.00     0.000 HD 
HETATM   38  H2  UNL     1      -5.186  19.106  69.150  1.00  0.00     0.000 HD 
HETATM   39  C   UNL     1      -8.543  17.068  67.626  1.00  0.00    -0.213 A  
HETATM   40  C   UNL     1      -7.847  18.201  68.019  1.00  0.00    -0.266 A  
HETATM   41  C   UNL     1      -6.520  16.862  69.520  1.00  0.00    -0.223 A  
HETATM   42  C   UNL     1      -6.892  18.122  69.033  1.00  0.00    -0.250 A  
ENDBRANCH  31  34
ENDBRANCH   5  31
ENDBRANCH   4   5
TORSDOF 12
ENDMDL
MODEL      289
REMARK 921   NORMALIZED FREE ENERGY PREDICTED BY IDOCK:   -3.20 KCAL/MOL
REMARK 922        TOTAL FREE ENERGY PREDICTED BY IDOCK:   -8.25 KCAL/MOL
REMARK 923 INTER-LIGAND FREE ENERGY PREDICTED BY IDOCK:   -7.35 KCAL/MOL
REMARK 924 INTRA-LIGAND FREE ENERGY PREDICTED BY IDOCK:   -0.90 KCAL/MOL
REMARK 927      BINDING AFFINITY PREDICTED BY RF-SCORE:    0.00 PKD
ROOT
HETATM    1  C   UNL     1      -6.833   9.572  65.561  1.00  0.00    -0.085 C  
HETATM    2  C   UNL     1      -6.270  10.252  66.799  1.00  0.00    -0.070 C  
HETATM    3  C   UNL     1      -5.313  11.407  66.494  1.00  0.00    -0.132 C  
HETATM    4  C   UNL     1      -7.118  10.571  68.034  1.00  0.00    -0.086 C  
ENDROOT
BRANCH   4   5
HETATM    5  N   UNL     1      -8.561  10.949  68.095  1.00  0.00    -0.127 N  
BRANCH   5   6
HETATM    6  C   UNL     1      -8.714  12.250  67.250  1.00  0.00    -0.188 C  
BRANCH   6   7
HETATM    7  C   UNL     1      -8.435  13.625  68.012  1.00  0.00    -0.174 C  
BRANCH   7   8
HETATM    8  C   UNL     1      -9.758  14.538  68.068  1.00  0.00    -0.218 C  
BRANCH   8   9
HETATM    9  N   UNL     1      -9.616  15.797  67.315  1.00  0.00    -0.216 N  
HETATM   10  C   UNL     1      -9.797  17.013  67.924  1.00  0.00    -0.269 C  
HETATM   11  H   UNL     1      -9.379  15.764  66.324  1.00  0.00     0.000 HD 
HETATM   12  O   UNL     1     -10.024  17.192  69.109  1.00  0.00    -0.272 OA 
BRANCH  10  13
HETATM   13  O   UNL     1      -9.663  18.010  67.008  1.00  0.00    -0.283 OA 
BRANCH  13  14
HETATM   14  C   UNL     1      -8.529  18.873  67.212  1.00  0.00    -0.277 C  
HETATM   15  C   UNL     1      -7.458  18.277  68.097  1.00  0.00    -0.270 C  
HETATM   16  O   UNL     1      -6.380  19.167  66.194  1.00  0.00    -0.176 OA 
HETATM   17  C   UNL     1      -6.198  18.939  67.595  1.00  0.00    -0.203 C  
HETATM   18  C   UNL     1      -7.782  19.079  65.899  1.00  0.00    -0.156 C  
ENDBRANCH  13  14
ENDBRANCH  10  13
ENDBRANCH   8   9
BRANCH   8  19
HETATM   19  C   UNL     1     -11.110  13.856  67.751  1.00  0.00    -0.281 C  
BRANCH  19  20
HETATM   20  C   UNL     1     -11.469  13.649  66.304  1.00  0.00    -0.352 A  
HETATM   21  C   UNL     1     -12.580  12.372  64.566  1.00  0.00    -0.477 A  
HETATM   22  C   UNL     1     -11.047  14.140  63.969  1.00  0.00     0.196 A  
HETATM   23  C   UNL     1     -10.827  14.408  65.319  1.00  0.00    -0.370 A  
HETATM   24  C   UNL     1     -12.354  12.633  65.918  1.00  0.00    -0.247 A  
HETATM   25  C   UNL     1     -11.920  13.121  63.593  1.00  0.00    -0.580 A  
ENDBRANCH  19  20
ENDBRANCH   8  19
ENDBRANCH   7   8
BRANCH   7  26
HETATM   26  O   UNL     1      -7.199  14.286  67.553  1.00  0.00    -0.175 OA 
HETATM   27  O   UNL     1      -5.166  15.462  69.841  1.00  0.00    -0.097 OA 
HETATM   28  O   UNL     1      -5.385  13.454  68.724  1.00  0.00    -0.068 OA 
HETATM   29  O   UNL     1      -7.155  14.599  69.973  1.00  0.00    -0.134 OA 
HETATM   30  P   UNL     1      -6.127  14.906  68.761  1.00  0.00    -0.092 P  
ENDBRANCH   7  26
ENDBRANCH   6   7
ENDBRANCH   5   6
BRANCH   5  31
HETATM   31  S   UNL     1      -9.911   9.930  67.853  1.00  0.00    -0.148 S  
HETATM   32  O   UNL     1     -10.149   9.781  66.433  1.00  0.00    -0.233 OA 
HETATM   33  O   UNL     1     -10.991  10.421  68.686  1.00  0.00    -0.215 OA 
BRANCH  31  34
HETATM   34  C   UNL     1      -9.532   8.318  68.435  1.00  0.00    -0.139 A  
HETATM   35  N   UNL     1      -8.379   4.588  69.933  1.00  0.00    -0.063 NA 
HETATM   36  C   UNL     1      -9.341   7.261  67.546  1.00  0.00    -0.144 A  
HETATM   37  H1  UNL     1      -8.260   4.448  70.936  1.00  0.00     0.000 HD 
HETATM   38  H2  UNL     1      -7.505   4.334  69.470  1.00  0.00     0.000 HD 
HETATM   39  C   UNL     1      -9.207   8.175  69.786  1.00  0.00    -0.151 A  
HETATM   40  C   UNL     1      -8.837   6.933  70.278  1.00  0.00    -0.148 A  
HETATM   41  C   UNL     1      -8.960   6.016  68.053  1.00  0.00    -0.112 A  
HETATM   42  C   UNL     1      -8.797   5.824  69.431  1.00  0.00    -0.117 A  
ENDBRANCH  31  34
ENDBRANCH   5  31
ENDBRANCH   4   5
TORSDOF 12
ENDMDL
MODEL      290
REMARK 921   NORMALIZED FREE ENERGY PREDICTED BY IDOCK:   -3.20 KCAL/MOL
REMARK 922        TOTAL FREE ENERGY PREDICTED BY IDOCK:   -8.24 KCAL/MOL
REMARK 923 INTER-LIGAND FREE ENERGY PREDICTED BY IDOCK:   -5.69 KCAL/MOL
REMARK 924 INTRA-LIGAND FREE ENERGY PREDICTED BY IDOCK:   -2.55 KCAL/MOL
REMARK 927      BINDING AFFINITY PREDICTED BY RF-SCORE:    0.00 PKD
ROOT
HETATM    1  C   UNL     1      -9.397  13.298  67.019  1.00  0.00    -0.242 C  
HETATM    2  C   UNL     1      -9.769  11.928  67.562  1.00  0.00    -0.185 C  
HETATM    3  C   UNL     1     -11.126  11.412  67.076  1.00  0.00    -0.364 C  
HETATM    4  C   UNL     1      -8.767  10.774  67.674  1.00  0.00    -0.126 C  
ENDROOT
BRANCH   4   5
HETATM    5  N   UNL     1      -7.616  10.457  66.778  1.00  0.00    -0.107 N  
BRANCH   5   6
HETATM    6  C   UNL     1      -6.437  10.034  67.704  1.00  0.00    -0.063 C  
BRANCH   6   7
HETATM    7  C   UNL     1      -6.643   8.692  68.544  1.00  0.00    -0.059 C  
BRANCH   7   8
HETATM    8  C   UNL     1      -7.414   8.981  69.925  1.00  0.00    -0.065 C  
BRANCH   8   9
HETATM    9  N   UNL     1      -8.505   8.024  70.183  1.00  0.00    -0.126 N  
HETATM   10  C   UNL     1      -9.738   8.449  70.608  1.00  0.00    -0.178 C  
HETATM   11  H   UNL     1      -8.340   7.027  70.042  1.00  0.00     0.000 HD 
HETATM   12  O   UNL     1     -10.081   9.610  70.758  1.00  0.00    -0.278 OA 
BRANCH  10  13
HETATM   13  O   UNL     1     -10.545   7.375  70.822  1.00  0.00    -0.219 OA 
BRANCH  13  14
HETATM   14  C   UNL     1     -10.103   6.481  71.859  1.00  0.00    -0.182 C  
HETATM   15  C   UNL     1     -10.558   6.879  73.245  1.00  0.00    -0.353 C  
HETATM   16  O   UNL     1     -11.007   4.574  72.995  1.00  0.00    -0.225 OA 
HETATM   17  C   UNL     1     -10.637   5.557  73.968  1.00  0.00    -0.249 C  
HETATM   18  C   UNL     1     -10.755   5.113  71.689  1.00  0.00    -0.111 C  
ENDBRANCH  13  14
ENDBRANCH  10  13
ENDBRANCH   8   9
BRANCH   8  19
HETATM   19  C   UNL     1      -6.553   9.190  71.193  1.00  0.00    -0.088 C  
BRANCH  19  20
HETATM   20  C   UNL     1      -6.601   8.126  72.256  1.00  0.00    -0.075 A  
HETATM   21  C   UNL     1      -6.424   5.800  72.924  1.00  0.00    -0.063 A  
HETATM   22  C   UNL     1      -7.276   7.440  74.479  1.00  0.00    -0.137 A  
HETATM   23  C   UNL     1      -7.100   8.440  73.525  1.00  0.00    -0.124 A  
HETATM   24  C   UNL     1      -6.256   6.799  71.963  1.00  0.00    -0.038 A  
HETATM   25  C   UNL     1      -6.941   6.121  74.178  1.00  0.00    -0.083 A  
ENDBRANCH  19  20
ENDBRANCH   8  19
ENDBRANCH   7   8
BRANCH   7  26
HETATM   26  O   UNL     1      -5.410   7.887  68.635  1.00  0.00    -0.026 OA 
HETATM   27  O   UNL     1      -5.668   4.653  68.158  1.00  0.00    -0.016 OA 
HETATM   28  O   UNL     1      -5.256   6.478  66.806  1.00  0.00    -0.011 OA 
HETATM   29  O   UNL     1      -7.164   6.219  68.322  1.00  0.00    -0.080 OA 
HETATM   30  P   UNL     1      -5.547   6.181  68.383  1.00  0.00    -0.013 P  
ENDBRANCH   7  26
ENDBRANCH   6   7
ENDBRANCH   5   6
BRANCH   5  31
HETATM   31  S   UNL     1      -7.634   9.487  65.371  1.00  0.00    -0.110 S  
HETATM   32  O   UNL     1      -6.290   9.028  65.090  1.00  0.00    -0.060 OA 
HETATM   33  O   UNL     1      -8.344  10.217  64.339  1.00  0.00    -0.163 OA 
BRANCH  31  34
HETATM   34  C   UNL     1      -8.569   8.034  65.679  1.00  0.00    -0.145 A  
HETATM   35  N   UNL     1     -10.738   4.608  66.703  1.00  0.00    -0.313 NA 
HETATM   36  C   UNL     1      -8.166   6.800  65.170  1.00  0.00    -0.114 A  
HETATM   37  H1  UNL     1     -11.563   4.678  67.299  1.00  0.00     0.000 HD 
HETATM   38  H2  UNL     1     -10.084   3.956  67.137  1.00  0.00     0.000 HD 
HETATM   39  C   UNL     1      -9.592   8.109  66.628  1.00  0.00    -0.295 A  
HETATM   40  C   UNL     1     -10.315   6.972  66.953  1.00  0.00    -0.338 A  
HETATM   41  C   UNL     1      -8.897   5.660  65.512  1.00  0.00    -0.135 A  
HETATM   42  C   UNL     1     -10.030   5.756  66.331  1.00  0.00    -0.131 A  
ENDBRANCH  31  34
ENDBRANCH   5  31
ENDBRANCH   4   5
TORSDOF 12
ENDMDL
MODEL      291
REMARK 921   NORMALIZED FREE ENERGY PREDICTED BY IDOCK:   -3.18 KCAL/MOL
REMARK 922        TOTAL FREE ENERGY PREDICTED BY IDOCK:   -8.21 KCAL/MOL
REMARK 923 INTER-LIGAND FREE ENERGY PREDICTED BY IDOCK:   -7.69 KCAL/MOL
REMARK 924 INTRA-LIGAND FREE ENERGY PREDICTED BY IDOCK:   -0.52 KCAL/MOL
REMARK 927      BINDING AFFINITY PREDICTED BY RF-SCORE:    0.00 PKD
ROOT
HETATM    1  C   UNL     1     -12.044  13.789  69.637  1.00  0.00    -0.392 C  
HETATM    2  C   UNL     1     -12.093  12.782  68.499  1.00  0.00    -0.142 C  
HETATM    3  C   UNL     1     -12.552  13.371  67.164  1.00  0.00     0.256 C  
HETATM    4  C   UNL     1     -11.005  11.726  68.273  1.00  0.00    -0.229 C  
ENDROOT
BRANCH   4   5
HETATM    5  N   UNL     1      -9.540  11.835  68.537  1.00  0.00    -0.195 N  
BRANCH   5   6
HETATM    6  C   UNL     1      -8.993  10.377  68.601  1.00  0.00    -0.146 C  
BRANCH   6   7
HETATM    7  C   UNL     1      -9.567   9.457  69.772  1.00  0.00    -0.201 C  
BRANCH   7   8
HETATM    8  C   UNL     1      -8.740   8.083  69.892  1.00  0.00    -0.139 C  
BRANCH   8   9
HETATM    9  N   UNL     1      -8.175   7.871  71.237  1.00  0.00    -0.098 N  
HETATM   10  C   UNL     1      -6.956   8.396  71.585  1.00  0.00    -0.086 C  
HETATM   11  H   UNL     1      -8.699   7.325  71.920  1.00  0.00     0.000 HD 
HETATM   12  O   UNL     1      -6.260   9.112  70.886  1.00  0.00    -0.049 OA 
BRANCH  10  13
HETATM   13  O   UNL     1      -6.638   8.016  72.853  1.00  0.00    -0.069 OA 
BRANCH  13  14
HETATM   14  C   UNL     1      -6.039   6.713  72.963  1.00  0.00    -0.057 C  
HETATM   15  C   UNL     1      -7.007   5.627  73.377  1.00  0.00    -0.085 C  
HETATM   16  O   UNL     1      -5.780   4.806  71.534  1.00  0.00    -0.011 OA 
HETATM   17  C   UNL     1      -6.417   4.389  72.746  1.00  0.00    -0.040 C  
HETATM   18  C   UNL     1      -5.580   6.226  71.592  1.00  0.00    -0.027 C  
ENDBRANCH  13  14
ENDBRANCH  10  13
ENDBRANCH   8   9
BRANCH   8  19
HETATM   19  C   UNL     1      -9.417   6.794  69.370  1.00  0.00    -0.147 C  
BRANCH  19  20
HETATM   20  C   UNL     1      -8.546   5.768  68.696  1.00  0.00    -0.109 A  
HETATM   21  C   UNL     1      -7.982   3.455  68.231  1.00  0.00    -0.072 A  
HETATM   22  C   UNL     1      -6.463   5.219  67.587  1.00  0.00    -0.048 A  
HETATM   23  C   UNL     1      -7.345   6.169  68.099  1.00  0.00    -0.085 A  
HETATM   24  C   UNL     1      -8.863   4.404  68.752  1.00  0.00    -0.133 A  
HETATM   25  C   UNL     1      -6.779   3.864  67.656  1.00  0.00    -0.043 A  
ENDBRANCH  19  20
ENDBRANCH   8  19
ENDBRANCH   7   8
BRANCH   7  26
HETATM   26  O   UNL     1     -11.037   9.338  69.729  1.00  0.00    -0.227 OA 
HETATM   27  O   UNL     1     -12.616   8.963  72.578  1.00  0.00    -0.375 OA 
HETATM   28  O   UNL     1     -11.985  10.766  71.283  1.00  0.00    -0.304 OA 
HETATM   29  O   UNL     1     -10.501   8.989  72.084  1.00  0.00    -0.321 OA 
HETATM   30  P   UNL     1     -11.870   9.141  71.233  1.00  0.00    -0.367 P  
ENDBRANCH   7  26
ENDBRANCH   6   7
ENDBRANCH   5   6
BRANCH   5  31
HETATM   31  S   UNL     1      -8.416  12.850  67.746  1.00  0.00    -0.199 S  
HETATM   32  O   UNL     1      -7.515  12.039  66.954  1.00  0.00    -0.131 OA 
HETATM   33  O   UNL     1      -7.850  13.742  68.738  1.00  0.00    -0.128 OA 
BRANCH  31  34
HETATM   34  C   UNL     1      -9.264  13.867  66.594  1.00  0.00    -0.236 A  
HETATM   35  N   UNL     1     -11.483  16.348  64.061  1.00  0.00    -1.573 NA 
HETATM   36  C   UNL     1      -9.815  13.330  65.431  1.00  0.00    -0.128 A  
HETATM   37  H1  UNL     1     -11.600  17.337  64.281  1.00  0.00     0.000 HD 
HETATM   38  H2  UNL     1     -12.409  15.930  63.966  1.00  0.00     0.000 HD 
HETATM   39  C   UNL     1      -9.565  15.175  66.981  1.00  0.00    -0.235 A  
HETATM   40  C   UNL     1     -10.290  15.996  66.131  1.00  0.00    -0.340 A  
HETATM   41  C   UNL     1     -10.551  14.164  64.587  1.00  0.00    -0.391 A  
HETATM   42  C   UNL     1     -10.713  15.523  64.888  1.00  0.00    -0.392 A  
ENDBRANCH  31  34
ENDBRANCH   5  31
ENDBRANCH   4   5
TORSDOF 12
ENDMDL
MODEL      292
REMARK 921   NORMALIZED FREE ENERGY PREDICTED BY IDOCK:   -3.13 KCAL/MOL
REMARK 922        TOTAL FREE ENERGY PREDICTED BY IDOCK:   -8.12 KCAL/MOL
REMARK 923 INTER-LIGAND FREE ENERGY PREDICTED BY IDOCK:   -7.29 KCAL/MOL
REMARK 924 INTRA-LIGAND FREE ENERGY PREDICTED BY IDOCK:   -0.83 KCAL/MOL
REMARK 927      BINDING AFFINITY PREDICTED BY RF-SCORE:    0.00 PKD
ROOT
HETATM    1  C   UNL     1      -5.207  12.922  69.180  1.00  0.00    -0.069 C  
HETATM    2  C   UNL     1      -6.145  13.784  70.009  1.00  0.00    -0.142 C  
HETATM    3  C   UNL     1      -5.492  15.044  70.582  1.00  0.00    -0.137 C  
HETATM    4  C   UNL     1      -7.595  14.071  69.601  1.00  0.00     0.406 C  
ENDROOT
BRANCH   4   5
HETATM    5  N   UNL     1      -8.157  14.224  68.227  1.00  0.00    -0.134 N  
BRANCH   5   6
HETATM    6  C   UNL     1      -9.667  13.855  68.323  1.00  0.00    -0.223 C  
BRANCH   6   7
HETATM    7  C   UNL     1     -10.136  12.574  67.492  1.00  0.00    -0.207 C  
BRANCH   7   8
HETATM    8  C   UNL     1      -9.502  11.225  68.095  1.00  0.00    -0.184 C  
BRANCH   8   9
HETATM    9  N   UNL     1     -10.307  10.029  67.789  1.00  0.00    -0.200 N  
HETATM   10  C   UNL     1      -9.985   9.205  66.740  1.00  0.00    -0.254 C  
HETATM   11  H   UNL     1     -11.118   9.809  68.368  1.00  0.00     0.000 HD 
HETATM   12  O   UNL     1      -9.014   9.322  66.012  1.00  0.00    -0.154 OA 
BRANCH  10  13
HETATM   13  O   UNL     1     -10.907   8.210  66.638  1.00  0.00    -0.100 OA 
BRANCH  13  14
HETATM   14  C   UNL     1     -10.573   6.999  67.342  1.00  0.00    -0.302 C  
HETATM   15  C   UNL     1      -9.513   6.167  66.657  1.00  0.00    -0.173 C  
HETATM   16  O   UNL     1      -8.912   6.332  68.935  1.00  0.00    -0.126 OA 
HETATM   17  C   UNL     1      -8.849   5.451  67.809  1.00  0.00    -0.105 C  
HETATM   18  C   UNL     1      -9.910   7.331  68.674  1.00  0.00    -0.161 C  
ENDBRANCH  13  14
ENDBRANCH  10  13
ENDBRANCH   8   9
BRANCH   8  19
HETATM   19  C   UNL     1      -8.001  10.961  67.832  1.00  0.00    -0.111 C  
BRANCH  19  20
HETATM   20  C   UNL     1      -7.254  10.111  68.824  1.00  0.00    -0.081 A  
HETATM   21  C   UNL     1      -6.820   9.422  71.110  1.00  0.00    -0.036 A  
HETATM   22  C   UNL     1      -5.350   8.702  69.334  1.00  0.00    -0.031 A  
HETATM   23  C   UNL     1      -6.131   9.388  68.406  1.00  0.00    -0.044 A  
HETATM   24  C   UNL     1      -7.599  10.117  70.183  1.00  0.00    -0.119 A  
HETATM   25  C   UNL     1      -5.692   8.722  70.685  1.00  0.00    -0.028 A  
ENDBRANCH  19  20
ENDBRANCH   8  19
ENDBRANCH   7   8
BRANCH   7  26
HETATM   26  O   UNL     1     -10.008  12.767  66.035  1.00  0.00    -0.265 OA 
HETATM   27  O   UNL     1     -12.747  12.637  64.238  1.00  0.00    -0.657 OA 
HETATM   28  O   UNL     1     -11.571  14.310  65.308  1.00  0.00    -0.327 OA 
HETATM   29  O   UNL     1     -12.370  12.236  66.339  1.00  0.00    -0.531 OA 
HETATM   30  P   UNL     1     -11.453  12.699  65.087  1.00  0.00    -0.360 P  
ENDBRANCH   7  26
ENDBRANCH   6   7
ENDBRANCH   5   6
BRANCH   5  31
HETATM   31  S   UNL     1      -7.940  15.540  67.159  1.00  0.00    -0.233 S  
HETATM   32  O   UNL     1      -8.736  15.324  65.968  1.00  0.00    -0.173 OA 
HETATM   33  O   UNL     1      -6.515  15.756  67.006  1.00  0.00    -0.299 OA 
BRANCH  31  34
HETATM   34  C   UNL     1      -8.585  16.997  67.894  1.00  0.00    -0.207 A  
HETATM   35  N   UNL     1     -10.394  20.369  69.581  1.00  0.00    -0.312 NA 
HETATM   36  C   UNL     1      -8.303  18.254  67.362  1.00  0.00    -0.245 A  
HETATM   37  H1  UNL     1     -11.016  20.274  70.384  1.00  0.00     0.000 HD 
HETATM   38  H2  UNL     1     -10.906  20.841  68.835  1.00  0.00     0.000 HD 
HETATM   39  C   UNL     1      -9.563  16.848  68.880  1.00  0.00    -0.251 A  
HETATM   40  C   UNL     1     -10.150  17.971  69.444  1.00  0.00     0.035 A  
HETATM   41  C   UNL     1      -8.907  19.377  67.932  1.00  0.00    -0.362 A  
HETATM   42  C   UNL     1      -9.761  19.247  69.036  1.00  0.00    -0.391 A  
ENDBRANCH  31  34
ENDBRANCH   5  31
ENDBRANCH   4   5
TORSDOF 12
ENDMDL
MODEL      293
REMARK 921   NORMALIZED FREE ENERGY PREDICTED BY IDOCK:   -3.10 KCAL/MOL
REMARK 922        TOTAL FREE ENERGY PREDICTED BY IDOCK:   -8.09 KCAL/MOL
REMARK 923 INTER-LIGAND FREE ENERGY PREDICTED BY IDOCK:   -5.65 KCAL/MOL
REMARK 924 INTRA-LIGAND FREE ENERGY PREDICTED BY IDOCK:   -2.43 KCAL/MOL
REMARK 927      BINDING AFFINITY PREDICTED BY RF-SCORE:    0.00 PKD
ROOT
HETATM    1  C   UNL     1     -10.591  14.154  68.956  1.00  0.00    -0.227 C  
HETATM    2  C   UNL     1     -11.098  13.398  67.739  1.00  0.00    -0.292 C  
HETATM    3  C   UNL     1     -10.914  14.149  66.418  1.00  0.00    -0.311 C  
HETATM    4  C   UNL     1     -10.874  11.896  67.536  1.00  0.00    -0.238 C  
ENDROOT
BRANCH   4   5
HETATM    5  N   UNL     1      -9.706  11.069  67.957  1.00  0.00    -0.168 N  
BRANCH   5   6
HETATM    6  C   UNL     1     -10.189   9.587  67.959  1.00  0.00    -0.201 C  
BRANCH   6   7
HETATM    7  C   UNL     1     -10.354   8.900  69.390  1.00  0.00    -0.213 C  
BRANCH   7   8
HETATM    8  C   UNL     1      -9.366   7.640  69.548  1.00  0.00    -0.153 C  
BRANCH   8   9
HETATM    9  N   UNL     1      -8.386   7.542  68.452  1.00  0.00    -0.125 N  
HETATM   10  C   UNL     1      -8.459   6.536  67.522  1.00  0.00    -0.120 C  
HETATM   11  H   UNL     1      -7.639   8.233  68.384  1.00  0.00     0.000 HD 
HETATM   12  O   UNL     1      -9.330   5.685  67.456  1.00  0.00    -0.110 OA 
BRANCH  10  13
HETATM   13  O   UNL     1      -7.416   6.637  66.654  1.00  0.00    -0.076 OA 
BRANCH  13  14
HETATM   14  C   UNL     1      -7.389   5.637  65.619  1.00  0.00    -0.073 C  
HETATM   15  C   UNL     1      -8.018   6.085  64.319  1.00  0.00    -0.121 C  
HETATM   16  O   UNL     1      -5.945   5.088  63.787  1.00  0.00    -0.020 OA 
HETATM   17  C   UNL     1      -7.272   5.276  63.286  1.00  0.00    -0.048 C  
HETATM   18  C   UNL     1      -5.951   5.354  65.198  1.00  0.00    -0.022 C  
ENDBRANCH  13  14
ENDBRANCH  10  13
ENDBRANCH   8   9
BRANCH   8  19
HETATM   19  C   UNL     1      -8.681   7.437  70.920  1.00  0.00    -0.144 C  
BRANCH  19  20
HETATM   20  C   UNL     1      -9.432   6.665  71.971  1.00  0.00    -0.148 A  
HETATM   21  C   UNL     1      -9.452   5.274  73.959  1.00  0.00    -0.135 A  
HETATM   22  C   UNL     1     -11.484   5.600  72.696  1.00  0.00    -0.339 A  
HETATM   23  C   UNL     1     -10.800   6.423  71.803  1.00  0.00    -0.283 A  
HETATM   24  C   UNL     1      -8.763   6.091  73.061  1.00  0.00    -0.122 A  
HETATM   25  C   UNL     1     -10.810   5.024  73.770  1.00  0.00    -0.366 A  
ENDBRANCH  19  20
ENDBRANCH   8  19
ENDBRANCH   7   8
BRANCH   7  26
HETATM   26  O   UNL     1     -11.767   8.676  69.751  1.00  0.00     0.234 OA 
HETATM   27  O   UNL     1     -13.066  10.604  72.063  1.00  0.00    -0.481 OA 
HETATM   28  O   UNL     1     -12.900  10.693  69.762  1.00  0.00    -0.167 OA 
HETATM   29  O   UNL     1     -11.035  10.394  71.323  1.00  0.00     0.103 OA 
HETATM   30  P   UNL     1     -12.452   9.694  70.971  1.00  0.00    -0.236 P  
ENDBRANCH   7  26
ENDBRANCH   6   7
ENDBRANCH   5   6
BRANCH   5  31
HETATM   31  S   UNL     1      -8.104  11.163  67.370  1.00  0.00    -0.137 S  
HETATM   32  O   UNL     1      -8.131  11.367  65.937  1.00  0.00    -0.031 OA 
HETATM   33  O   UNL     1      -7.373  10.025  67.891  1.00  0.00    -0.086 OA 
BRANCH  31  34
HETATM   34  C   UNL     1      -7.327  12.592  68.029  1.00  0.00    -0.114 A  
HETATM   35  N   UNL     1      -5.652  15.969  69.839  1.00  0.00    -0.146 NA 
HETATM   36  C   UNL     1      -7.433  13.827  67.390  1.00  0.00    -0.142 A  
HETATM   37  H1  UNL     1      -5.153  15.887  70.726  1.00  0.00     0.000 HD 
HETATM   38  H2  UNL     1      -6.401  16.652  69.957  1.00  0.00     0.000 HD 
HETATM   39  C   UNL     1      -6.797  12.506  69.318  1.00  0.00    -0.019 A  
HETATM   40  C   UNL     1      -6.231  13.627  69.908  1.00  0.00    -0.118 A  
HETATM   41  C   UNL     1      -6.868  14.950  67.997  1.00  0.00    -0.147 A  
HETATM   42  C   UNL     1      -6.184  14.837  69.214  1.00  0.00    -0.110 A  
ENDBRANCH  31  34
ENDBRANCH   5  31
ENDBRANCH   4   5
TORSDOF 12
ENDMDL
MODEL      294
REMARK 921   NORMALIZED FREE ENERGY PREDICTED BY IDOCK:   -3.06 KCAL/MOL
REMARK 922        TOTAL FREE ENERGY PREDICTED BY IDOCK:   -8.02 KCAL/MOL
REMARK 923 INTER-LIGAND FREE ENERGY PREDICTED BY IDOCK:   -7.18 KCAL/MOL
REMARK 924 INTRA-LIGAND FREE ENERGY PREDICTED BY IDOCK:   -0.84 KCAL/MOL
REMARK 927      BINDING AFFINITY PREDICTED BY RF-SCORE:    0.00 PKD
ROOT
HETATM    1  C   UNL     1      -5.275  13.679  69.787  1.00  0.00    -0.087 C  
HETATM    2  C   UNL     1      -6.587  13.813  69.031  1.00  0.00    -0.108 C  
HETATM    3  C   UNL     1      -6.454  14.491  67.666  1.00  0.00    -0.153 C  
HETATM    4  C   UNL     1      -7.635  12.695  68.974  1.00  0.00     0.146 C  
ENDROOT
BRANCH   4   5
HETATM    5  N   UNL     1      -7.415  11.219  68.967  1.00  0.00    -0.127 N  
BRANCH   5   6
HETATM    6  C   UNL     1      -7.157  10.817  67.484  1.00  0.00    -0.089 C  
BRANCH   6   7
HETATM    7  C   UNL     1      -8.366  11.050  66.468  1.00  0.00    -0.163 C  
BRANCH   7   8
HETATM    8  C   UNL     1      -9.598  11.792  67.189  1.00  0.00    -0.181 C  
BRANCH   8   9
HETATM    9  N   UNL     1      -9.827  13.153  66.673  1.00  0.00    -0.254 N  
HETATM   10  C   UNL     1     -10.217  14.172  67.506  1.00  0.00    -0.241 C  
HETATM   11  H   UNL     1      -9.692  13.342  65.680  1.00  0.00     0.000 HD 
HETATM   12  O   UNL     1     -10.356  14.093  68.715  1.00  0.00    -0.235 OA 
BRANCH  10  13
HETATM   13  O   UNL     1     -10.411  15.307  66.782  1.00  0.00    -0.281 OA 
BRANCH  13  14
HETATM   14  C   UNL     1     -11.487  15.243  65.828  1.00  0.00    -0.101 C  
HETATM   15  C   UNL     1     -11.102  14.600  64.515  1.00  0.00    -0.269 C  
HETATM   16  O   UNL     1     -13.142  13.628  65.201  1.00  0.00    -0.750 OA 
HETATM   17  C   UNL     1     -12.404  14.007  64.034  1.00  0.00    -0.298 C  
HETATM   18  C   UNL     1     -12.583  14.311  66.332  1.00  0.00    -0.124 C  
ENDBRANCH  13  14
ENDBRANCH  10  13
ENDBRANCH   8   9
BRANCH   8  19
HETATM   19  C   UNL     1     -10.930  11.015  67.305  1.00  0.00    -0.356 C  
BRANCH  19  20
HETATM   20  C   UNL     1     -11.146  10.172  68.534  1.00  0.00    -0.266 A  
HETATM   21  C   UNL     1     -11.945   9.927  70.811  1.00  0.00    -0.410 A  
HETATM   22  C   UNL     1     -10.612   8.181  69.806  1.00  0.00    -0.231 A  
HETATM   23  C   UNL     1     -10.533   8.918  68.626  1.00  0.00    -0.223 A  
HETATM   24  C   UNL     1     -11.860  10.670  69.633  1.00  0.00    -0.358 A  
HETATM   25  C   UNL     1     -11.314   8.687  70.899  1.00  0.00    -0.314 A  
ENDBRANCH  19  20
ENDBRANCH   8  19
ENDBRANCH   7   8
BRANCH   7  26
HETATM   26  O   UNL     1      -8.692   9.841  65.689  1.00  0.00    -0.137 OA 
HETATM   27  O   UNL     1      -9.486  10.235  62.532  1.00  0.00    -0.296 OA 
HETATM   28  O   UNL     1      -7.526   9.858  63.691  1.00  0.00    -0.127 OA 
HETATM   29  O   UNL     1      -9.122  11.665  64.126  1.00  0.00     0.084 OA 
HETATM   30  P   UNL     1      -9.110  10.049  64.023  1.00  0.00    -0.254 P  
ENDBRANCH   7  26
ENDBRANCH   6   7
ENDBRANCH   5   6
BRANCH   5  31
HETATM   31  S   UNL     1      -6.401  10.317  70.005  1.00  0.00    -0.118 S  
HETATM   32  O   UNL     1      -6.393  10.930  71.317  1.00  0.00    -0.166 OA 
HETATM   33  O   UNL     1      -5.134  10.122  69.328  1.00  0.00    -0.036 OA 
BRANCH  31  34
HETATM   34  C   UNL     1      -7.086   8.718  70.241  1.00  0.00    -0.045 A  
HETATM   35  N   UNL     1      -8.538   4.879  71.037  1.00  0.00    -0.118 NA 
HETATM   36  C   UNL     1      -6.936   7.724  69.275  1.00  0.00    -0.060 A  
HETATM   37  H1  UNL     1      -9.015   4.679  71.916  1.00  0.00     0.000 HD 
HETATM   38  H2  UNL     1      -7.753   4.234  70.946  1.00  0.00     0.000 HD 
HETATM   39  C   UNL     1      -7.583   8.406  71.508  1.00  0.00    -0.118 A  
HETATM   40  C   UNL     1      -8.075   7.134  71.761  1.00  0.00    -0.101 A  
HETATM   41  C   UNL     1      -7.427   6.445  69.545  1.00  0.00    -0.093 A  
HETATM   42  C   UNL     1      -8.082   6.170  70.753  1.00  0.00    -0.124 A  
ENDBRANCH  31  34
ENDBRANCH   5  31
ENDBRANCH   4   5
TORSDOF 12
ENDMDL
MODEL      295
REMARK 921   NORMALIZED FREE ENERGY PREDICTED BY IDOCK:   -3.05 KCAL/MOL
REMARK 922        TOTAL FREE ENERGY PREDICTED BY IDOCK:   -8.00 KCAL/MOL
REMARK 923 INTER-LIGAND FREE ENERGY PREDICTED BY IDOCK:   -8.31 KCAL/MOL
REMARK 924 INTRA-LIGAND FREE ENERGY PREDICTED BY IDOCK:    0.31 KCAL/MOL
REMARK 927      BINDING AFFINITY PREDICTED BY RF-SCORE:    0.00 PKD
ROOT
HETATM    1  C   UNL     1      -8.908   7.357  68.673  1.00  0.00    -0.126 C  
HETATM    2  C   UNL     1      -9.725   7.981  67.553  1.00  0.00    -0.206 C  
HETATM    3  C   UNL     1     -10.916   7.132  67.104  1.00  0.00    -0.342 C  
HETATM    4  C   UNL     1     -10.081   9.471  67.510  1.00  0.00    -0.204 C  
ENDROOT
BRANCH   4   5
HETATM    5  N   UNL     1     -10.359  10.389  68.653  1.00  0.00    -0.174 N  
BRANCH   5   6
HETATM    6  C   UNL     1      -8.985  10.978  69.092  1.00  0.00     0.015 C  
BRANCH   6   7
HETATM    7  C   UNL     1      -8.249  11.921  68.035  1.00  0.00    -0.157 C  
BRANCH   7   8
HETATM    8  C   UNL     1      -8.648  13.464  68.255  1.00  0.00    -0.169 C  
BRANCH   8   9
HETATM    9  N   UNL     1      -7.724  14.170  69.161  1.00  0.00    -0.318 N  
HETATM   10  C   UNL     1      -6.451  14.494  68.765  1.00  0.00    -0.089 C  
HETATM   11  H   UNL     1      -8.037  14.422  70.098  1.00  0.00     0.000 HD 
HETATM   12  O   UNL     1      -5.976  14.303  67.659  1.00  0.00    -0.288 OA 
BRANCH  10  13
HETATM   13  O   UNL     1      -5.789  15.090  69.794  1.00  0.00    -0.105 OA 
BRANCH  13  14
HETATM   14  C   UNL     1      -5.127  14.184  70.695  1.00  0.00    -0.105 C  
HETATM   15  C   UNL     1      -5.638  14.251  72.116  1.00  0.00    -0.133 C  
HETATM   16  O   UNL     1      -5.528  11.969  71.518  1.00  0.00    -0.371 OA 
HETATM   17  C   UNL     1      -5.386  12.856  72.633  1.00  0.00     0.373 C  
HETATM   18  C   UNL     1      -5.436  12.741  70.311  1.00  0.00    -0.138 C  
ENDBRANCH  13  14
ENDBRANCH  10  13
ENDBRANCH   8   9
BRANCH   8  19
HETATM   19  C   UNL     1      -8.941  14.312  66.995  1.00  0.00    -0.251 C  
BRANCH  19  20
HETATM   20  C   UNL     1      -9.438  15.718  67.197  1.00  0.00    -0.222 A  
HETATM   21  C   UNL     1     -10.865  17.309  68.346  1.00  0.00    -0.273 A  
HETATM   22  C   UNL     1      -9.668  17.980  66.358  1.00  0.00    -0.324 A  
HETATM   23  C   UNL     1      -9.110  16.706  66.261  1.00  0.00    -0.333 A  
HETATM   24  C   UNL     1     -10.314  16.030  68.246  1.00  0.00    -0.261 A  
HETATM   25  C   UNL     1     -10.547  18.280  67.398  1.00  0.00    -0.425 A  
ENDBRANCH  19  20
ENDBRANCH   8  19
ENDBRANCH   7   8
BRANCH   7  26
HETATM   26  O   UNL     1      -8.345  11.407  66.656  1.00  0.00    -0.164 OA 
HETATM   27  O   UNL     1      -5.559  10.531  65.165  1.00  0.00    -0.120 OA 
HETATM   28  O   UNL     1      -7.130   9.448  66.464  1.00  0.00    -0.083 OA 
HETATM   29  O   UNL     1      -5.942  11.503  67.069  1.00  0.00    -0.093 OA 
HETATM   30  P   UNL     1      -6.875  10.944  65.870  1.00  0.00     0.117 P  
ENDBRANCH   7  26
ENDBRANCH   6   7
ENDBRANCH   5   6
BRANCH   5  31
HETATM   31  S   UNL     1     -11.570  11.592  68.746  1.00  0.00    -0.342 S  
HETATM   32  O   UNL     1     -11.067  12.718  69.504  1.00  0.00    -0.123 OA 
HETATM   33  O   UNL     1     -12.794  10.954  69.187  1.00  0.00    -0.137 OA 
BRANCH  31  34
HETATM   34  C   UNL     1     -11.891  12.217  67.138  1.00  0.00    -0.258 A  
HETATM   35  N   UNL     1     -12.363  13.722  63.265  1.00  0.00    -1.124 NA 
HETATM   36  C   UNL     1     -12.547  13.435  66.959  1.00  0.00     0.182 A  
HETATM   37  H1  UNL     1     -12.023  13.195  62.461  1.00  0.00     0.000 HD 
HETATM   38  H2  UNL     1     -11.932  14.647  63.246  1.00  0.00     0.000 HD 
HETATM   39  C   UNL     1     -11.277  11.579  66.058  1.00  0.00    -0.240 A  
HETATM   40  C   UNL     1     -11.448  12.076  64.775  1.00  0.00    -0.357 A  
HETATM   41  C   UNL     1     -12.705  13.931  65.663  1.00  0.00    -0.534 A  
HETATM   42  C   UNL     1     -12.238  13.206  64.559  1.00  0.00    -0.406 A  
ENDBRANCH  31  34
ENDBRANCH   5  31
ENDBRANCH   4   5
TORSDOF 12
ENDMDL
MODEL      296
REMARK 921   NORMALIZED FREE ENERGY PREDICTED BY IDOCK:   -2.99 KCAL/MOL
REMARK 922        TOTAL FREE ENERGY PREDICTED BY IDOCK:   -7.90 KCAL/MOL
REMARK 923 INTER-LIGAND FREE ENERGY PREDICTED BY IDOCK:   -6.19 KCAL/MOL
REMARK 924 INTRA-LIGAND FREE ENERGY PREDICTED BY IDOCK:   -1.70 KCAL/MOL
REMARK 927      BINDING AFFINITY PREDICTED BY RF-SCORE:    0.00 PKD
ROOT
HETATM    1  C   UNL     1     -12.633  10.464  70.760  1.00  0.00    -0.462 C  
HETATM    2  C   UNL     1     -11.840  10.771  69.500  1.00  0.00    -0.380 C  
HETATM    3  C   UNL     1     -11.274  12.192  69.452  1.00  0.00    -0.248 C  
HETATM    4  C   UNL     1     -10.854   9.780  68.872  1.00  0.00    -0.192 C  
ENDROOT
BRANCH   4   5
HETATM    5  N   UNL     1      -9.984   8.780  69.556  1.00  0.00    -0.190 N  
BRANCH   5   6
HETATM    6  C   UNL     1      -8.523   9.309  69.439  1.00  0.00    -0.137 C  
BRANCH   6   7
HETATM    7  C   UNL     1      -8.136  10.014  68.059  1.00  0.00    -0.112 C  
BRANCH   7   8
HETATM    8  C   UNL     1      -7.938   8.930  66.888  1.00  0.00    -0.101 C  
BRANCH   8   9
HETATM    9  N   UNL     1      -7.374   7.658  67.374  1.00  0.00    -0.090 N  
HETATM   10  C   UNL     1      -6.765   6.777  66.517  1.00  0.00    -0.049 C  
HETATM   11  H   UNL     1      -7.437   7.429  68.366  1.00  0.00     0.000 HD 
HETATM   12  O   UNL     1      -6.572   6.956  65.326  1.00  0.00    -0.048 OA 
BRANCH  10  13
HETATM   13  O   UNL     1      -6.379   5.665  67.200  1.00  0.00    -0.039 OA 
BRANCH  13  14
HETATM   14  C   UNL     1      -7.247   4.528  67.047  1.00  0.00    -0.073 C  
HETATM   15  C   UNL     1      -6.829   3.325  67.862  1.00  0.00    -0.049 C  
HETATM   16  O   UNL     1      -9.144   3.637  68.209  1.00  0.00    -0.121 OA 
HETATM   17  C   UNL     1      -8.139   2.622  68.123  1.00  0.00    -0.058 C  
HETATM   18  C   UNL     1      -8.627   4.838  67.618  1.00  0.00    -0.103 C  
ENDBRANCH  13  14
ENDBRANCH  10  13
ENDBRANCH   8   9
BRANCH   8  19
HETATM   19  C   UNL     1      -9.135   8.675  65.941  1.00  0.00    -0.259 C  
BRANCH  19  20
HETATM   20  C   UNL     1      -9.346   9.638  64.804  1.00  0.00    -0.286 A  
HETATM   21  C   UNL     1      -8.582  10.681  62.751  1.00  0.00    -0.231 A  
HETATM   22  C   UNL     1     -10.528  11.546  63.890  1.00  0.00    -0.439 A  
HETATM   23  C   UNL     1     -10.396  10.561  64.868  1.00  0.00    -0.307 A  
HETATM   24  C   UNL     1      -8.443   9.700  63.734  1.00  0.00    -0.190 A  
HETATM   25  C   UNL     1      -9.620  11.608  62.835  1.00  0.00    -0.223 A  
ENDBRANCH  19  20
ENDBRANCH   8  19
ENDBRANCH   7   8
BRANCH   7  26
HETATM   26  O   UNL     1      -7.063  11.014  68.217  1.00  0.00    -0.068 OA 
HETATM   27  O   UNL     1      -7.726  14.102  67.336  1.00  0.00    -0.180 OA 
HETATM   28  O   UNL     1      -7.892  12.888  69.292  1.00  0.00     0.287 OA 
HETATM   29  O   UNL     1      -8.858  12.260  67.129  1.00  0.00    -0.180 OA 
HETATM   30  P   UNL     1      -7.414  12.644  67.752  1.00  0.00    -0.163 P  
ENDBRANCH   7  26
ENDBRANCH   6   7
ENDBRANCH   5   6
BRANCH   5  31
HETATM   31  S   UNL     1     -10.229   8.070  71.091  1.00  0.00    -0.195 S  
HETATM   32  O   UNL     1     -11.582   7.557  71.170  1.00  0.00    -0.270 OA 
HETATM   33  O   UNL     1      -9.793   9.020  72.094  1.00  0.00    -0.273 OA 
BRANCH  31  34
HETATM   34  C   UNL     1      -9.188   6.666  71.255  1.00  0.00    -0.155 A  
HETATM   35  N   UNL     1      -6.630   3.360  71.360  1.00  0.00    -0.025 NA 
HETATM   36  C   UNL     1      -9.719   5.407  71.533  1.00  0.00    -0.209 A  
HETATM   37  H1  UNL     1      -5.629   3.477  71.205  1.00  0.00     0.000 HD 
HETATM   38  H2  UNL     1      -6.981   2.685  70.680  1.00  0.00     0.000 HD 
HETATM   39  C   UNL     1      -7.851   6.802  70.876  1.00  0.00    -0.098 A  
HETATM   40  C   UNL     1      -7.005   5.705  70.926  1.00  0.00    -0.061 A  
HETATM   41  C   UNL     1      -8.859   4.308  71.571  1.00  0.00    -0.147 A  
HETATM   42  C   UNL     1      -7.484   4.468  71.359  1.00  0.00    -0.068 A  
ENDBRANCH  31  34
ENDBRANCH   5  31
ENDBRANCH   4   5
TORSDOF 12
ENDMDL
MODEL      297
REMARK 921   NORMALIZED FREE ENERGY PREDICTED BY IDOCK:   -2.91 KCAL/MOL
REMARK 922        TOTAL FREE ENERGY PREDICTED BY IDOCK:   -7.75 KCAL/MOL
REMARK 923 INTER-LIGAND FREE ENERGY PREDICTED BY IDOCK:   -7.62 KCAL/MOL
REMARK 924 INTRA-LIGAND FREE ENERGY PREDICTED BY IDOCK:   -0.12 KCAL/MOL
REMARK 927      BINDING AFFINITY PREDICTED BY RF-SCORE:    0.00 PKD
ROOT
HETATM    1  C   UNL     1     -12.671  13.301  71.680  1.00  0.00    -0.327 C  
HETATM    2  C   UNL     1     -12.823  14.117  70.407  1.00  0.00    -0.256 C  
HETATM    3  C   UNL     1     -12.776  15.631  70.628  1.00  0.00    -0.443 C  
HETATM    4  C   UNL     1     -12.131  13.747  69.091  1.00  0.00    -0.333 C  
ENDROOT
BRANCH   4   5
HETATM    5  N   UNL     1     -10.801  13.099  68.894  1.00  0.00    -0.232 N  
BRANCH   5   6
HETATM    6  C   UNL     1     -11.068  11.570  68.759  1.00  0.00    -0.233 C  
BRANCH   6   7
HETATM    7  C   UNL     1     -10.119  10.608  69.609  1.00  0.00    -0.080 C  
BRANCH   7   8
HETATM    8  C   UNL     1      -9.515   9.430  68.696  1.00  0.00    -0.146 C  
BRANCH   8   9
HETATM    9  N   UNL     1      -9.554   8.115  69.360  1.00  0.00    -0.166 N  
HETATM   10  C   UNL     1      -8.400   7.427  69.642  1.00  0.00    -0.132 C  
HETATM   11  H   UNL     1     -10.454   7.709  69.616  1.00  0.00     0.000 HD 
HETATM   12  O   UNL     1      -7.265   7.825  69.443  1.00  0.00    -0.076 OA 
BRANCH  10  13
HETATM   13  O   UNL     1      -8.707   6.227  70.204  1.00  0.00    -0.135 OA 
BRANCH  13  14
HETATM   14  C   UNL     1      -8.871   6.250  71.633  1.00  0.00    -0.138 C  
HETATM   15  C   UNL     1      -7.920   5.336  72.372  1.00  0.00    -0.103 C  
HETATM   16  O   UNL     1      -7.873   7.429  73.465  1.00  0.00    -0.101 OA 
HETATM   17  C   UNL     1      -7.760   6.023  73.707  1.00  0.00    -0.095 C  
HETATM   18  C   UNL     1      -8.492   7.620  72.184  1.00  0.00    -0.114 C  
ENDBRANCH  13  14
ENDBRANCH  10  13
ENDBRANCH   8   9
BRANCH   8  19
HETATM   19  C   UNL     1     -10.021   9.326  67.238  1.00  0.00    -0.264 C  
BRANCH  19  20
HETATM   20  C   UNL     1      -9.047   9.639  66.134  1.00  0.00    -0.201 A  
HETATM   21  C   UNL     1      -6.880  10.439  65.395  1.00  0.00    -0.120 A  
HETATM   22  C   UNL     1      -8.638  10.061  63.784  1.00  0.00    -0.202 A  
HETATM   23  C   UNL     1      -9.489   9.645  64.806  1.00  0.00    -0.256 A  
HETATM   24  C   UNL     1      -7.733  10.032  66.422  1.00  0.00    -0.103 A  
HETATM   25  C   UNL     1      -7.336  10.461  64.078  1.00  0.00     0.013 A  
ENDBRANCH  19  20
ENDBRANCH   8  19
ENDBRANCH   7   8
BRANCH   7  26
HETATM   26  O   UNL     1     -10.728  10.201  70.890  1.00  0.00    -0.249 OA 
HETATM   27  O   UNL     1     -13.889   9.333  70.862  1.00  0.00    -0.129 OA 
HETATM   28  O   UNL     1     -11.884   8.217  70.612  1.00  0.00    -0.221 OA 
HETATM   29  O   UNL     1     -12.603  10.177  69.329  1.00  0.00     0.197 OA 
HETATM   30  P   UNL     1     -12.396   9.743  70.875  1.00  0.00    -0.234 P  
ENDBRANCH   7  26
ENDBRANCH   6   7
ENDBRANCH   5   6
BRANCH   5  31
HETATM   31  S   UNL     1      -9.564  13.576  67.816  1.00  0.00    -0.227 S  
HETATM   32  O   UNL     1      -9.721  12.865  66.564  1.00  0.00    -0.246 OA 
HETATM   33  O   UNL     1      -8.300  13.470  68.516  1.00  0.00    -0.155 OA 
BRANCH  31  34
HETATM   34  C   UNL     1      -9.766  15.274  67.416  1.00  0.00    -0.208 A  
HETATM   35  N   UNL     1     -10.437  19.337  66.690  1.00  0.00    -0.419 NA 
HETATM   36  C   UNL     1     -10.302  15.663  66.189  1.00  0.00    -0.329 A  
HETATM   37  H1  UNL     1     -10.192  20.034  67.393  1.00  0.00     0.000 HD 
HETATM   38  H2  UNL     1     -11.427  19.444  66.467  1.00  0.00     0.000 HD 
HETATM   39  C   UNL     1      -9.589  16.207  68.439  1.00  0.00    -0.209 A  
HETATM   40  C   UNL     1      -9.801  17.554  68.189  1.00  0.00    -0.306 A  
HETATM   41  C   UNL     1     -10.520  17.022  65.951  1.00  0.00    -0.282 A  
HETATM   42  C   UNL     1     -10.183  17.980  66.916  1.00  0.00    -0.362 A  
ENDBRANCH  31  34
ENDBRANCH   5  31
ENDBRANCH   4   5
TORSDOF 12
ENDMDL
MODEL      298
REMARK 921   NORMALIZED FREE ENERGY PREDICTED BY IDOCK:   -2.89 KCAL/MOL
REMARK 922        TOTAL FREE ENERGY PREDICTED BY IDOCK:   -7.73 KCAL/MOL
REMARK 923 INTER-LIGAND FREE ENERGY PREDICTED BY IDOCK:   -7.59 KCAL/MOL
REMARK 924 INTRA-LIGAND FREE ENERGY PREDICTED BY IDOCK:   -0.14 KCAL/MOL
REMARK 927      BINDING AFFINITY PREDICTED BY RF-SCORE:    0.00 PKD
ROOT
HETATM    1  C   UNL     1      -7.093  17.619  66.877  1.00  0.00    -0.219 C  
HETATM    2  C   UNL     1      -6.897  16.456  67.836  1.00  0.00    -0.152 C  
HETATM    3  C   UNL     1      -7.287  16.768  69.282  1.00  0.00    -0.164 C  
HETATM    4  C   UNL     1      -7.266  15.011  67.481  1.00  0.00    -0.201 C  
ENDROOT
BRANCH   4   5
HETATM    5  N   UNL     1      -8.383  14.525  66.620  1.00  0.00     0.002 N  
BRANCH   5   6
HETATM    6  C   UNL     1      -8.475  12.986  66.840  1.00  0.00    -0.078 C  
BRANCH   6   7
HETATM    7  C   UNL     1      -8.238  12.469  68.332  1.00  0.00    -0.136 C  
BRANCH   7   8
HETATM    8  C   UNL     1      -7.181  11.257  68.367  1.00  0.00    -0.085 C  
BRANCH   8   9
HETATM    9  N   UNL     1      -7.501  10.248  69.392  1.00  0.00    -0.113 N  
HETATM   10  C   UNL     1      -6.918  10.286  70.633  1.00  0.00     0.142 C  
HETATM   11  H   UNL     1      -8.170   9.509  69.175  1.00  0.00     0.000 HD 
HETATM   12  O   UNL     1      -6.152  11.145  71.036  1.00  0.00    -0.366 OA 
BRANCH  10  13
HETATM   13  O   UNL     1      -7.338   9.222  71.370  1.00  0.00    -0.300 OA 
BRANCH  13  14
HETATM   14  C   UNL     1      -8.716   8.856  71.177  1.00  0.00    -0.222 C  
HETATM   15  C   UNL     1      -8.904   7.498  70.539  1.00  0.00    -0.147 C  
HETATM   16  O   UNL     1     -10.356   7.607  72.398  1.00  0.00    -0.207 OA 
HETATM   17  C   UNL     1     -10.239   7.051  71.084  1.00  0.00    -0.195 C  
HETATM   18  C   UNL     1      -9.406   8.675  72.524  1.00  0.00    -0.160 C  
ENDBRANCH  13  14
ENDBRANCH  10  13
ENDBRANCH   8   9
BRANCH   8  19
HETATM   19  C   UNL     1      -6.824  10.582  67.021  1.00  0.00    -0.087 C  
BRANCH  19  20
HETATM   20  C   UNL     1      -6.991   9.090  66.920  1.00  0.00    -0.078 A  
HETATM   21  C   UNL     1      -6.065   6.850  67.024  1.00  0.00    -0.036 A  
HETATM   22  C   UNL     1      -8.298   7.193  66.168  1.00  0.00    -0.133 A  
HETATM   23  C   UNL     1      -8.176   8.563  66.393  1.00  0.00    -0.108 A  
HETATM   24  C   UNL     1      -5.938   8.222  67.241  1.00  0.00    -0.050 A  
HETATM   25  C   UNL     1      -7.242   6.338  66.480  1.00  0.00    -0.073 A  
ENDBRANCH  19  20
ENDBRANCH   8  19
ENDBRANCH   7   8
BRANCH   7  26
HETATM   26  O   UNL     1      -9.500  12.262  69.067  1.00  0.00     0.129 OA 
HETATM   27  O   UNL     1     -11.966  10.808  67.469  1.00  0.00    -0.313 OA 
HETATM   28  O   UNL     1     -10.219  10.080  68.790  1.00  0.00    -0.170 OA 
HETATM   29  O   UNL     1     -10.019  11.504  66.806  1.00  0.00    -0.202 OA 
HETATM   30  P   UNL     1     -10.801  11.494  68.223  1.00  0.00    -0.256 P  
ENDBRANCH   7  26
ENDBRANCH   6   7
ENDBRANCH   5   6
BRANCH   5  31
HETATM   31  S   UNL     1      -9.950  15.193  66.480  1.00  0.00    -0.280 S  
HETATM   32  O   UNL     1      -9.876  16.431  65.732  1.00  0.00    -0.421 OA 
HETATM   33  O   UNL     1     -10.540  15.221  67.803  1.00  0.00    -0.255 OA 
BRANCH  31  34
HETATM   34  C   UNL     1     -10.953  14.123  65.515  1.00  0.00    -0.310 A  
HETATM   35  N   UNL     1     -13.279  11.745  62.981  1.00  0.00    -0.627 NA 
HETATM   36  C   UNL     1     -12.317  13.994  65.771  1.00  0.00    -0.506 A  
HETATM   37  H1  UNL     1     -12.850  11.250  62.200  1.00  0.00     0.000 HD 
HETATM   38  H2  UNL     1     -14.024  12.337  62.612  1.00  0.00     0.000 HD 
HETATM   39  C   UNL     1     -10.397  13.585  64.352  1.00  0.00    -0.306 A  
HETATM   40  C   UNL     1     -11.170  12.788  63.523  1.00  0.00    -0.429 A  
HETATM   41  C   UNL     1     -13.088  13.196  64.924  1.00  0.00    -0.031 A  
HETATM   42  C   UNL     1     -12.499  12.514  63.850  1.00  0.00    -0.445 A  
ENDBRANCH  31  34
ENDBRANCH   5  31
ENDBRANCH   4   5
TORSDOF 12
ENDMDL
MODEL      299
REMARK 921   NORMALIZED FREE ENERGY PREDICTED BY IDOCK:   -2.85 KCAL/MOL
REMARK 922        TOTAL FREE ENERGY PREDICTED BY IDOCK:   -7.65 KCAL/MOL
REMARK 923 INTER-LIGAND FREE ENERGY PREDICTED BY IDOCK:   -7.34 KCAL/MOL
REMARK 924 INTRA-LIGAND FREE ENERGY PREDICTED BY IDOCK:   -0.31 KCAL/MOL
REMARK 927      BINDING AFFINITY PREDICTED BY RF-SCORE:    0.00 PKD
ROOT
HETATM    1  C   UNL     1      -5.207  12.922  69.180  1.00  0.00    -0.069 C  
HETATM    2  C   UNL     1      -6.145  13.784  70.009  1.00  0.00    -0.142 C  
HETATM    3  C   UNL     1      -5.492  15.044  70.582  1.00  0.00    -0.137 C  
HETATM    4  C   UNL     1      -7.595  14.071  69.601  1.00  0.00     0.406 C  
ENDROOT
BRANCH   4   5
HETATM    5  N   UNL     1      -8.157  14.224  68.227  1.00  0.00    -0.134 N  
BRANCH   5   6
HETATM    6  C   UNL     1      -9.667  13.855  68.323  1.00  0.00    -0.223 C  
BRANCH   6   7
HETATM    7  C   UNL     1     -10.136  12.574  67.492  1.00  0.00    -0.207 C  
BRANCH   7   8
HETATM    8  C   UNL     1      -9.502  11.225  68.095  1.00  0.00    -0.184 C  
BRANCH   8   9
HETATM    9  N   UNL     1     -10.173  10.780  69.330  1.00  0.00    -0.304 N  
HETATM   10  C   UNL     1     -11.141   9.808  69.302  1.00  0.00    -0.149 C  
HETATM   11  H   UNL     1      -9.913  11.203  70.221  1.00  0.00     0.000 HD 
HETATM   12  O   UNL     1     -11.500   9.186  68.317  1.00  0.00     0.382 OA 
BRANCH  10  13
HETATM   13  O   UNL     1     -11.637   9.618  70.555  1.00  0.00    -0.264 OA 
BRANCH  13  14
HETATM   14  C   UNL     1     -10.991   8.578  71.311  1.00  0.00    -0.256 C  
HETATM   15  C   UNL     1     -11.378   7.180  70.883  1.00  0.00    -0.319 C  
HETATM   16  O   UNL     1      -9.024   7.232  71.064  1.00  0.00    -0.147 OA 
HETATM   17  C   UNL     1     -10.154   6.369  71.232  1.00  0.00    -0.187 C  
HETATM   18  C   UNL     1      -9.490   8.589  71.048  1.00  0.00    -0.186 C  
ENDBRANCH  13  14
ENDBRANCH  10  13
ENDBRANCH   8   9
BRANCH   8  19
HETATM   19  C   UNL     1      -9.292  10.039  67.125  1.00  0.00    -0.173 C  
BRANCH  19  20
HETATM   20  C   UNL     1      -8.204   9.051  67.451  1.00  0.00    -0.108 A  
HETATM   21  C   UNL     1      -5.985   8.557  68.297  1.00  0.00    -0.046 A  
HETATM   22  C   UNL     1      -7.254   6.840  67.168  1.00  0.00    -0.085 A  
HETATM   23  C   UNL     1      -8.309   7.733  66.991  1.00  0.00    -0.117 A  
HETATM   24  C   UNL     1      -7.037   9.456  68.113  1.00  0.00    -0.076 A  
HETATM   25  C   UNL     1      -6.092   7.253  67.818  1.00  0.00    -0.035 A  
ENDBRANCH  19  20
ENDBRANCH   8  19
ENDBRANCH   7   8
BRANCH   7  26
HETATM   26  O   UNL     1     -10.008  12.767  66.035  1.00  0.00    -0.265 OA 
HETATM   27  O   UNL     1     -12.747  12.637  64.238  1.00  0.00    -0.657 OA 
HETATM   28  O   UNL     1     -11.571  14.310  65.308  1.00  0.00    -0.327 OA 
HETATM   29  O   UNL     1     -12.370  12.236  66.339  1.00  0.00    -0.531 OA 
HETATM   30  P   UNL     1     -11.453  12.699  65.087  1.00  0.00    -0.360 P  
ENDBRANCH   7  26
ENDBRANCH   6   7
ENDBRANCH   5   6
BRANCH   5  31
HETATM   31  S   UNL     1      -7.940  15.540  67.159  1.00  0.00    -0.233 S  
HETATM   32  O   UNL     1      -8.736  15.324  65.968  1.00  0.00    -0.173 OA 
HETATM   33  O   UNL     1      -6.515  15.756  67.006  1.00  0.00    -0.299 OA 
BRANCH  31  34
HETATM   34  C   UNL     1      -8.585  16.997  67.894  1.00  0.00    -0.207 A  
HETATM   35  N   UNL     1     -10.394  20.369  69.581  1.00  0.00    -0.312 NA 
HETATM   36  C   UNL     1      -8.303  18.254  67.362  1.00  0.00    -0.245 A  
HETATM   37  H1  UNL     1     -11.016  20.274  70.384  1.00  0.00     0.000 HD 
HETATM   38  H2  UNL     1     -10.906  20.841  68.835  1.00  0.00     0.000 HD 
HETATM   39  C   UNL     1      -9.563  16.848  68.880  1.00  0.00    -0.251 A  
HETATM   40  C   UNL     1     -10.150  17.971  69.444  1.00  0.00     0.035 A  
HETATM   41  C   UNL     1      -8.907  19.377  67.932  1.00  0.00    -0.362 A  
HETATM   42  C   UNL     1      -9.761  19.247  69.036  1.00  0.00    -0.391 A  
ENDBRANCH  31  34
ENDBRANCH   5  31
ENDBRANCH   4   5
TORSDOF 12
ENDMDL
MODEL      300
REMARK 921   NORMALIZED FREE ENERGY PREDICTED BY IDOCK:   -2.81 KCAL/MOL
REMARK 922        TOTAL FREE ENERGY PREDICTED BY IDOCK:   -7.58 KCAL/MOL
REMARK 923 INTER-LIGAND FREE ENERGY PREDICTED BY IDOCK:   -7.92 KCAL/MOL
REMARK 924 INTRA-LIGAND FREE ENERGY PREDICTED BY IDOCK:    0.34 KCAL/MOL
REMARK 927      BINDING AFFINITY PREDICTED BY RF-SCORE:    0.00 PKD
ROOT
HETATM    1  C   UNL     1     -12.425  12.042  71.610  1.00  0.00    -0.078 C  
HETATM    2  C   UNL     1     -12.586  12.699  70.249  1.00  0.00    -0.044 C  
HETATM    3  C   UNL     1     -12.642  14.227  70.298  1.00  0.00    -0.378 C  
HETATM    4  C   UNL     1     -11.829  12.230  69.001  1.00  0.00    -0.305 C  
ENDROOT
BRANCH   4   5
HETATM    5  N   UNL     1     -10.455  11.655  68.913  1.00  0.00    -0.203 N  
BRANCH   5   6
HETATM    6  C   UNL     1     -10.621  10.106  68.950  1.00  0.00    -0.215 C  
BRANCH   6   7
HETATM    7  C   UNL     1      -9.632   9.313  69.921  1.00  0.00    -0.199 C  
BRANCH   7   8
HETATM    8  C   UNL     1      -9.362   7.821  69.384  1.00  0.00    -0.152 C  
BRANCH   8   9
HETATM    9  N   UNL     1      -8.850   7.794  68.001  1.00  0.00    -0.125 N  
HETATM   10  C   UNL     1      -9.593   7.260  66.980  1.00  0.00    -0.166 C  
HETATM   11  H   UNL     1      -7.928   8.181  67.802  1.00  0.00     0.000 HD 
HETATM   12  O   UNL     1     -10.727   6.821  67.074  1.00  0.00    -0.303 OA 
BRANCH  10  13
HETATM   13  O   UNL     1      -8.881   7.308  65.821  1.00  0.00    -0.144 OA 
BRANCH  13  14
HETATM   14  C   UNL     1      -8.340   8.601  65.495  1.00  0.00    -0.150 C  
HETATM   15  C   UNL     1      -6.834   8.619  65.368  1.00  0.00    -0.071 C  
HETATM   16  O   UNL     1      -7.709   9.751  63.489  1.00  0.00    -0.121 OA 
HETATM   17  C   UNL     1      -6.591   9.737  64.383  1.00  0.00    -0.118 C  
HETATM   18  C   UNL     1      -8.784   9.020  64.098  1.00  0.00    -0.096 C  
ENDBRANCH  13  14
ENDBRANCH  10  13
ENDBRANCH   8   9
BRANCH   8  19
HETATM   19  C   UNL     1      -8.545   6.872  70.292  1.00  0.00    -0.140 C  
BRANCH  19  20
HETATM   20  C   UNL     1      -8.434   5.429  69.878  1.00  0.00    -0.103 A  
HETATM   21  C   UNL     1      -7.145   3.588  68.964  1.00  0.00    -0.049 A  
HETATM   22  C   UNL     1      -9.525   3.346  69.293  1.00  0.00    -0.212 A  
HETATM   23  C   UNL     1      -9.589   4.643  69.800  1.00  0.00    -0.258 A  
HETATM   24  C   UNL     1      -7.208   4.890  69.463  1.00  0.00    -0.056 A  
HETATM   25  C   UNL     1      -8.305   2.821  68.872  1.00  0.00    -0.087 A  
ENDBRANCH  19  20
ENDBRANCH   8  19
ENDBRANCH   7   8
BRANCH   7  26
HETATM   26  O   UNL     1     -10.008   9.442  71.341  1.00  0.00    -0.286 OA 
HETATM   27  O   UNL     1     -12.822   8.058  72.298  1.00  0.00    -0.273 OA 
HETATM   28  O   UNL     1     -10.620   7.375  72.181  1.00  0.00    -0.210 OA 
HETATM   29  O   UNL     1     -11.928   8.319  70.337  1.00  0.00    -0.026 OA 
HETATM   30  P   UNL     1     -11.493   8.711  71.846  1.00  0.00    -0.381 P  
ENDBRANCH   7  26
ENDBRANCH   6   7
ENDBRANCH   5   6
BRANCH   5  31
HETATM   31  S   UNL     1      -9.219  12.087  67.816  1.00  0.00    -0.198 S  
HETATM   32  O   UNL     1      -9.245  11.183  66.686  1.00  0.00    -0.167 OA 
HETATM   33  O   UNL     1      -7.986  12.217  68.567  1.00  0.00    -0.144 OA 
BRANCH  31  34
HETATM   34  C   UNL     1      -9.561  13.675  67.151  1.00  0.00    -0.241 A  
HETATM   35  N   UNL     1     -10.418  17.327  65.303  1.00  0.00    -0.656 NA 
HETATM   36  C   UNL     1      -8.589  14.675  67.144  1.00  0.00    -0.244 A  
HETATM   37  H1  UNL     1     -11.333  17.491  64.883  1.00  0.00     0.000 HD 
HETATM   38  H2  UNL     1      -9.707  17.477  64.587  1.00  0.00     0.000 HD 
HETATM   39  C   UNL     1     -10.747  13.835  66.432  1.00  0.00    -0.281 A  
HETATM   40  C   UNL     1     -11.031  15.053  65.832  1.00  0.00    -0.343 A  
HETATM   41  C   UNL     1      -8.883  15.894  66.529  1.00  0.00    -0.340 A  
HETATM   42  C   UNL     1     -10.140  16.120  65.952  1.00  0.00    -0.354 A  
ENDBRANCH  31  34
ENDBRANCH   5  31
ENDBRANCH   4   5
TORSDOF 12
ENDMDL
MODEL      301
REMARK 921   NORMALIZED FREE ENERGY PREDICTED BY IDOCK:   -2.75 KCAL/MOL
REMARK 922        TOTAL FREE ENERGY PREDICTED BY IDOCK:   -7.48 KCAL/MOL
REMARK 923 INTER-LIGAND FREE ENERGY PREDICTED BY IDOCK:   -6.57 KCAL/MOL
REMARK 924 INTRA-LIGAND FREE ENERGY PREDICTED BY IDOCK:   -0.91 KCAL/MOL
REMARK 927      BINDING AFFINITY PREDICTED BY RF-SCORE:    0.00 PKD
ROOT
HETATM    1  C   UNL     1      -6.467  12.956  69.601  1.00  0.00    -0.044 C  
HETATM    2  C   UNL     1      -7.225  13.560  68.430  1.00  0.00    -0.109 C  
HETATM    3  C   UNL     1      -6.341  14.327  67.445  1.00  0.00     0.142 C  
HETATM    4  C   UNL     1      -8.338  12.816  67.684  1.00  0.00    -0.175 C  
ENDROOT
BRANCH   4   5
HETATM    5  N   UNL     1      -8.456  11.353  67.415  1.00  0.00    -0.139 N  
BRANCH   5   6
HETATM    6  C   UNL     1      -8.360  10.640  68.797  1.00  0.00    -0.144 C  
BRANCH   6   7
HETATM    7  C   UNL     1      -7.680   9.195  68.801  1.00  0.00    -0.087 C  
BRANCH   7   8
HETATM    8  C   UNL     1      -8.132   8.343  70.088  1.00  0.00    -0.108 C  
BRANCH   8   9
HETATM    9  N   UNL     1      -8.544   6.969  69.749  1.00  0.00    -0.140 N  
HETATM   10  C   UNL     1      -9.807   6.516  70.032  1.00  0.00    -0.165 C  
HETATM   11  H   UNL     1      -7.878   6.344  69.295  1.00  0.00     0.000 HD 
HETATM   12  O   UNL     1     -10.711   7.176  70.517  1.00  0.00    -0.227 OA 
BRANCH  10  13
HETATM   13  O   UNL     1      -9.918   5.209  69.671  1.00  0.00    -0.199 OA 
BRANCH  13  14
HETATM   14  C   UNL     1     -10.205   4.987  68.278  1.00  0.00    -0.073 C  
HETATM   15  C   UNL     1     -11.078   6.053  67.656  1.00  0.00    -0.217 C  
HETATM   16  O   UNL     1      -9.264   5.690  66.190  1.00  0.00    -0.155 OA 
HETATM   17  C   UNL     1     -10.652   6.037  66.208  1.00  0.00     0.045 C  
HETATM   18  C   UNL     1      -8.927   5.098  67.453  1.00  0.00    -0.109 C  
ENDBRANCH  13  14
ENDBRANCH  10  13
ENDBRANCH   8   9
BRANCH   8  19
HETATM   19  C   UNL     1      -7.189   8.349  71.315  1.00  0.00    -0.073 C  
BRANCH  19  20
HETATM   20  C   UNL     1      -7.433   7.326  72.391  1.00  0.00    -0.084 A  
HETATM   21  C   UNL     1      -8.585   6.612  74.403  1.00  0.00    -0.170 A  
HETATM   22  C   UNL     1      -6.694   5.352  73.586  1.00  0.00    -0.078 A  
HETATM   23  C   UNL     1      -6.564   6.236  72.517  1.00  0.00    -0.064 A  
HETATM   24  C   UNL     1      -8.451   7.504  73.338  1.00  0.00    -0.196 A  
HETATM   25  C   UNL     1      -7.701   5.542  74.530  1.00  0.00    -0.098 A  
ENDBRANCH  19  20
ENDBRANCH   8  19
ENDBRANCH   7   8
BRANCH   7  26
HETATM   26  O   UNL     1      -6.233   9.250  68.523  1.00  0.00    -0.048 OA 
HETATM   27  O   UNL     1      -5.127   7.627  65.898  1.00  0.00    -0.024 OA 
HETATM   28  O   UNL     1      -5.881   9.771  66.297  1.00  0.00    -0.055 OA 
HETATM   29  O   UNL     1      -7.084   7.706  66.836  1.00  0.00    -0.079 OA 
HETATM   30  P   UNL     1      -5.650   8.394  67.138  1.00  0.00    -0.039 P  
ENDBRANCH   7  26
ENDBRANCH   6   7
ENDBRANCH   5   6
BRANCH   5  31
HETATM   31  S   UNL     1      -9.610  10.570  66.429  1.00  0.00    -0.184 S  
HETATM   32  O   UNL     1     -10.522   9.817  67.265  1.00  0.00    -0.238 OA 
HETATM   33  O   UNL     1      -8.895   9.868  65.382  1.00  0.00    -0.149 OA 
BRANCH  31  34
HETATM   34  C   UNL     1     -10.601  11.776  65.625  1.00  0.00    -0.268 A  
HETATM   35  N   UNL     1     -12.713  14.764  63.600  1.00  0.00    -0.798 NA 
HETATM   36  C   UNL     1     -11.366  12.681  66.360  1.00  0.00    -0.381 A  
HETATM   37  H1  UNL     1     -12.685  14.816  62.582  1.00  0.00     0.000 HD 
HETATM   38  H2  UNL     1     -12.400  15.660  63.974  1.00  0.00     0.000 HD 
HETATM   39  C   UNL     1     -10.427  11.948  64.251  1.00  0.00    -0.370 A  
HETATM   40  C   UNL     1     -11.139  12.933  63.583  1.00  0.00    -0.371 A  
HETATM   41  C   UNL     1     -12.073  13.674  65.678  1.00  0.00    -0.457 A  
HETATM   42  C   UNL     1     -12.035  13.745  64.279  1.00  0.00    -0.443 A  
ENDBRANCH  31  34
ENDBRANCH   5  31
ENDBRANCH   4   5
TORSDOF 12
ENDMDL
MODEL      302
REMARK 921   NORMALIZED FREE ENERGY PREDICTED BY IDOCK:   -2.74 KCAL/MOL
REMARK 922        TOTAL FREE ENERGY PREDICTED BY IDOCK:   -7.47 KCAL/MOL
REMARK 923 INTER-LIGAND FREE ENERGY PREDICTED BY IDOCK:   -7.44 KCAL/MOL
REMARK 924 INTRA-LIGAND FREE ENERGY PREDICTED BY IDOCK:   -0.03 KCAL/MOL
REMARK 927      BINDING AFFINITY PREDICTED BY RF-SCORE:    0.00 PKD
ROOT
HETATM    1  C   UNL     1      -6.029  11.090  68.981  1.00  0.00    -0.041 C  
HETATM    2  C   UNL     1      -7.545  11.094  68.865  1.00  0.00    -0.133 C  
HETATM    3  C   UNL     1      -8.136  12.444  68.455  1.00  0.00    -0.143 C  
HETATM    4  C   UNL     1      -8.335   9.946  68.227  1.00  0.00    -0.110 C  
ENDROOT
BRANCH   4   5
HETATM    5  N   UNL     1      -7.934   9.065  67.092  1.00  0.00    -0.102 N  
BRANCH   5   6
HETATM    6  C   UNL     1      -8.005   7.601  67.621  1.00  0.00    -0.121 C  
BRANCH   6   7
HETATM    7  C   UNL     1      -8.922   7.357  68.905  1.00  0.00    -0.130 C  
BRANCH   7   8
HETATM    8  C   UNL     1     -10.483   7.416  68.524  1.00  0.00    -0.186 C  
BRANCH   8   9
HETATM    9  N   UNL     1     -10.780   6.783  67.227  1.00  0.00    -0.310 N  
HETATM   10  C   UNL     1     -10.559   5.444  67.022  1.00  0.00    -0.226 C  
HETATM   11  H   UNL     1     -11.156   7.350  66.467  1.00  0.00     0.000 HD 
HETATM   12  O   UNL     1     -10.170   4.648  67.860  1.00  0.00    -0.071 OA 
BRANCH  10  13
HETATM   13  O   UNL     1     -10.861   5.121  65.736  1.00  0.00    -0.149 OA 
BRANCH  13  14
HETATM   14  C   UNL     1     -10.033   4.095  65.158  1.00  0.00    -0.210 C  
HETATM   15  C   UNL     1     -10.606   3.483  63.899  1.00  0.00    -0.269 C  
HETATM   16  O   UNL     1      -8.342   3.995  63.462  1.00  0.00    -0.089 OA 
HETATM   17  C   UNL     1      -9.373   3.056  63.140  1.00  0.00    -0.094 C  
HETATM   18  C   UNL     1      -8.725   4.696  64.655  1.00  0.00    -0.151 C  
ENDBRANCH  13  14
ENDBRANCH  10  13
ENDBRANCH   8   9
BRANCH   8  19
HETATM   19  C   UNL     1     -11.499   6.966  69.602  1.00  0.00    -0.204 C  
BRANCH  19  20
HETATM   20  C   UNL     1     -10.960   6.288  70.833  1.00  0.00    -0.344 A  
HETATM   21  C   UNL     1     -10.132   4.306  71.960  1.00  0.00    -0.244 A  
HETATM   22  C   UNL     1     -10.640   6.294  73.234  1.00  0.00    -0.284 A  
HETATM   23  C   UNL     1     -11.010   6.953  72.063  1.00  0.00    -0.266 A  
HETATM   24  C   UNL     1     -10.511   4.961  70.788  1.00  0.00    -0.166 A  
HETATM   25  C   UNL     1     -10.205   4.972  73.183  1.00  0.00    -0.214 A  
ENDBRANCH  19  20
ENDBRANCH   8  19
ENDBRANCH   7   8
BRANCH   7  26
HETATM   26  O   UNL     1      -8.497   8.163  70.065  1.00  0.00    -0.124 OA 
HETATM   27  O   UNL     1      -6.420   6.784  72.194  1.00  0.00    -0.052 OA 
HETATM   28  O   UNL     1      -6.197   8.065  70.287  1.00  0.00    -0.032 OA 
HETATM   29  O   UNL     1      -7.477   5.984  70.474  1.00  0.00    -0.085 OA 
HETATM   30  P   UNL     1      -7.401   7.435  71.188  1.00  0.00    -0.074 P  
ENDBRANCH   7  26
ENDBRANCH   6   7
ENDBRANCH   5   6
BRANCH   5  31
HETATM   31  S   UNL     1      -8.493   9.133  65.478  1.00  0.00    -0.157 S  
HETATM   32  O   UNL     1      -9.089   7.862  65.125  1.00  0.00     0.145 OA 
HETATM   33  O   UNL     1      -7.412   9.640  64.657  1.00  0.00    -0.112 OA 
BRANCH  31  34
HETATM   34  C   UNL     1      -9.792  10.307  65.363  1.00  0.00    -0.296 A  
HETATM   35  N   UNL     1     -12.688  13.301  64.996  1.00  0.00    -0.686 NA 
HETATM   36  C   UNL     1     -10.504  10.703  66.495  1.00  0.00    -0.285 A  
HETATM   37  H1  UNL     1     -12.885  13.720  64.088  1.00  0.00     0.000 HD 
HETATM   38  H2  UNL     1     -12.433  14.048  65.643  1.00  0.00     0.000 HD 
HETATM   39  C   UNL     1      -9.941  10.994  64.157  1.00  0.00    -0.385 A  
HETATM   40  C   UNL     1     -10.911  11.978  64.038  1.00  0.00    -0.442 A  
HETATM   41  C   UNL     1     -11.473  11.701  66.365  1.00  0.00    -0.238 A  
HETATM   42  C   UNL     1     -11.744  12.276  65.117  1.00  0.00    -0.361 A  
ENDBRANCH  31  34
ENDBRANCH   5  31
ENDBRANCH   4   5
TORSDOF 12
ENDMDL
MODEL      303
REMARK 921   NORMALIZED FREE ENERGY PREDICTED BY IDOCK:   -2.68 KCAL/MOL
REMARK 922        TOTAL FREE ENERGY PREDICTED BY IDOCK:   -7.37 KCAL/MOL
REMARK 923 INTER-LIGAND FREE ENERGY PREDICTED BY IDOCK:   -6.87 KCAL/MOL
REMARK 924 INTRA-LIGAND FREE ENERGY PREDICTED BY IDOCK:   -0.49 KCAL/MOL
REMARK 927      BINDING AFFINITY PREDICTED BY RF-SCORE:    0.00 PKD
ROOT
HETATM    1  C   UNL     1     -12.372  12.880  68.607  1.00  0.00     0.196 C  
HETATM    2  C   UNL     1     -11.442  12.117  69.535  1.00  0.00    -0.334 C  
HETATM    3  C   UNL     1     -12.155  11.121  70.452  1.00  0.00    -0.475 C  
HETATM    4  C   UNL     1     -10.089  11.555  69.084  1.00  0.00     0.031 C  
ENDROOT
BRANCH   4   5
HETATM    5  N   UNL     1      -9.710  11.016  67.745  1.00  0.00    -0.168 N  
BRANCH   5   6
HETATM    6  C   UNL     1      -9.606   9.470  67.903  1.00  0.00    -0.133 C  
BRANCH   6   7
HETATM    7  C   UNL     1      -8.739   8.942  69.135  1.00  0.00    -0.132 C  
BRANCH   7   8
HETATM    8  C   UNL     1      -9.393   7.624  69.784  1.00  0.00    -0.150 C  
BRANCH   8   9
HETATM    9  N   UNL     1      -9.457   6.493  68.841  1.00  0.00    -0.130 N  
HETATM   10  C   UNL     1     -10.658   5.933  68.484  1.00  0.00    -0.252 C  
HETATM   11  H   UNL     1      -8.594   6.120  68.446  1.00  0.00     0.000 HD 
HETATM   12  O   UNL     1     -11.759   6.319  68.836  1.00  0.00    -0.065 OA 
BRANCH  10  13
HETATM   13  O   UNL     1     -10.443   4.880  67.649  1.00  0.00    -0.081 OA 
BRANCH  13  14
HETATM   14  C   UNL     1      -9.064   4.642  67.315  1.00  0.00    -0.123 C  
HETATM   15  C   UNL     1      -8.611   3.221  67.558  1.00  0.00    -0.119 C  
HETATM   16  O   UNL     1      -7.866   3.833  65.403  1.00  0.00    -0.087 OA 
HETATM   17  C   UNL     1      -7.515   3.035  66.537  1.00  0.00    -0.075 C  
HETATM   18  C   UNL     1      -8.853   4.792  65.812  1.00  0.00    -0.131 C  
ENDBRANCH  13  14
ENDBRANCH  10  13
ENDBRANCH   8   9
BRANCH   8  19
HETATM   19  C   UNL     1      -8.857   7.164  71.160  1.00  0.00    -0.144 C  
BRANCH  19  20
HETATM   20  C   UNL     1      -9.260   5.798  71.649  1.00  0.00    -0.158 A  
HETATM   21  C   UNL     1     -10.775   4.360  72.883  1.00  0.00    -0.263 A  
HETATM   22  C   UNL     1      -8.666   3.491  72.089  1.00  0.00    -0.110 A  
HETATM   23  C   UNL     1      -8.366   4.729  71.524  1.00  0.00    -0.109 A  
HETATM   24  C   UNL     1     -10.472   5.604  72.327  1.00  0.00    -0.260 A  
HETATM   25  C   UNL     1      -9.868   3.308  72.770  1.00  0.00    -0.201 A  
ENDBRANCH  19  20
ENDBRANCH   8  19
ENDBRANCH   7   8
BRANCH   7  26
HETATM   26  O   UNL     1      -8.369  10.021  70.070  1.00  0.00    -0.188 OA 
HETATM   27  O   UNL     1      -5.183  10.727  70.389  1.00  0.00    -0.053 OA 
HETATM   28  O   UNL     1      -6.898  11.480  69.040  1.00  0.00    -0.090 OA 
HETATM   29  O   UNL     1      -6.218   9.143  69.323  1.00  0.00    -0.041 OA 
HETATM   30  P   UNL     1      -6.688  10.394  70.238  1.00  0.00    -0.004 P  
ENDBRANCH   7  26
ENDBRANCH   6   7
ENDBRANCH   5   6
BRANCH   5  31
HETATM   31  S   UNL     1     -10.408  11.407  66.235  1.00  0.00    -0.251 S  
HETATM   32  O   UNL     1     -11.795  10.992  66.228  1.00  0.00     0.134 OA 
HETATM   33  O   UNL     1      -9.531  10.901  65.198  1.00  0.00    -0.204 OA 
BRANCH  31  34
HETATM   34  C   UNL     1     -10.442  13.152  66.045  1.00  0.00    -0.284 A  
HETATM   35  N   UNL     1     -10.499  17.266  65.299  1.00  0.00    -0.656 NA 
HETATM   36  C   UNL     1      -9.436  13.952  66.585  1.00  0.00    -0.296 A  
HETATM   37  H1  UNL     1     -11.250  17.681  64.748  1.00  0.00     0.000 HD 
HETATM   38  H2  UNL     1      -9.610  17.505  64.858  1.00  0.00     0.000 HD 
HETATM   39  C   UNL     1     -11.372  13.690  65.153  1.00  0.00    -0.319 A  
HETATM   40  C   UNL     1     -11.394  15.056  64.919  1.00  0.00    -0.419 A  
HETATM   41  C   UNL     1      -9.463  15.326  66.336  1.00  0.00    -0.326 A  
HETATM   42  C   UNL     1     -10.495  15.896  65.579  1.00  0.00    -0.404 A  
ENDBRANCH  31  34
ENDBRANCH   5  31
ENDBRANCH   4   5
TORSDOF 12
ENDMDL
MODEL      304
REMARK 921   NORMALIZED FREE ENERGY PREDICTED BY IDOCK:   -2.63 KCAL/MOL
REMARK 922        TOTAL FREE ENERGY PREDICTED BY IDOCK:   -7.28 KCAL/MOL
REMARK 923 INTER-LIGAND FREE ENERGY PREDICTED BY IDOCK:   -8.16 KCAL/MOL
REMARK 924 INTRA-LIGAND FREE ENERGY PREDICTED BY IDOCK:    0.88 KCAL/MOL
REMARK 927      BINDING AFFINITY PREDICTED BY RF-SCORE:    0.00 PKD
ROOT
HETATM    1  C   UNL     1     -10.457  14.647  64.330  1.00  0.00     0.264 C  
HETATM    2  C   UNL     1     -11.041  15.742  65.208  1.00  0.00    -0.280 C  
HETATM    3  C   UNL     1     -12.358  15.359  65.888  1.00  0.00     0.859 C  
HETATM    4  C   UNL     1     -10.188  16.607  66.142  1.00  0.00    -0.348 C  
ENDROOT
BRANCH   4   5
HETATM    5  N   UNL     1      -8.957  16.222  66.893  1.00  0.00    -0.204 N  
BRANCH   5   6
HETATM    6  C   UNL     1      -8.917  14.665  66.910  1.00  0.00    -0.253 C  
BRANCH   6   7
HETATM    7  C   UNL     1      -9.042  13.970  68.342  1.00  0.00    -0.191 C  
BRANCH   7   8
HETATM    8  C   UNL     1      -9.881  12.601  68.254  1.00  0.00    -0.227 C  
BRANCH   8   9
HETATM    9  N   UNL     1     -10.052  12.123  66.870  1.00  0.00    -0.205 N  
HETATM   10  C   UNL     1     -11.285  11.760  66.391  1.00  0.00    -0.323 C  
HETATM   11  H   UNL     1      -9.239  12.062  66.257  1.00  0.00     0.000 HD 
HETATM   12  O   UNL     1     -12.340  11.840  66.998  1.00  0.00    -0.144 OA 
BRANCH  10  13
HETATM   13  O   UNL     1     -11.167  11.308  65.113  1.00  0.00    -0.144 OA 
BRANCH  13  14
HETATM   14  C   UNL     1      -9.841  10.899  64.735  1.00  0.00    -0.288 C  
HETATM   15  C   UNL     1      -9.528   9.457  65.066  1.00  0.00    -0.204 C  
HETATM   16  O   UNL     1      -8.840   9.830  62.838  1.00  0.00    -0.213 OA 
HETATM   17  C   UNL     1      -8.514   9.080  64.013  1.00  0.00    -0.163 C  
HETATM   18  C   UNL     1      -9.696  10.917  63.217  1.00  0.00    -0.362 C  
ENDBRANCH  13  14
ENDBRANCH  10  13
ENDBRANCH   8   9
BRANCH   8  19
HETATM   19  C   UNL     1      -9.460  11.443  69.189  1.00  0.00     0.120 C  
BRANCH  19  20
HETATM   20  C   UNL     1     -10.545  10.710  69.931  1.00  0.00    -0.203 A  
HETATM   21  C   UNL     1     -12.784  10.633  70.862  1.00  0.00    -0.498 A  
HETATM   22  C   UNL     1     -11.198   8.890  71.390  1.00  0.00    -0.382 A  
HETATM   23  C   UNL     1     -10.243   9.513  70.589  1.00  0.00    -0.364 A  
HETATM   24  C   UNL     1     -11.826  11.263  70.066  1.00  0.00    -0.448 A  
HETATM   25  C   UNL     1     -12.466   9.451  71.529  1.00  0.00    -0.450 A  
ENDBRANCH  19  20
ENDBRANCH   8  19
ENDBRANCH   7   8
BRANCH   7  26
HETATM   26  O   UNL     1      -9.441  14.919  69.399  1.00  0.00    -0.160 OA 
HETATM   27  O   UNL     1     -12.646  15.468  69.816  1.00  0.00    -0.251 OA 
HETATM   28  O   UNL     1     -11.112  13.987  70.699  1.00  0.00     0.196 OA 
HETATM   29  O   UNL     1     -11.550  14.344  68.315  1.00  0.00    -0.293 OA 
HETATM   30  P   UNL     1     -11.132  15.208  69.619  1.00  0.00    -0.307 P  
ENDBRANCH   7  26
ENDBRANCH   6   7
ENDBRANCH   5   6
BRANCH   5  31
HETATM   31  S   UNL     1      -7.380  16.848  66.691  1.00  0.00    -0.284 S  
HETATM   32  O   UNL     1      -7.346  17.682  65.508  1.00  0.00    -0.425 OA 
HETATM   33  O   UNL     1      -6.449  15.741  66.782  1.00  0.00    -0.218 OA 
BRANCH  31  34
HETATM   34  C   UNL     1      -7.005  17.920  68.029  1.00  0.00    -0.202 A  
HETATM   35  N   UNL     1      -5.899  20.595  71.047  1.00  0.00    -0.578 NA 
HETATM   36  C   UNL     1      -6.535  17.417  69.242  1.00  0.00    -0.245 A  
HETATM   37  H1  UNL     1      -5.992  21.601  70.905  1.00  0.00     0.000 HD 
HETATM   38  H2  UNL     1      -4.927  20.396  71.286  1.00  0.00     0.000 HD 
HETATM   39  C   UNL     1      -6.973  19.292  67.772  1.00  0.00    -0.253 A  
HETATM   40  C   UNL     1      -6.617  20.175  68.780  1.00  0.00    -0.339 A  
HETATM   41  C   UNL     1      -6.171  18.315  70.247  1.00  0.00     0.133 A  
HETATM   42  C   UNL     1      -6.299  19.697  70.053  1.00  0.00    -0.287 A  
ENDBRANCH  31  34
ENDBRANCH   5  31
ENDBRANCH   4   5
TORSDOF 12
ENDMDL
MODEL      305
REMARK 921   NORMALIZED FREE ENERGY PREDICTED BY IDOCK:   -2.62 KCAL/MOL
REMARK 922        TOTAL FREE ENERGY PREDICTED BY IDOCK:   -7.27 KCAL/MOL
REMARK 923 INTER-LIGAND FREE ENERGY PREDICTED BY IDOCK:   -7.02 KCAL/MOL
REMARK 924 INTRA-LIGAND FREE ENERGY PREDICTED BY IDOCK:   -0.25 KCAL/MOL
REMARK 927      BINDING AFFINITY PREDICTED BY RF-SCORE:    0.00 PKD
ROOT
HETATM    1  C   UNL     1      -5.973  12.163  67.085  1.00  0.00    -0.143 C  
HETATM    2  C   UNL     1      -5.541  11.213  68.190  1.00  0.00    -0.042 C  
HETATM    3  C   UNL     1      -5.196  11.908  69.509  1.00  0.00    -0.066 C  
HETATM    4  C   UNL     1      -6.233   9.872  68.456  1.00  0.00    -0.049 C  
ENDROOT
BRANCH   4   5
HETATM    5  N   UNL     1      -7.674   9.524  68.287  1.00  0.00    -0.085 N  
BRANCH   5   6
HETATM    6  C   UNL     1      -8.469  10.439  69.266  1.00  0.00    -0.154 C  
BRANCH   6   7
HETATM    7  C   UNL     1      -9.508   9.708  70.232  1.00  0.00    -0.248 C  
BRANCH   7   8
HETATM    8  C   UNL     1      -8.782   8.585  71.126  1.00  0.00    -0.174 C  
BRANCH   8   9
HETATM    9  N   UNL     1      -9.702   7.917  72.064  1.00  0.00    -0.175 N  
HETATM   10  C   UNL     1      -9.437   7.874  73.409  1.00  0.00    -0.275 C  
HETATM   11  H   UNL     1     -10.552   7.480  71.706  1.00  0.00     0.000 HD 
HETATM   12  O   UNL     1      -8.492   8.404  73.969  1.00  0.00    -0.268 OA 
BRANCH  10  13
HETATM   13  O   UNL     1     -10.405   7.160  74.045  1.00  0.00    -0.349 OA 
BRANCH  13  14
HETATM   14  C   UNL     1     -10.012   5.840  74.460  1.00  0.00    -0.278 C  
HETATM   15  C   UNL     1     -10.623   4.731  73.633  1.00  0.00    -0.321 C  
HETATM   16  O   UNL     1      -8.317   4.267  73.833  1.00  0.00    -0.095 OA 
HETATM   17  C   UNL     1      -9.595   3.631  73.730  1.00  0.00    -0.102 C  
HETATM   18  C   UNL     1      -8.521   5.634  74.219  1.00  0.00    -0.112 C  
ENDBRANCH  13  14
ENDBRANCH  10  13
ENDBRANCH   8   9
BRANCH   8  19
HETATM   19  C   UNL     1      -7.896   7.551  70.392  1.00  0.00    -0.097 C  
BRANCH  19  20
HETATM   20  C   UNL     1      -8.342   6.113  70.404  1.00  0.00    -0.125 A  
HETATM   21  C   UNL     1      -7.826   3.744  70.500  1.00  0.00    -0.050 A  
HETATM   22  C   UNL     1     -10.067   4.470  69.968  1.00  0.00    -0.204 A  
HETATM   23  C   UNL     1      -9.669   5.799  70.092  1.00  0.00    -0.219 A  
HETATM   24  C   UNL     1      -7.423   5.075  70.615  1.00  0.00    -0.069 A  
HETATM   25  C   UNL     1      -9.146   3.444  70.168  1.00  0.00    -0.203 A  
ENDBRANCH  19  20
ENDBRANCH   8  19
ENDBRANCH   7   8
BRANCH   7  26
HETATM   26  O   UNL     1     -10.739   9.295  69.530  1.00  0.00    -0.227 OA 
HETATM   27  O   UNL     1     -13.609  10.153  70.863  1.00  0.00    -0.274 OA 
HETATM   28  O   UNL     1     -12.169  11.102  69.328  1.00  0.00    -0.345 OA 
HETATM   29  O   UNL     1     -11.566  10.336  71.576  1.00  0.00    -0.273 OA 
HETATM   30  P   UNL     1     -12.253   9.748  70.233  1.00  0.00     0.215 P  
ENDBRANCH   7  26
ENDBRANCH   6   7
ENDBRANCH   5   6
BRANCH   5  31
HETATM   31  S   UNL     1      -8.533   9.347  66.821  1.00  0.00    -0.128 S  
HETATM   32  O   UNL     1      -9.540   8.318  66.978  1.00  0.00    -0.163 OA 
HETATM   33  O   UNL     1      -7.563   9.205  65.754  1.00  0.00    -0.089 OA 
BRANCH  31  34
HETATM   34  C   UNL     1      -9.422  10.823  66.487  1.00  0.00    -0.169 A  
HETATM   35  N   UNL     1     -11.559  14.382  65.985  1.00  0.00    -0.357 NA 
HETATM   36  C   UNL     1     -10.658  10.786  65.843  1.00  0.00    -0.216 A  
HETATM   37  H1  UNL     1     -11.171  15.268  66.309  1.00  0.00     0.000 HD 
HETATM   38  H2  UNL     1     -12.470  14.252  66.426  1.00  0.00     0.000 HD 
HETATM   39  C   UNL     1      -8.969  12.002  67.081  1.00  0.00    -0.185 A  
HETATM   40  C   UNL     1      -9.675  13.182  66.900  1.00  0.00    -0.243 A  
HETATM   41  C   UNL     1     -11.365  11.978  65.675  1.00  0.00    -0.381 A  
HETATM   42  C   UNL     1     -10.832  13.195  66.120  1.00  0.00    -0.279 A  
ENDBRANCH  31  34
ENDBRANCH   5  31
ENDBRANCH   4   5
TORSDOF 12
ENDMDL
MODEL      306
REMARK 921   NORMALIZED FREE ENERGY PREDICTED BY IDOCK:   -2.60 KCAL/MOL
REMARK 922        TOTAL FREE ENERGY PREDICTED BY IDOCK:   -7.22 KCAL/MOL
REMARK 923 INTER-LIGAND FREE ENERGY PREDICTED BY IDOCK:   -6.04 KCAL/MOL
REMARK 924 INTRA-LIGAND FREE ENERGY PREDICTED BY IDOCK:   -1.18 KCAL/MOL
REMARK 927      BINDING AFFINITY PREDICTED BY RF-SCORE:    0.00 PKD
ROOT
HETATM    1  C   UNL     1      -6.045  10.072  70.681  1.00  0.00    -0.101 C  
HETATM    2  C   UNL     1      -6.754   9.365  69.537  1.00  0.00    -0.048 C  
HETATM    3  C   UNL     1      -8.102   8.751  69.923  1.00  0.00    -0.109 C  
HETATM    4  C   UNL     1      -6.812   9.931  68.114  1.00  0.00    -0.064 C  
ENDROOT
BRANCH   4   5
HETATM    5  N   UNL     1      -6.871  11.360  67.687  1.00  0.00    -0.075 N  
BRANCH   5   6
HETATM    6  C   UNL     1      -7.887  11.428  66.508  1.00  0.00    -0.105 C  
BRANCH   6   7
HETATM    7  C   UNL     1      -8.535  10.042  66.052  1.00  0.00    -0.131 C  
BRANCH   7   8
HETATM    8  C   UNL     1      -9.704   9.586  67.059  1.00  0.00    -0.176 C  
BRANCH   8   9
HETATM    9  N   UNL     1     -10.643  10.677  67.376  1.00  0.00    -0.238 N  
HETATM   10  C   UNL     1     -11.287  10.731  68.586  1.00  0.00    -0.291 C  
HETATM   11  H   UNL     1     -10.817  11.405  66.683  1.00  0.00     0.000 HD 
HETATM   12  O   UNL     1     -11.124   9.960  69.517  1.00  0.00    -0.233 OA 
BRANCH  10  13
HETATM   13  O   UNL     1     -12.132  11.797  68.609  1.00  0.00    -0.406 OA 
BRANCH  13  14
HETATM   14  C   UNL     1     -11.570  13.028  68.121  1.00  0.00    -0.341 C  
HETATM   15  C   UNL     1     -12.274  13.582  66.903  1.00  0.00    -0.377 C  
HETATM   16  O   UNL     1     -12.005  15.365  68.428  1.00  0.00    -0.301 OA 
HETATM   17  C   UNL     1     -12.047  15.069  67.028  1.00  0.00     0.136 C  
HETATM   18  C   UNL     1     -11.774  14.142  69.143  1.00  0.00    -0.327 C  
ENDBRANCH  13  14
ENDBRANCH  10  13
ENDBRANCH   8   9
BRANCH   8  19
HETATM   19  C   UNL     1     -10.466   8.282  66.726  1.00  0.00    -0.313 C  
BRANCH  19  20
HETATM   20  C   UNL     1     -10.261   7.099  67.633  1.00  0.00    -0.253 A  
HETATM   21  C   UNL     1      -9.257   4.938  68.090  1.00  0.00    -0.151 A  
HETATM   22  C   UNL     1     -10.987   5.795  69.542  1.00  0.00    -0.374 A  
HETATM   23  C   UNL     1     -11.071   6.949  68.764  1.00  0.00    -0.163 A  
HETATM   24  C   UNL     1      -9.346   6.088  67.305  1.00  0.00    -0.115 A  
HETATM   25  C   UNL     1     -10.084   4.790  69.203  1.00  0.00    -0.196 A  
ENDBRANCH  19  20
ENDBRANCH   8  19
ENDBRANCH   7   8
BRANCH   7  26
HETATM   26  O   UNL     1      -7.520   9.024  65.720  1.00  0.00    -0.088 OA 
HETATM   27  O   UNL     1      -7.547   7.786  62.684  1.00  0.00    -0.104 OA 
HETATM   28  O   UNL     1      -6.497   9.564  63.716  1.00  0.00    -0.093 OA 
HETATM   29  O   UNL     1      -8.908   9.128  63.715  1.00  0.00    -0.181 OA 
HETATM   30  P   UNL     1      -7.535   8.371  64.118  1.00  0.00    -0.128 P  
ENDBRANCH   7  26
ENDBRANCH   6   7
ENDBRANCH   5   6
BRANCH   5  31
HETATM   31  S   UNL     1      -7.040  12.734  68.688  1.00  0.00    -0.094 S  
HETATM   32  O   UNL     1      -5.818  12.931  69.439  1.00  0.00    -0.083 OA 
HETATM   33  O   UNL     1      -8.285  12.601  69.418  1.00  0.00     0.630 OA 
BRANCH  31  34
HETATM   34  C   UNL     1      -7.207  14.165  67.685  1.00  0.00    -0.180 A  
HETATM   35  N   UNL     1      -7.511  17.735  65.529  1.00  0.00    -0.385 NA 
HETATM   36  C   UNL     1      -8.451  14.553  67.190  1.00  0.00    -0.234 A  
HETATM   37  H1  UNL     1      -6.683  18.303  65.350  1.00  0.00     0.000 HD 
HETATM   38  H2  UNL     1      -8.200  18.318  66.006  1.00  0.00     0.000 HD 
HETATM   39  C   UNL     1      -6.108  15.022  67.588  1.00  0.00    -0.110 A  
HETATM   40  C   UNL     1      -6.212  16.198  66.861  1.00  0.00     0.088 A  
HETATM   41  C   UNL     1      -8.545  15.744  66.467  1.00  0.00    -0.343 A  
HETATM   42  C   UNL     1      -7.408  16.524  66.220  1.00  0.00     0.014 A  
ENDBRANCH  31  34
ENDBRANCH   5  31
ENDBRANCH   4   5
TORSDOF 12
ENDMDL
MODEL      307
REMARK 921   NORMALIZED FREE ENERGY PREDICTED BY IDOCK:   -2.56 KCAL/MOL
REMARK 922        TOTAL FREE ENERGY PREDICTED BY IDOCK:   -7.15 KCAL/MOL
REMARK 923 INTER-LIGAND FREE ENERGY PREDICTED BY IDOCK:   -8.23 KCAL/MOL
REMARK 924 INTRA-LIGAND FREE ENERGY PREDICTED BY IDOCK:    1.08 KCAL/MOL
REMARK 927      BINDING AFFINITY PREDICTED BY RF-SCORE:    0.00 PKD
ROOT
HETATM    1  C   UNL     1     -11.767  13.963  69.498  1.00  0.00    -0.369 C  
HETATM    2  C   UNL     1     -11.809  13.080  68.262  1.00  0.00    -0.381 C  
HETATM    3  C   UNL     1     -11.902  13.854  66.945  1.00  0.00    -0.453 C  
HETATM    4  C   UNL     1     -10.924  11.840  68.093  1.00  0.00    -0.228 C  
ENDROOT
BRANCH   4   5
HETATM    5  N   UNL     1      -9.536  11.617  68.593  1.00  0.00    -0.170 N  
BRANCH   5   6
HETATM    6  C   UNL     1      -9.407  10.090  68.877  1.00  0.00    -0.172 C  
BRANCH   6   7
HETATM    7  C   UNL     1     -10.257   9.525  70.104  1.00  0.00    -0.246 C  
BRANCH   7   8
HETATM    8  C   UNL     1      -9.707   8.091  70.582  1.00  0.00    -0.173 C  
BRANCH   8   9
HETATM    9  N   UNL     1      -9.761   7.916  72.045  1.00  0.00    -0.175 N  
HETATM   10  C   UNL     1      -8.673   8.193  72.834  1.00  0.00    -0.224 C  
HETATM   11  H   UNL     1     -10.622   7.584  72.478  1.00  0.00     0.000 HD 
HETATM   12  O   UNL     1      -7.609   8.649  72.450  1.00  0.00    -0.296 OA 
BRANCH  10  13
HETATM   13  O   UNL     1      -8.962   7.901  74.131  1.00  0.00    -0.245 OA 
BRANCH  13  14
HETATM   14  C   UNL     1      -8.982   6.498  74.448  1.00  0.00    -0.168 C  
HETATM   15  C   UNL     1     -10.373   5.916  74.560  1.00  0.00    -0.238 C  
HETATM   16  O   UNL     1      -9.107   4.451  73.208  1.00  0.00    -0.114 OA 
HETATM   17  C   UNL     1     -10.169   4.473  74.168  1.00  0.00    -0.217 C  
HETATM   18  C   UNL     1      -8.389   5.690  73.299  1.00  0.00    -0.117 C  
ENDBRANCH  13  14
ENDBRANCH  10  13
ENDBRANCH   8   9
BRANCH   8  19
HETATM   19  C   UNL     1     -10.252   6.839  69.857  1.00  0.00    -0.211 C  
BRANCH  19  20
HETATM   20  C   UNL     1      -9.332   5.657  69.710  1.00  0.00    -0.176 A  
HETATM   21  C   UNL     1      -8.971   3.259  69.629  1.00  0.00    -0.175 A  
HETATM   22  C   UNL     1      -7.082   4.759  69.757  1.00  0.00    -0.054 A  
HETATM   23  C   UNL     1      -7.947   5.852  69.757  1.00  0.00    -0.101 A  
HETATM   24  C   UNL     1      -9.839   4.352  69.638  1.00  0.00    -0.272 A  
HETATM   25  C   UNL     1      -7.594   3.464  69.696  1.00  0.00    -0.044 A  
ENDBRANCH  19  20
ENDBRANCH   8  19
ENDBRANCH   7   8
BRANCH   7  26
HETATM   26  O   UNL     1     -11.712   9.629  69.881  1.00  0.00    -0.117 OA 
HETATM   27  O   UNL     1     -13.683   9.115  72.450  1.00  0.00    -0.464 OA 
HETATM   28  O   UNL     1     -12.661  10.962  71.516  1.00  0.00    -0.408 OA 
HETATM   29  O   UNL     1     -11.537   8.896  72.202  1.00  0.00    -0.363 OA 
HETATM   30  P   UNL     1     -12.752   9.359  71.237  1.00  0.00    -0.261 P  
ENDBRANCH   7  26
ENDBRANCH   6   7
ENDBRANCH   5   6
BRANCH   5  31
HETATM   31  S   UNL     1      -8.083  12.214  67.921  1.00  0.00    -0.165 S  
HETATM   32  O   UNL     1      -8.093  11.995  66.490  1.00  0.00    -0.084 OA 
HETATM   33  O   UNL     1      -6.983  11.674  68.694  1.00  0.00    -0.074 OA 
BRANCH  31  34
HETATM   34  C   UNL     1      -8.022  13.957  68.126  1.00  0.00    -0.148 A  
HETATM   35  N   UNL     1      -8.014  18.071  68.875  1.00  0.00    -0.230 NA 
HETATM   36  C   UNL     1      -8.693  14.806  67.248  1.00  0.00    -0.226 A  
HETATM   37  H1  UNL     1      -7.510  18.449  69.677  1.00  0.00     0.000 HD 
HETATM   38  H2  UNL     1      -8.988  18.367  68.942  1.00  0.00     0.000 HD 
HETATM   39  C   UNL     1      -7.477  14.452  69.312  1.00  0.00    -0.060 A  
HETATM   40  C   UNL     1      -7.466  15.818  69.549  1.00  0.00    -0.181 A  
HETATM   41  C   UNL     1      -8.684  16.180  67.501  1.00  0.00    -0.195 A  
HETATM   42  C   UNL     1      -7.991  16.699  68.602  1.00  0.00    -0.236 A  
ENDBRANCH  31  34
ENDBRANCH   5  31
ENDBRANCH   4   5
TORSDOF 12
ENDMDL
MODEL      308
REMARK 921   NORMALIZED FREE ENERGY PREDICTED BY IDOCK:   -2.48 KCAL/MOL
REMARK 922        TOTAL FREE ENERGY PREDICTED BY IDOCK:   -7.03 KCAL/MOL
REMARK 923 INTER-LIGAND FREE ENERGY PREDICTED BY IDOCK:   -8.53 KCAL/MOL
REMARK 924 INTRA-LIGAND FREE ENERGY PREDICTED BY IDOCK:    1.50 KCAL/MOL
REMARK 927      BINDING AFFINITY PREDICTED BY RF-SCORE:    0.00 PKD
ROOT
HETATM    1  C   UNL     1     -13.961  15.304  71.268  1.00  0.00    -0.548 C  
HETATM    2  C   UNL     1     -12.914  14.329  71.781  1.00  0.00    -0.430 C  
HETATM    3  C   UNL     1     -13.446  12.916  72.029  1.00  0.00    -0.568 C  
HETATM    4  C   UNL     1     -11.484  14.274  71.232  1.00  0.00     0.323 C  
ENDROOT
BRANCH   4   5
HETATM    5  N   UNL     1     -11.017  14.535  69.838  1.00  0.00    -0.166 N  
BRANCH   5   6
HETATM    6  C   UNL     1     -11.194  13.200  69.055  1.00  0.00    -0.258 C  
BRANCH   6   7
HETATM    7  C   UNL     1      -9.940  12.212  69.048  1.00  0.00     0.167 C  
BRANCH   7   8
HETATM    8  C   UNL     1      -9.465  11.884  67.547  1.00  0.00    -0.176 C  
BRANCH   8   9
HETATM    9  N   UNL     1     -10.007  10.610  67.042  1.00  0.00    -0.195 N  
HETATM   10  C   UNL     1      -9.183   9.642  66.526  1.00  0.00    -0.158 C  
HETATM   11  H   UNL     1     -11.013  10.445  67.076  1.00  0.00     0.000 HD 
HETATM   12  O   UNL     1      -7.965   9.690  66.481  1.00  0.00    -0.110 OA 
BRANCH  10  13
HETATM   13  O   UNL     1      -9.928   8.593  66.083  1.00  0.00    -0.260 OA 
BRANCH  13  14
HETATM   14  C   UNL     1      -9.707   7.354  66.782  1.00  0.00    -0.207 C  
HETATM   15  C   UNL     1     -10.949   6.505  66.930  1.00  0.00    -0.408 C  
HETATM   16  O   UNL     1      -9.219   5.090  66.167  1.00  0.00    -0.137 OA 
HETATM   17  C   UNL     1     -10.395   5.102  66.983  1.00  0.00    -0.217 C  
HETATM   18  C   UNL     1      -8.793   6.446  65.966  1.00  0.00    -0.150 C  
ENDBRANCH  13  14
ENDBRANCH  10  13
ENDBRANCH   8   9
BRANCH   8  19
HETATM   19  C   UNL     1      -9.614  13.004  66.490  1.00  0.00    -0.260 C  
BRANCH  19  20
HETATM   20  C   UNL     1     -10.552  12.761  65.339  1.00  0.00    -0.309 A  
HETATM   21  C   UNL     1     -12.802  12.614  64.443  1.00  0.00    -0.344 A  
HETATM   22  C   UNL     1     -10.926  11.867  63.118  1.00  0.00    -0.281 A  
HETATM   23  C   UNL     1     -10.055  12.222  64.147  1.00  0.00    -0.329 A  
HETATM   24  C   UNL     1     -11.932  12.962  65.478  1.00  0.00    -0.482 A  
HETATM   25  C   UNL     1     -12.298  12.059  63.268  1.00  0.00    -0.553 A  
ENDBRANCH  19  20
ENDBRANCH   8  19
ENDBRANCH   7   8
BRANCH   7  26
HETATM   26  O   UNL     1     -10.125  11.057  69.947  1.00  0.00     0.158 OA 
HETATM   27  O   UNL     1     -13.176   9.936  70.372  1.00  0.00    -0.073 OA 
HETATM   28  O   UNL     1     -11.449   9.466  68.915  1.00  0.00     0.164 OA 
HETATM   29  O   UNL     1     -12.403  11.682  69.338  1.00  0.00    -0.212 OA 
HETATM   30  P   UNL     1     -11.735  10.466  70.171  1.00  0.00    -0.312 P  
ENDBRANCH   7  26
ENDBRANCH   6   7
ENDBRANCH   5   6
BRANCH   5  31
HETATM   31  S   UNL     1     -11.423  15.861  68.840  1.00  0.00    -0.379 S  
HETATM   32  O   UNL     1     -12.407  16.683  69.514  1.00  0.00     0.533 OA 
HETATM   33  O   UNL     1     -11.742  15.343  67.524  1.00  0.00    -0.241 OA 
BRANCH  31  34
HETATM   34  C   UNL     1     -10.015  16.889  68.638  1.00  0.00    -0.279 A  
HETATM   35  N   UNL     1      -6.580  19.265  68.434  1.00  0.00    -0.247 NA 
HETATM   36  C   UNL     1     -10.152  18.260  68.429  1.00  0.00    -0.412 A  
HETATM   37  H1  UNL     1      -5.655  18.844  68.515  1.00  0.00     0.000 HD 
HETATM   38  H2  UNL     1      -6.668  19.984  69.154  1.00  0.00     0.000 HD 
HETATM   39  C   UNL     1      -8.763  16.337  68.917  1.00  0.00    -0.253 A  
HETATM   40  C   UNL     1      -7.627  17.127  68.836  1.00  0.00    -0.234 A  
HETATM   41  C   UNL     1      -9.001  19.048  68.358  1.00  0.00    -0.378 A  
HETATM   42  C   UNL     1      -7.730  18.469  68.468  1.00  0.00    -0.308 A  
ENDBRANCH  31  34
ENDBRANCH   5  31
ENDBRANCH   4   5
TORSDOF 12
ENDMDL
MODEL      309
REMARK 921   NORMALIZED FREE ENERGY PREDICTED BY IDOCK:   -2.48 KCAL/MOL
REMARK 922        TOTAL FREE ENERGY PREDICTED BY IDOCK:   -7.03 KCAL/MOL
REMARK 923 INTER-LIGAND FREE ENERGY PREDICTED BY IDOCK:   -7.13 KCAL/MOL
REMARK 924 INTRA-LIGAND FREE ENERGY PREDICTED BY IDOCK:    0.10 KCAL/MOL
REMARK 927      BINDING AFFINITY PREDICTED BY RF-SCORE:    0.00 PKD
ROOT
HETATM    1  C   UNL     1      -7.757  13.971  68.395  1.00  0.00    -0.138 C  
HETATM    2  C   UNL     1      -9.016  13.207  68.772  1.00  0.00     0.161 C  
HETATM    3  C   UNL     1     -10.309  14.003  68.582  1.00  0.00    -0.238 C  
HETATM    4  C   UNL     1      -9.237  11.734  68.412  1.00  0.00    -0.175 C  
ENDROOT
BRANCH   4   5
HETATM    5  N   UNL     1      -8.770  10.996  67.202  1.00  0.00    -0.133 N  
BRANCH   5   6
HETATM    6  C   UNL     1      -8.143   9.663  67.711  1.00  0.00    -0.113 C  
BRANCH   6   7
HETATM    7  C   UNL     1      -9.046   8.786  68.692  1.00  0.00    -0.141 C  
BRANCH   7   8
HETATM    8  C   UNL     1      -8.690   7.222  68.569  1.00  0.00    -0.123 C  
BRANCH   8   9
HETATM    9  N   UNL     1      -8.905   6.486  69.828  1.00  0.00    -0.142 N  
HETATM   10  C   UNL     1      -7.854   5.930  70.513  1.00  0.00    -0.101 C  
HETATM   11  H   UNL     1      -9.851   6.388  70.195  1.00  0.00     0.000 HD 
HETATM   12  O   UNL     1      -6.676   6.024  70.214  1.00  0.00    -0.046 OA 
BRANCH  10  13
HETATM   13  O   UNL     1      -8.320   5.265  71.605  1.00  0.00    -0.115 OA 
BRANCH  13  14
HETATM   14  C   UNL     1      -8.053   5.907  72.865  1.00  0.00    -0.114 C  
HETATM   15  C   UNL     1      -7.518   7.315  72.734  1.00  0.00    -0.082 C  
HETATM   16  O   UNL     1      -9.246   7.370  74.342  1.00  0.00    -0.204 OA 
HETATM   17  C   UNL     1      -7.995   7.979  74.002  1.00  0.00    -0.232 C  
HETATM   18  C   UNL     1      -9.355   6.130  73.628  1.00  0.00    -0.133 C  
ENDBRANCH  13  14
ENDBRANCH  10  13
ENDBRANCH   8   9
BRANCH   8  19
HETATM   19  C   UNL     1      -9.284   6.447  67.369  1.00  0.00    -0.117 C  
BRANCH  19  20
HETATM   20  C   UNL     1      -8.742   5.071  67.086  1.00  0.00    -0.103 A  
HETATM   21  C   UNL     1      -9.054   2.670  66.933  1.00  0.00    -0.161 A  
HETATM   22  C   UNL     1      -6.831   3.607  66.814  1.00  0.00    -0.054 A  
HETATM   23  C   UNL     1      -7.362   4.889  66.944  1.00  0.00    -0.085 A  
HETATM   24  C   UNL     1      -9.587   3.953  67.072  1.00  0.00    -0.227 A  
HETATM   25  C   UNL     1      -7.676   2.499  66.812  1.00  0.00    -0.071 A  
ENDBRANCH  19  20
ENDBRANCH   8  19
ENDBRANCH   7   8
BRANCH   7  26
HETATM   26  O   UNL     1     -10.475   9.143  68.616  1.00  0.00    -0.212 OA 
HETATM   27  O   UNL     1     -12.174   9.215  71.420  1.00  0.00    -0.304 OA 
HETATM   28  O   UNL     1     -10.965  10.757  70.199  1.00  0.00    -0.263 OA 
HETATM   29  O   UNL     1     -10.147   8.579  70.968  1.00  0.00    -0.188 OA 
HETATM   30  P   UNL     1     -11.371   9.181  70.096  1.00  0.00     0.008 P  
ENDBRANCH   7  26
ENDBRANCH   6   7
ENDBRANCH   5   6
BRANCH   5  31
HETATM   31  S   UNL     1      -9.637  10.723  65.755  1.00  0.00    -0.222 S  
HETATM   32  O   UNL     1     -10.715   9.791  66.013  1.00  0.00     0.012 OA 
HETATM   33  O   UNL     1      -8.677  10.398  64.719  1.00  0.00    -0.173 OA 
BRANCH  31  34
HETATM   34  C   UNL     1     -10.417  12.213  65.256  1.00  0.00    -0.276 A  
HETATM   35  N   UNL     1     -12.285  15.656  63.790  1.00  0.00    -1.018 NA 
HETATM   36  C   UNL     1      -9.760  13.438  65.363  1.00  0.00    -0.032 A  
HETATM   37  H1  UNL     1     -13.218  15.602  63.380  1.00  0.00     0.000 HD 
HETATM   38  H2  UNL     1     -11.657  16.069  63.101  1.00  0.00     0.000 HD 
HETATM   39  C   UNL     1     -11.615  12.112  64.545  1.00  0.00    -0.403 A  
HETATM   40  C   UNL     1     -12.236  13.258  64.073  1.00  0.00    -0.475 A  
HETATM   41  C   UNL     1     -10.391  14.585  64.875  1.00  0.00    -0.401 A  
HETATM   42  C   UNL     1     -11.672  14.512  64.312  1.00  0.00    -0.295 A  
ENDBRANCH  31  34
ENDBRANCH   5  31
ENDBRANCH   4   5
TORSDOF 12
ENDMDL
MODEL      310
REMARK 921   NORMALIZED FREE ENERGY PREDICTED BY IDOCK:   -2.44 KCAL/MOL
REMARK 922        TOTAL FREE ENERGY PREDICTED BY IDOCK:   -6.96 KCAL/MOL
REMARK 923 INTER-LIGAND FREE ENERGY PREDICTED BY IDOCK:   -6.53 KCAL/MOL
REMARK 924 INTRA-LIGAND FREE ENERGY PREDICTED BY IDOCK:   -0.43 KCAL/MOL
REMARK 927      BINDING AFFINITY PREDICTED BY RF-SCORE:    0.00 PKD
ROOT
HETATM    1  C   UNL     1     -12.018  12.744  67.461  1.00  0.00    -0.342 C  
HETATM    2  C   UNL     1     -11.576  12.211  68.815  1.00  0.00    -0.380 C  
HETATM    3  C   UNL     1     -12.432  11.057  69.340  1.00  0.00    -0.075 C  
HETATM    4  C   UNL     1     -10.104  12.000  69.187  1.00  0.00     0.209 C  
ENDROOT
BRANCH   4   5
HETATM    5  N   UNL     1      -8.974  11.592  68.303  1.00  0.00    -0.181 N  
BRANCH   5   6
HETATM    6  C   UNL     1      -9.357  10.205  67.706  1.00  0.00    -0.141 C  
BRANCH   6   7
HETATM    7  C   UNL     1      -8.293   9.032  67.904  1.00  0.00    -0.117 C  
BRANCH   7   8
HETATM    8  C   UNL     1      -7.667   9.058  69.386  1.00  0.00    -0.083 C  
BRANCH   8   9
HETATM    9  N   UNL     1      -8.683   8.880  70.439  1.00  0.00    -0.162 N  
HETATM   10  C   UNL     1      -9.779   8.079  70.240  1.00  0.00    -0.175 C  
HETATM   11  H   UNL     1      -8.569   9.361  71.331  1.00  0.00     0.000 HD 
HETATM   12  O   UNL     1     -10.003   7.407  69.247  1.00  0.00    -0.166 OA 
BRANCH  10  13
HETATM   13  O   UNL     1     -10.585   8.125  71.335  1.00  0.00    -0.212 OA 
BRANCH  13  14
HETATM   14  C   UNL     1     -11.978   8.353  71.054  1.00  0.00    -0.231 C  
HETATM   15  C   UNL     1     -12.907   7.365  71.723  1.00  0.00    -0.365 C  
HETATM   16  O   UNL     1     -13.782   9.523  72.111  1.00  0.00    -0.417 OA 
HETATM   17  C   UNL     1     -14.175   8.162  71.905  1.00  0.00    -0.445 C  
HETATM   18  C   UNL     1     -12.428   9.677  71.661  1.00  0.00    -0.407 C  
ENDBRANCH  13  14
ENDBRANCH  10  13
ENDBRANCH   8   9
BRANCH   8  19
HETATM   19  C   UNL     1      -6.432   8.166  69.655  1.00  0.00    -0.037 C  
BRANCH  19  20
HETATM   20  C   UNL     1      -6.660   6.690  69.841  1.00  0.00    -0.048 A  
HETATM   21  C   UNL     1      -6.720   4.726  71.264  1.00  0.00    -0.035 A  
HETATM   22  C   UNL     1      -6.873   4.482  68.866  1.00  0.00    -0.050 A  
HETATM   23  C   UNL     1      -6.794   5.866  68.718  1.00  0.00    -0.066 A  
HETATM   24  C   UNL     1      -6.631   6.111  71.118  1.00  0.00    -0.050 A  
HETATM   25  C   UNL     1      -6.832   3.913  70.138  1.00  0.00    -0.034 A  
ENDBRANCH  19  20
ENDBRANCH   8  19
ENDBRANCH   7   8
BRANCH   7  26
HETATM   26  O   UNL     1      -7.333   8.943  66.787  1.00  0.00    -0.081 OA 
HETATM   27  O   UNL     1      -7.973   6.784  64.404  1.00  0.00    -0.119 OA 
HETATM   28  O   UNL     1      -8.469   9.008  64.772  1.00  0.00    -0.164 OA 
HETATM   29  O   UNL     1      -8.933   7.162  66.314  1.00  0.00    -0.153 OA 
HETATM   30  P   UNL     1      -7.671   7.804  65.529  1.00  0.00    -0.114 P  
ENDBRANCH   7  26
ENDBRANCH   6   7
ENDBRANCH   5   6
BRANCH   5  31
HETATM   31  S   UNL     1      -8.187  12.543  67.121  1.00  0.00    -0.137 S  
HETATM   32  O   UNL     1      -8.825  12.334  65.837  1.00  0.00     0.040 OA 
HETATM   33  O   UNL     1      -6.763  12.298  67.231  1.00  0.00    -0.141 OA 
BRANCH  31  34
HETATM   34  C   UNL     1      -8.426  14.242  67.489  1.00  0.00    -0.187 A  
HETATM   35  N   UNL     1      -9.122  18.207  68.623  1.00  0.00    -0.301 NA 
HETATM   36  C   UNL     1      -9.240  15.043  66.689  1.00  0.00    -0.302 A  
HETATM   37  H1  UNL     1      -8.685  18.589  69.462  1.00  0.00     0.000 HD 
HETATM   38  H2  UNL     1     -10.132  18.323  68.709  1.00  0.00     0.000 HD 
HETATM   39  C   UNL     1      -7.966  14.710  68.722  1.00  0.00    -0.151 A  
HETATM   40  C   UNL     1      -8.189  16.029  69.087  1.00  0.00    -0.241 A  
HETATM   41  C   UNL     1      -9.465  16.367  67.070  1.00  0.00    -0.240 A  
HETATM   42  C   UNL     1      -8.864  16.892  68.222  1.00  0.00    -0.228 A  
ENDBRANCH  31  34
ENDBRANCH   5  31
ENDBRANCH   4   5
TORSDOF 12
ENDMDL
MODEL      311
REMARK 921   NORMALIZED FREE ENERGY PREDICTED BY IDOCK:   -2.37 KCAL/MOL
REMARK 922        TOTAL FREE ENERGY PREDICTED BY IDOCK:   -6.83 KCAL/MOL
REMARK 923 INTER-LIGAND FREE ENERGY PREDICTED BY IDOCK:   -5.19 KCAL/MOL
REMARK 924 INTRA-LIGAND FREE ENERGY PREDICTED BY IDOCK:   -1.65 KCAL/MOL
REMARK 927      BINDING AFFINITY PREDICTED BY RF-SCORE:    0.00 PKD
ROOT
HETATM    1  C   UNL     1      -7.292   5.623  67.365  1.00  0.00    -0.077 C  
HETATM    2  C   UNL     1      -8.610   6.051  67.990  1.00  0.00    -0.114 C  
HETATM    3  C   UNL     1      -9.378   4.913  68.666  1.00  0.00    -0.182 C  
HETATM    4  C   UNL     1      -8.773   7.352  68.783  1.00  0.00    -0.128 C  
ENDROOT
BRANCH   4   5
HETATM    5  N   UNL     1      -7.773   8.038  69.653  1.00  0.00    -0.100 N  
BRANCH   5   6
HETATM    6  C   UNL     1      -7.841   9.553  69.297  1.00  0.00    -0.088 C  
BRANCH   6   7
HETATM    7  C   UNL     1      -9.253  10.096  68.785  1.00  0.00    -0.164 C  
BRANCH   7   8
HETATM    8  C   UNL     1      -9.124  10.769  67.330  1.00  0.00    -0.143 C  
BRANCH   8   9
HETATM    9  N   UNL     1      -7.834  11.454  67.128  1.00  0.00    -0.148 N  
HETATM   10  C   UNL     1      -7.643  12.746  67.546  1.00  0.00    -0.162 C  
HETATM   11  H   UNL     1      -7.070  10.957  66.671  1.00  0.00     0.000 HD 
HETATM   12  O   UNL     1      -8.451  13.428  68.154  1.00  0.00    -0.159 OA 
BRANCH  10  13
HETATM   13  O   UNL     1      -6.395  13.161  67.198  1.00  0.00    -0.257 OA 
BRANCH  13  14
HETATM   14  C   UNL     1      -5.755  14.028  68.152  1.00  0.00    -0.128 C  
HETATM   15  C   UNL     1      -6.412  15.383  68.284  1.00  0.00    -0.120 C  
HETATM   16  O   UNL     1      -6.054  14.562  70.469  1.00  0.00    -0.170 OA 
HETATM   17  C   UNL     1      -6.099  15.773  69.708  1.00  0.00    -0.165 C  
HETATM   18  C   UNL     1      -5.904  13.461  69.560  1.00  0.00    -0.102 C  
ENDBRANCH  13  14
ENDBRANCH  10  13
ENDBRANCH   8   9
BRANCH   8  19
HETATM   19  C   UNL     1      -9.482   9.896  66.105  1.00  0.00    -0.254 C  
BRANCH  19  20
HETATM   20  C   UNL     1      -8.364   9.156  65.421  1.00  0.00    -0.147 A  
HETATM   21  C   UNL     1      -6.027   8.521  65.283  1.00  0.00    -0.048 A  
HETATM   22  C   UNL     1      -7.518   8.036  63.446  1.00  0.00    -0.122 A  
HETATM   23  C   UNL     1      -8.576   8.608  64.150  1.00  0.00    -0.033 A  
HETATM   24  C   UNL     1      -7.083   9.102  65.986  1.00  0.00    -0.090 A  
HETATM   25  C   UNL     1      -6.244   7.996  64.010  1.00  0.00    -0.062 A  
ENDBRANCH  19  20
ENDBRANCH   8  19
ENDBRANCH   7   8
BRANCH   7  26
HETATM   26  O   UNL     1      -9.964  10.881  69.812  1.00  0.00     0.010 OA 
HETATM   27  O   UNL     1     -13.089  10.101  70.426  1.00  0.00    -0.225 OA 
HETATM   28  O   UNL     1     -11.044   9.455  71.279  1.00  0.00    -0.319 OA 
HETATM   29  O   UNL     1     -11.690   9.407  68.916  1.00  0.00     0.433 OA 
HETATM   30  P   UNL     1     -11.613  10.469  70.136  1.00  0.00    -0.361 P  
ENDBRANCH   7  26
ENDBRANCH   6   7
ENDBRANCH   5   6
BRANCH   5  31
HETATM   31  S   UNL     1      -7.553   7.839  71.336  1.00  0.00    -0.085 S  
HETATM   32  O   UNL     1      -8.132   8.971  72.030  1.00  0.00    -0.360 OA 
HETATM   33  O   UNL     1      -6.156   7.529  71.567  1.00  0.00    -0.036 OA 
BRANCH  31  34
HETATM   34  C   UNL     1      -8.465   6.442  71.880  1.00  0.00    -0.123 A  
HETATM   35  N   UNL     1     -10.551   2.973  72.929  1.00  0.00    -0.147 NA 
HETATM   36  C   UNL     1      -9.850   6.504  72.033  1.00  0.00    -0.169 A  
HETATM   37  H1  UNL     1     -10.051   2.099  73.091  1.00  0.00     0.000 HD 
HETATM   38  H2  UNL     1     -11.250   2.810  72.203  1.00  0.00     0.000 HD 
HETATM   39  C   UNL     1      -7.802   5.215  71.935  1.00  0.00    -0.110 A  
HETATM   40  C   UNL     1      -8.496   4.070  72.295  1.00  0.00    -0.105 A  
HETATM   41  C   UNL     1     -10.540   5.343  72.388  1.00  0.00    -0.276 A  
HETATM   42  C   UNL     1      -9.854   4.143  72.611  1.00  0.00    -0.150 A  
ENDBRANCH  31  34
ENDBRANCH   5  31
ENDBRANCH   4   5
TORSDOF 12
ENDMDL
MODEL      312
REMARK 921   NORMALIZED FREE ENERGY PREDICTED BY IDOCK:   -2.36 KCAL/MOL
REMARK 922        TOTAL FREE ENERGY PREDICTED BY IDOCK:   -6.83 KCAL/MOL
REMARK 923 INTER-LIGAND FREE ENERGY PREDICTED BY IDOCK:   -6.00 KCAL/MOL
REMARK 924 INTRA-LIGAND FREE ENERGY PREDICTED BY IDOCK:   -0.83 KCAL/MOL
REMARK 927      BINDING AFFINITY PREDICTED BY RF-SCORE:    0.00 PKD
ROOT
HETATM    1  C   UNL     1      -7.589  12.630  68.802  1.00  0.00    -0.022 C  
HETATM    2  C   UNL     1      -9.020  13.130  68.915  1.00  0.00     0.300 C  
HETATM    3  C   UNL     1      -9.151  14.655  68.889  1.00  0.00    -0.148 C  
HETATM    4  C   UNL     1     -10.193  12.480  68.172  1.00  0.00    -0.231 C  
ENDROOT
BRANCH   4   5
HETATM    5  N   UNL     1     -10.191  11.827  66.831  1.00  0.00    -0.206 N  
BRANCH   5   6
HETATM    6  C   UNL     1     -10.402  10.303  67.079  1.00  0.00    -0.243 C  
BRANCH   6   7
HETATM    7  C   UNL     1      -9.285   9.329  66.485  1.00  0.00    -0.161 C  
BRANCH   7   8
HETATM    8  C   UNL     1      -9.780   7.799  66.499  1.00  0.00    -0.195 C  
BRANCH   8   9
HETATM    9  N   UNL     1      -8.874   6.898  65.764  1.00  0.00    -0.309 N  
HETATM   10  C   UNL     1      -9.110   5.548  65.705  1.00  0.00    -0.122 C  
HETATM   11  H   UNL     1      -8.058   7.285  65.291  1.00  0.00     0.000 HD 
HETATM   12  O   UNL     1     -10.075   4.970  66.175  1.00  0.00    -0.197 OA 
BRANCH  10  13
HETATM   13  O   UNL     1      -8.108   4.937  65.017  1.00  0.00    -0.099 OA 
BRANCH  13  14
HETATM   14  C   UNL     1      -7.698   3.663  65.546  1.00  0.00    -0.082 C  
HETATM   15  C   UNL     1      -8.080   2.488  64.675  1.00  0.00    -0.085 C  
HETATM   16  O   UNL     1      -5.813   2.208  65.274  1.00  0.00    -0.016 OA 
HETATM   17  C   UNL     1      -7.007   1.473  64.986  1.00  0.00    -0.046 C  
HETATM   18  C   UNL     1      -6.176   3.566  65.565  1.00  0.00    -0.031 C  
ENDBRANCH  13  14
ENDBRANCH  10  13
ENDBRANCH   8   9
BRANCH   8  19
HETATM   19  C   UNL     1     -10.176   7.189  67.865  1.00  0.00    -0.231 C  
BRANCH  19  20
HETATM   20  C   UNL     1      -9.298   7.492  69.049  1.00  0.00    -0.146 A  
HETATM   21  C   UNL     1      -7.311   7.054  70.370  1.00  0.00    -0.083 A  
HETATM   22  C   UNL     1      -9.030   8.520  71.226  1.00  0.00    -0.244 A  
HETATM   23  C   UNL     1      -9.772   8.333  70.062  1.00  0.00    -0.176 A  
HETATM   24  C   UNL     1      -8.057   6.859  69.207  1.00  0.00    -0.120 A  
HETATM   25  C   UNL     1      -7.802   7.878  71.382  1.00  0.00    -0.092 A  
ENDBRANCH  19  20
ENDBRANCH   8  19
ENDBRANCH   7   8
BRANCH   7  26
HETATM   26  O   UNL     1      -7.947   9.593  67.048  1.00  0.00    -0.108 OA 
HETATM   27  O   UNL     1      -5.430   9.782  64.956  1.00  0.00    -0.052 OA 
HETATM   28  O   UNL     1      -6.920  11.293  65.863  1.00  0.00     0.038 OA 
HETATM   29  O   UNL     1      -7.512   9.235  64.673  1.00  0.00    -0.097 OA 
HETATM   30  P   UNL     1      -6.619   9.693  65.944  1.00  0.00    -0.088 P  
ENDBRANCH   7  26
ENDBRANCH   6   7
ENDBRANCH   5   6
BRANCH   5  31
HETATM   31  S   UNL     1     -11.050  12.319  65.437  1.00  0.00    -0.322 S  
HETATM   32  O   UNL     1     -12.439  11.932  65.570  1.00  0.00    -0.264 OA 
HETATM   33  O   UNL     1     -10.313  11.858  64.277  1.00  0.00    -0.279 OA 
BRANCH  31  34
HETATM   34  C   UNL     1     -11.060  14.072  65.351  1.00  0.00    -0.318 A  
HETATM   35  N   UNL     1     -11.036  18.224  64.852  1.00  0.00    -0.311 NA 
HETATM   36  C   UNL     1     -10.097  14.829  66.017  1.00  0.00    -0.327 A  
HETATM   37  H1  UNL     1     -11.739  18.678  64.268  1.00  0.00     0.000 HD 
HETATM   38  H2  UNL     1     -10.114  18.480  64.498  1.00  0.00     0.000 HD 
HETATM   39  C   UNL     1     -11.912  14.671  64.421  1.00  0.00    -0.454 A  
HETATM   40  C   UNL     1     -11.908  16.049  64.269  1.00  0.00     0.005 A  
HETATM   41  C   UNL     1     -10.097  16.216  65.850  1.00  0.00    -0.379 A  
HETATM   42  C   UNL     1     -11.062  16.839  65.048  1.00  0.00    -0.057 A  
ENDBRANCH  31  34
ENDBRANCH   5  31
ENDBRANCH   4   5
TORSDOF 12
ENDMDL
MODEL      313
REMARK 921   NORMALIZED FREE ENERGY PREDICTED BY IDOCK:   -2.35 KCAL/MOL
REMARK 922        TOTAL FREE ENERGY PREDICTED BY IDOCK:   -6.80 KCAL/MOL
REMARK 923 INTER-LIGAND FREE ENERGY PREDICTED BY IDOCK:   -7.62 KCAL/MOL
REMARK 924 INTRA-LIGAND FREE ENERGY PREDICTED BY IDOCK:    0.82 KCAL/MOL
REMARK 927      BINDING AFFINITY PREDICTED BY RF-SCORE:    0.00 PKD
ROOT
HETATM    1  C   UNL     1      -9.554  13.566  67.999  1.00  0.00    -0.221 C  
HETATM    2  C   UNL     1      -8.199  12.879  67.934  1.00  0.00    -0.165 C  
HETATM    3  C   UNL     1      -7.320  13.117  69.163  1.00  0.00     0.131 C  
HETATM    4  C   UNL     1      -8.012  11.451  67.409  1.00  0.00    -0.139 C  
ENDROOT
BRANCH   4   5
HETATM    5  N   UNL     1      -8.947  10.294  67.520  1.00  0.00    -0.134 N  
BRANCH   5   6
HETATM    6  C   UNL     1      -9.647  10.421  68.906  1.00  0.00    -0.192 C  
BRANCH   6   7
HETATM    7  C   UNL     1      -9.776   9.077  69.759  1.00  0.00    -0.175 C  
BRANCH   7   8
HETATM    8  C   UNL     1      -8.649   8.009  69.336  1.00  0.00    -0.136 C  
BRANCH   8   9
HETATM    9  N   UNL     1      -9.172   6.635  69.238  1.00  0.00    -0.141 N  
HETATM   10  C   UNL     1      -8.754   5.653  70.100  1.00  0.00    -0.137 C  
HETATM   11  H   UNL     1      -9.857   6.410  68.517  1.00  0.00     0.000 HD 
HETATM   12  O   UNL     1      -7.989   5.803  71.038  1.00  0.00    -0.110 OA 
BRANCH  10  13
HETATM   13  O   UNL     1      -9.341   4.471  69.769  1.00  0.00    -0.122 OA 
BRANCH  13  14
HETATM   14  C   UNL     1      -8.668   3.727  68.738  1.00  0.00    -0.100 C  
HETATM   15  C   UNL     1      -8.644   2.234  68.977  1.00  0.00    -0.113 C  
HETATM   16  O   UNL     1      -9.315   2.575  66.738  1.00  0.00    -0.103 OA 
HETATM   17  C   UNL     1      -8.593   1.668  67.578  1.00  0.00    -0.088 C  
HETATM   18  C   UNL     1      -9.438   3.829  67.426  1.00  0.00    -0.196 C  
ENDBRANCH  13  14
ENDBRANCH  10  13
ENDBRANCH   8   9
BRANCH   8  19
HETATM   19  C   UNL     1      -7.764   8.351  68.115  1.00  0.00    -0.103 C  
BRANCH  19  20
HETATM   20  C   UNL     1      -6.943   7.243  67.512  1.00  0.00    -0.075 A  
HETATM   21  C   UNL     1      -6.628   5.524  65.830  1.00  0.00    -0.041 A  
HETATM   22  C   UNL     1      -5.151   5.628  67.738  1.00  0.00    -0.004 A  
HETATM   23  C   UNL     1      -5.842   6.739  68.215  1.00  0.00    -0.017 A  
HETATM   24  C   UNL     1      -7.327   6.631  66.311  1.00  0.00    -0.073 A  
HETATM   25  C   UNL     1      -5.545   5.019  66.548  1.00  0.00    -0.017 A  
ENDBRANCH  19  20
ENDBRANCH   8  19
ENDBRANCH   7   8
BRANCH   7  26
HETATM   26  O   UNL     1     -11.163   8.578  69.822  1.00  0.00    -0.129 OA 
HETATM   27  O   UNL     1     -12.653   8.602  72.743  1.00  0.00    -0.319 OA 
HETATM   28  O   UNL     1     -12.484  10.083  70.980  1.00  0.00    -0.316 OA 
HETATM   29  O   UNL     1     -10.607   9.033  72.155  1.00  0.00    -0.324 OA 
HETATM   30  P   UNL     1     -11.949   8.592  71.363  1.00  0.00    -0.309 P  
ENDBRANCH   7  26
ENDBRANCH   6   7
ENDBRANCH   5   6
BRANCH   5  31
HETATM   31  S   UNL     1     -10.063   9.747  66.347  1.00  0.00    -0.225 S  
HETATM   32  O   UNL     1     -11.204   9.155  67.013  1.00  0.00     0.219 OA 
HETATM   33  O   UNL     1      -9.335   8.946  65.383  1.00  0.00    -0.193 OA 
BRANCH  31  34
HETATM   34  C   UNL     1     -10.699  11.123  65.464  1.00  0.00    -0.185 A  
HETATM   35  N   UNL     1     -12.487  14.330  63.461  1.00  0.00    -1.102 NA 
HETATM   36  C   UNL     1     -10.608  11.190  64.075  1.00  0.00    -0.436 A  
HETATM   37  H1  UNL     1     -12.964  15.064  63.984  1.00  0.00     0.000 HD 
HETATM   38  H2  UNL     1     -13.147  13.936  62.790  1.00  0.00     0.000 HD 
HETATM   39  C   UNL     1     -11.494  12.033  66.165  1.00  0.00    -0.401 A  
HETATM   40  C   UNL     1     -12.074  13.101  65.498  1.00  0.00    -0.490 A  
HETATM   41  C   UNL     1     -11.203  12.265  63.412  1.00  0.00    -0.497 A  
HETATM   42  C   UNL     1     -11.859  13.274  64.130  1.00  0.00    -0.443 A  
ENDBRANCH  31  34
ENDBRANCH   5  31
ENDBRANCH   4   5
TORSDOF 12
ENDMDL
MODEL      314
REMARK 921   NORMALIZED FREE ENERGY PREDICTED BY IDOCK:   -2.25 KCAL/MOL
REMARK 922        TOTAL FREE ENERGY PREDICTED BY IDOCK:   -6.64 KCAL/MOL
REMARK 923 INTER-LIGAND FREE ENERGY PREDICTED BY IDOCK:   -8.52 KCAL/MOL
REMARK 924 INTRA-LIGAND FREE ENERGY PREDICTED BY IDOCK:    1.88 KCAL/MOL
REMARK 927      BINDING AFFINITY PREDICTED BY RF-SCORE:    0.00 PKD
ROOT
HETATM    1  C   UNL     1      -7.647   3.957  67.674  1.00  0.00    -0.068 C  
HETATM    2  C   UNL     1      -6.746   4.956  68.382  1.00  0.00    -0.050 C  
HETATM    3  C   UNL     1      -5.736   5.644  67.462  1.00  0.00    -0.013 C  
HETATM    4  C   UNL     1      -7.258   5.935  69.443  1.00  0.00    -0.067 C  
ENDROOT
BRANCH   4   5
HETATM    5  N   UNL     1      -8.592   6.601  69.523  1.00  0.00    -0.131 N  
BRANCH   5   6
HETATM    6  C   UNL     1      -8.630   7.654  68.375  1.00  0.00    -0.124 C  
BRANCH   6   7
HETATM    7  C   UNL     1      -9.586   8.913  68.601  1.00  0.00    -0.153 C  
BRANCH   7   8
HETATM    8  C   UNL     1      -9.886   9.672  67.216  1.00  0.00    -0.175 C  
BRANCH   8   9
HETATM    9  N   UNL     1     -10.801  10.817  67.378  1.00  0.00    -0.272 N  
HETATM   10  C   UNL     1     -10.407  12.091  67.059  1.00  0.00    -0.211 C  
HETATM   11  H   UNL     1     -11.744  10.657  67.733  1.00  0.00     0.000 HD 
HETATM   12  O   UNL     1      -9.334  12.407  66.574  1.00  0.00    -0.229 OA 
BRANCH  10  13
HETATM   13  O   UNL     1     -11.409  12.967  67.347  1.00  0.00    -0.276 OA 
BRANCH  13  14
HETATM   14  C   UNL     1     -12.111  13.483  66.202  1.00  0.00    -0.436 C  
HETATM   15  C   UNL     1     -11.454  14.692  65.576  1.00  0.00    -0.341 C  
HETATM   16  O   UNL     1     -11.982  13.197  63.826  1.00  0.00    -0.455 OA 
HETATM   17  C   UNL     1     -11.870  14.592  64.128  1.00  0.00    -0.267 C  
HETATM   18  C   UNL     1     -12.073  12.472  65.061  1.00  0.00    -0.446 C  
ENDBRANCH  13  14
ENDBRANCH  10  13
ENDBRANCH   8   9
BRANCH   8  19
HETATM   19  C   UNL     1      -8.675  10.056  66.334  1.00  0.00    -0.140 C  
BRANCH  19  20
HETATM   20  C   UNL     1      -8.564   9.413  64.978  1.00  0.00    -0.193 A  
HETATM   21  C   UNL     1      -7.717   7.653  63.538  1.00  0.00    -0.130 A  
HETATM   22  C   UNL     1      -8.793   9.588  62.572  1.00  0.00    -0.252 A  
HETATM   23  C   UNL     1      -9.007  10.108  63.847  1.00  0.00    -0.270 A  
HETATM   24  C   UNL     1      -7.923   8.177  64.815  1.00  0.00    -0.147 A  
HETATM   25  C   UNL     1      -8.145   8.364  62.418  1.00  0.00    -0.175 A  
ENDBRANCH  19  20
ENDBRANCH   8  19
ENDBRANCH   7   8
BRANCH   7  26
HETATM   26  O   UNL     1      -9.154   9.755  69.733  1.00  0.00    -0.197 OA 
HETATM   27  O   UNL     1      -5.983  10.575  69.891  1.00  0.00    -0.049 OA 
HETATM   28  O   UNL     1      -7.871  11.516  68.953  1.00  0.00    -0.131 OA 
HETATM   29  O   UNL     1      -7.069   9.231  68.576  1.00  0.00    -0.070 OA 
HETATM   30  P   UNL     1      -7.481  10.188  69.816  1.00  0.00    -0.149 P  
ENDBRANCH   7  26
ENDBRANCH   6   7
ENDBRANCH   5   6
BRANCH   5  31
HETATM   31  S   UNL     1     -10.118   5.850  69.681  1.00  0.00    -0.221 S  
HETATM   32  O   UNL     1      -9.974   4.635  70.456  1.00  0.00    -0.215 OA 
HETATM   33  O   UNL     1     -10.707   5.760  68.360  1.00  0.00    -0.234 OA 
BRANCH  31  34
HETATM   34  C   UNL     1     -11.178   6.882  70.625  1.00  0.00    -0.301 A  
HETATM   35  N   UNL     1     -13.659   9.160  73.104  1.00  0.00    -0.926 NA 
HETATM   36  C   UNL     1     -12.519   7.041  70.279  1.00  0.00     0.151 A  
HETATM   37  H1  UNL     1     -13.283   9.610  73.938  1.00  0.00     0.000 HD 
HETATM   38  H2  UNL     1     -14.435   8.560  73.388  1.00  0.00     0.000 HD 
HETATM   39  C   UNL     1     -10.702   7.355  71.850  1.00  0.00    -0.247 A  
HETATM   40  C   UNL     1     -11.526   8.120  72.662  1.00  0.00    -0.454 A  
HETATM   41  C   UNL     1     -13.342   7.806  71.109  1.00  0.00    -0.141 A  
HETATM   42  C   UNL     1     -12.825   8.426  72.254  1.00  0.00    -0.317 A  
ENDBRANCH  31  34
ENDBRANCH   5  31
ENDBRANCH   4   5
TORSDOF 12
ENDMDL
MODEL      315
REMARK 921   NORMALIZED FREE ENERGY PREDICTED BY IDOCK:   -2.24 KCAL/MOL
REMARK 922        TOTAL FREE ENERGY PREDICTED BY IDOCK:   -6.62 KCAL/MOL
REMARK 923 INTER-LIGAND FREE ENERGY PREDICTED BY IDOCK:   -6.61 KCAL/MOL
REMARK 924 INTRA-LIGAND FREE ENERGY PREDICTED BY IDOCK:   -0.00 KCAL/MOL
REMARK 927      BINDING AFFINITY PREDICTED BY RF-SCORE:    0.00 PKD
ROOT
HETATM    1  C   UNL     1     -10.948  13.051  68.430  1.00  0.00    -0.288 C  
HETATM    2  C   UNL     1     -11.062  11.725  69.165  1.00  0.00    -0.294 C  
HETATM    3  C   UNL     1     -12.501  11.241  69.358  1.00  0.00    -0.075 C  
HETATM    4  C   UNL     1     -10.129  10.539  68.897  1.00  0.00    -0.202 C  
ENDROOT
BRANCH   4   5
HETATM    5  N   UNL     1      -9.497  10.132  67.608  1.00  0.00    -0.147 N  
BRANCH   5   6
HETATM    6  C   UNL     1     -10.194   8.809  67.171  1.00  0.00    -0.276 C  
BRANCH   6   7
HETATM    7  C   UNL     1      -9.524   7.453  67.684  1.00  0.00    -0.136 C  
BRANCH   7   8
HETATM    8  C   UNL     1      -8.504   7.731  68.897  1.00  0.00    -0.129 C  
BRANCH   8   9
HETATM    9  N   UNL     1      -9.014   7.253  70.194  1.00  0.00    -0.148 N  
HETATM   10  C   UNL     1     -10.360   7.110  70.419  1.00  0.00    -0.203 C  
HETATM   11  H   UNL     1      -8.355   7.024  70.938  1.00  0.00     0.000 HD 
HETATM   12  O   UNL     1     -11.245   7.292  69.601  1.00  0.00    -0.193 OA 
BRANCH  10  13
HETATM   13  O   UNL     1     -10.570   6.707  71.702  1.00  0.00    -0.213 OA 
BRANCH  13  14
HETATM   14  C   UNL     1     -11.669   7.354  72.368  1.00  0.00    -0.264 C  
HETATM   15  C   UNL     1     -11.762   8.838  72.096  1.00  0.00    -0.433 C  
HETATM   16  O   UNL     1     -13.925   7.937  71.808  1.00  0.00    -0.376 OA 
HETATM   17  C   UNL     1     -13.239   9.117  72.237  1.00  0.00    -0.461 C  
HETATM   18  C   UNL     1     -12.995   6.844  71.814  1.00  0.00    -0.277 C  
ENDBRANCH  13  14
ENDBRANCH  10  13
ENDBRANCH   8   9
BRANCH   8  19
HETATM   19  C   UNL     1      -7.028   7.315  68.697  1.00  0.00    -0.082 C  
BRANCH  19  20
HETATM   20  C   UNL     1      -6.453   6.296  69.644  1.00  0.00    -0.043 A  
HETATM   21  C   UNL     1      -6.352   4.028  70.498  1.00  0.00    -0.026 A  
HETATM   22  C   UNL     1      -5.224   5.810  71.675  1.00  0.00    -0.016 A  
HETATM   23  C   UNL     1      -5.656   6.721  70.713  1.00  0.00    -0.023 A  
HETATM   24  C   UNL     1      -6.792   4.940  69.539  1.00  0.00    -0.053 A  
HETATM   25  C   UNL     1      -5.575   4.466  71.570  1.00  0.00    -0.011 A  
ENDBRANCH  19  20
ENDBRANCH   8  19
ENDBRANCH   7   8
BRANCH   7  26
HETATM   26  O   UNL     1      -9.020   6.618  66.579  1.00  0.00    -0.135 OA 
HETATM   27  O   UNL     1      -9.627   3.398  66.709  1.00  0.00    -0.173 OA 
HETATM   28  O   UNL     1     -10.705   5.231  65.812  1.00  0.00    -0.084 OA 
HETATM   29  O   UNL     1      -9.969   4.998  68.137  1.00  0.00    -0.153 OA 
HETATM   30  P   UNL     1      -9.340   4.919  66.648  1.00  0.00    -0.168 P  
ENDBRANCH   7  26
ENDBRANCH   6   7
ENDBRANCH   5   6
BRANCH   5  31
HETATM   31  S   UNL     1      -9.197  11.116  66.244  1.00  0.00    -0.200 S  
HETATM   32  O   UNL     1      -8.386  12.248  66.640  1.00  0.00    -0.129 OA 
HETATM   33  O   UNL     1     -10.467  11.371  65.593  1.00  0.00    -0.249 OA 
BRANCH  31  34
HETATM   34  C   UNL     1      -8.221  10.225  65.089  1.00  0.00    -0.161 A  
HETATM   35  N   UNL     1      -6.058   7.862  62.400  1.00  0.00    -0.072 NA 
HETATM   36  C   UNL     1      -6.853  10.047  65.291  1.00  0.00    -0.128 A  
HETATM   37  H1  UNL     1      -6.522   7.439  61.595  1.00  0.00     0.000 HD 
HETATM   38  H2  UNL     1      -5.616   7.117  62.940  1.00  0.00     0.000 HD 
HETATM   39  C   UNL     1      -8.886   9.512  64.089  1.00  0.00    -0.243 A  
HETATM   40  C   UNL     1      -8.163   8.740  63.193  1.00  0.00    -0.182 A  
HETATM   41  C   UNL     1      -6.135   9.260  64.388  1.00  0.00    -0.076 A  
HETATM   42  C   UNL     1      -6.771   8.680  63.282  1.00  0.00    -0.089 A  
ENDBRANCH  31  34
ENDBRANCH   5  31
ENDBRANCH   4   5
TORSDOF 12
ENDMDL
MODEL      316
REMARK 921   NORMALIZED FREE ENERGY PREDICTED BY IDOCK:   -2.19 KCAL/MOL
REMARK 922        TOTAL FREE ENERGY PREDICTED BY IDOCK:   -6.53 KCAL/MOL
REMARK 923 INTER-LIGAND FREE ENERGY PREDICTED BY IDOCK:   -7.00 KCAL/MOL
REMARK 924 INTRA-LIGAND FREE ENERGY PREDICTED BY IDOCK:    0.47 KCAL/MOL
REMARK 927      BINDING AFFINITY PREDICTED BY RF-SCORE:    0.00 PKD
ROOT
HETATM    1  C   UNL     1      -6.436  12.976  69.527  1.00  0.00    -0.075 C  
HETATM    2  C   UNL     1      -7.100  13.763  68.409  1.00  0.00    -0.105 C  
HETATM    3  C   UNL     1      -6.137  14.647  67.612  1.00  0.00    -0.078 C  
HETATM    4  C   UNL     1      -8.165  13.164  67.485  1.00  0.00    -0.183 C  
ENDROOT
BRANCH   4   5
HETATM    5  N   UNL     1      -8.281  11.759  66.995  1.00  0.00    -0.168 N  
BRANCH   5   6
HETATM    6  C   UNL     1      -8.091  10.839  68.237  1.00  0.00    -0.121 C  
BRANCH   6   7
HETATM    7  C   UNL     1      -7.443   9.406  67.963  1.00  0.00    -0.080 C  
BRANCH   7   8
HETATM    8  C   UNL     1      -7.805   8.368  69.138  1.00  0.00    -0.105 C  
BRANCH   8   9
HETATM    9  N   UNL     1      -9.161   8.569  69.679  1.00  0.00    -0.156 N  
HETATM   10  C   UNL     1      -9.407   8.492  71.027  1.00  0.00    -0.185 C  
HETATM   11  H   UNL     1      -9.931   8.769  69.041  1.00  0.00     0.000 HD 
HETATM   12  O   UNL     1      -8.570   8.318  71.897  1.00  0.00    -0.136 OA 
BRANCH  10  13
HETATM   13  O   UNL     1     -10.736   8.661  71.262  1.00  0.00    -0.223 OA 
BRANCH  13  14
HETATM   14  C   UNL     1     -11.220  10.003  71.074  1.00  0.00    -0.314 C  
HETATM   15  C   UNL     1     -10.464  10.784  70.024  1.00  0.00     0.047 C  
HETATM   16  O   UNL     1     -12.767  11.089  69.601  1.00  0.00    -0.218 OA 
HETATM   17  C   UNL     1     -11.502  11.752  69.510  1.00  0.00    -0.295 C  
HETATM   18  C   UNL     1     -12.632   9.978  70.500  1.00  0.00    -0.150 C  
ENDBRANCH  13  14
ENDBRANCH  10  13
ENDBRANCH   8   9
BRANCH   8  19
HETATM   19  C   UNL     1      -7.533   6.869  68.875  1.00  0.00    -0.096 C  
BRANCH  19  20
HETATM   20  C   UNL     1      -8.496   6.125  67.990  1.00  0.00    -0.116 A  
HETATM   21  C   UNL     1     -10.743   5.767  67.147  1.00  0.00    -0.358 A  
HETATM   22  C   UNL     1      -9.000   4.173  66.647  1.00  0.00    -0.128 A  
HETATM   23  C   UNL     1      -8.085   4.944  67.362  1.00  0.00    -0.106 A  
HETATM   24  C   UNL     1      -9.831   6.537  67.871  1.00  0.00    -0.134 A  
HETATM   25  C   UNL     1     -10.327   4.582  66.543  1.00  0.00    -0.159 A  
ENDBRANCH  19  20
ENDBRANCH   8  19
ENDBRANCH   7   8
BRANCH   7  26
HETATM   26  O   UNL     1      -6.022   9.492  67.577  1.00  0.00    -0.051 OA 
HETATM   27  O   UNL     1      -5.183   8.379  64.610  1.00  0.00    -0.035 OA 
HETATM   28  O   UNL     1      -5.838  10.420  65.466  1.00  0.00    -0.094 OA 
HETATM   29  O   UNL     1      -7.053   8.307  65.710  1.00  0.00    -0.069 OA 
HETATM   30  P   UNL     1      -5.580   8.905  66.011  1.00  0.00    -0.046 P  
ENDBRANCH   7  26
ENDBRANCH   6   7
ENDBRANCH   5   6
BRANCH   5  31
HETATM   31  S   UNL     1      -9.484  11.116  65.966  1.00  0.00    -0.216 S  
HETATM   32  O   UNL     1     -10.360  10.255  66.734  1.00  0.00    -0.221 OA 
HETATM   33  O   UNL     1      -8.822  10.564  64.801  1.00  0.00    -0.184 OA 
BRANCH  31  34
HETATM   34  C   UNL     1     -10.506  12.419  65.382  1.00  0.00    -0.277 A  
HETATM   35  N   UNL     1     -12.807  15.701  64.189  1.00  0.00    -0.362 NA 
HETATM   36  C   UNL     1     -11.893  12.358  65.514  1.00  0.00    -0.469 A  
HETATM   37  H1  UNL     1     -12.361  16.525  63.787  1.00  0.00     0.000 HD 
HETATM   38  H2  UNL     1     -13.354  15.996  64.999  1.00  0.00     0.000 HD 
HETATM   39  C   UNL     1      -9.884  13.607  64.992  1.00  0.00    -0.087 A  
HETATM   40  C   UNL     1     -10.652  14.687  64.586  1.00  0.00    -0.268 A  
HETATM   41  C   UNL     1     -12.656  13.455  65.110  1.00  0.00    -0.495 A  
HETATM   42  C   UNL     1     -12.044  14.588  64.558  1.00  0.00    -0.484 A  
ENDBRANCH  31  34
ENDBRANCH   5  31
ENDBRANCH   4   5
TORSDOF 12
ENDMDL
MODEL      317
REMARK 921   NORMALIZED FREE ENERGY PREDICTED BY IDOCK:   -2.17 KCAL/MOL
REMARK 922        TOTAL FREE ENERGY PREDICTED BY IDOCK:   -6.50 KCAL/MOL
REMARK 923 INTER-LIGAND FREE ENERGY PREDICTED BY IDOCK:   -6.77 KCAL/MOL
REMARK 924 INTRA-LIGAND FREE ENERGY PREDICTED BY IDOCK:    0.26 KCAL/MOL
REMARK 927      BINDING AFFINITY PREDICTED BY RF-SCORE:    0.00 PKD
ROOT
HETATM    1  C   UNL     1      -9.878   7.131  70.201  1.00  0.00    -0.180 C  
HETATM    2  C   UNL     1      -9.680   7.742  68.823  1.00  0.00    -0.157 C  
HETATM    3  C   UNL     1     -10.524   7.090  67.725  1.00  0.00    -0.282 C  
HETATM    4  C   UNL     1      -9.569   9.252  68.587  1.00  0.00    -0.147 C  
ENDROOT
BRANCH   4   5
HETATM    5  N   UNL     1     -10.246  10.357  69.328  1.00  0.00    -0.218 N  
BRANCH   5   6
HETATM    6  C   UNL     1      -9.167  11.455  69.567  1.00  0.00     0.751 C  
BRANCH   6   7
HETATM    7  C   UNL     1      -8.621  12.205  68.268  1.00  0.00    -0.175 C  
BRANCH   7   8
HETATM    8  C   UNL     1      -8.909  13.785  68.342  1.00  0.00    -0.165 C  
BRANCH   8   9
HETATM    9  N   UNL     1      -7.803  14.540  68.958  1.00  0.00    -0.216 N  
HETATM   10  C   UNL     1      -6.758  15.010  68.204  1.00  0.00    -0.128 C  
HETATM   11  H   UNL     1      -7.815  14.716  69.962  1.00  0.00     0.000 HD 
HETATM   12  O   UNL     1      -6.653  14.918  66.992  1.00  0.00    -0.178 OA 
BRANCH  10  13
HETATM   13  O   UNL     1      -5.849  15.623  69.010  1.00  0.00    -0.102 OA 
BRANCH  13  14
HETATM   14  C   UNL     1      -5.849  17.060  68.942  1.00  0.00    -0.150 C  
HETATM   15  C   UNL     1      -6.313  17.610  67.613  1.00  0.00    -0.173 C  
HETATM   16  O   UNL     1      -7.453  18.804  69.301  1.00  0.00    -0.212 OA 
HETATM   17  C   UNL     1      -6.904  18.947  67.987  1.00  0.00    -0.233 C  
HETATM   18  C   UNL     1      -6.885  17.632  69.904  1.00  0.00     0.410 C  
ENDBRANCH  13  14
ENDBRANCH  10  13
ENDBRANCH   8   9
BRANCH   8  19
HETATM   19  C   UNL     1      -9.402  14.483  67.052  1.00  0.00    -0.249 C  
BRANCH  19  20
HETATM   20  C   UNL     1      -9.789  15.934  67.145  1.00  0.00    -0.232 A  
HETATM   21  C   UNL     1     -10.772  17.783  68.369  1.00  0.00    -0.205 A  
HETATM   22  C   UNL     1     -10.218  18.044  66.033  1.00  0.00    -0.304 A  
HETATM   23  C   UNL     1      -9.739  16.735  65.998  1.00  0.00    -0.287 A  
HETATM   24  C   UNL     1     -10.302  16.470  68.334  1.00  0.00    -0.294 A  
HETATM   25  C   UNL     1     -10.737  18.566  67.216  1.00  0.00    -0.417 A  
ENDBRANCH  19  20
ENDBRANCH   8  19
ENDBRANCH   7   8
BRANCH   7  26
HETATM   26  O   UNL     1      -9.007  11.524  67.017  1.00  0.00    -0.164 OA 
HETATM   27  O   UNL     1      -6.609  10.650  64.960  1.00  0.00    -0.060 OA 
HETATM   28  O   UNL     1      -7.706   9.635  66.719  1.00  0.00    -0.097 OA 
HETATM   29  O   UNL     1      -6.595  11.818  66.790  1.00  0.00    -0.132 OA 
HETATM   30  P   UNL     1      -7.742  11.062  65.932  1.00  0.00     0.154 P  
ENDBRANCH   7  26
ENDBRANCH   6   7
ENDBRANCH   5   6
BRANCH   5  31
HETATM   31  S   UNL     1     -11.750  11.080  68.963  1.00  0.00    -0.328 S  
HETATM   32  O   UNL     1     -12.803  10.097  69.116  1.00  0.00     0.533 OA 
HETATM   33  O   UNL     1     -11.619  11.756  67.688  1.00  0.00    -0.396 OA 
BRANCH  31  34
HETATM   34  C   UNL     1     -12.099  12.326  70.149  1.00  0.00    -0.287 A  
HETATM   35  N   UNL     1     -13.208  15.193  72.983  1.00  0.00    -0.481 NA 
HETATM   36  C   UNL     1     -11.995  13.677  69.822  1.00  0.00    -0.404 A  
HETATM   37  H1  UNL     1     -13.529  14.908  73.908  1.00  0.00     0.000 HD 
HETATM   38  H2  UNL     1     -13.933  15.772  72.559  1.00  0.00     0.000 HD 
HETATM   39  C   UNL     1     -12.696  11.932  71.348  1.00  0.00    -0.395 A  
HETATM   40  C   UNL     1     -13.050  12.886  72.289  1.00  0.00    -0.421 A  
HETATM   41  C   UNL     1     -12.363  14.630  70.774  1.00  0.00    -0.398 A  
HETATM   42  C   UNL     1     -12.804  14.238  72.045  1.00  0.00    -0.347 A  
ENDBRANCH  31  34
ENDBRANCH   5  31
ENDBRANCH   4   5
TORSDOF 12
ENDMDL
MODEL      318
REMARK 921   NORMALIZED FREE ENERGY PREDICTED BY IDOCK:   -2.16 KCAL/MOL
REMARK 922        TOTAL FREE ENERGY PREDICTED BY IDOCK:   -6.49 KCAL/MOL
REMARK 923 INTER-LIGAND FREE ENERGY PREDICTED BY IDOCK:   -5.02 KCAL/MOL
REMARK 924 INTRA-LIGAND FREE ENERGY PREDICTED BY IDOCK:   -1.47 KCAL/MOL
REMARK 927      BINDING AFFINITY PREDICTED BY RF-SCORE:    0.00 PKD
ROOT
HETATM    1  C   UNL     1      -6.557   8.768  71.149  1.00  0.00    -0.071 C  
HETATM    2  C   UNL     1      -6.008   7.448  70.631  1.00  0.00    -0.031 C  
HETATM    3  C   UNL     1      -5.910   6.354  71.696  1.00  0.00    -0.036 C  
HETATM    4  C   UNL     1      -6.415   6.847  69.281  1.00  0.00    -0.043 C  
ENDROOT
BRANCH   4   5
HETATM    5  N   UNL     1      -7.734   6.934  68.589  1.00  0.00    -0.111 N  
BRANCH   5   6
HETATM    6  C   UNL     1      -8.804   7.150  69.700  1.00  0.00    -0.141 C  
BRANCH   6   7
HETATM    7  C   UNL     1      -9.941   6.034  69.814  1.00  0.00    -0.175 C  
BRANCH   7   8
HETATM    8  C   UNL     1      -9.486   4.666  69.101  1.00  0.00    -0.157 C  
BRANCH   8   9
HETATM    9  N   UNL     1      -9.613   3.492  69.984  1.00  0.00    -0.183 N  
HETATM   10  C   UNL     1      -8.514   2.937  70.590  1.00  0.00    -0.057 C  
HETATM   11  H   UNL     1     -10.534   3.085  70.147  1.00  0.00     0.000 HD 
HETATM   12  O   UNL     1      -7.372   3.360  70.525  1.00  0.00    -0.040 OA 
BRANCH  10  13
HETATM   13  O   UNL     1      -8.889   1.841  71.305  1.00  0.00    -0.057 OA 
BRANCH  13  14
HETATM   14  C   UNL     1      -9.383   2.119  72.627  1.00  0.00    -0.080 C  
HETATM   15  C   UNL     1      -9.579   3.591  72.910  1.00  0.00    -0.169 C  
HETATM   16  O   UNL     1     -11.532   2.473  73.626  1.00  0.00    -0.227 OA 
HETATM   17  C   UNL     1     -10.694   3.594  73.927  1.00  0.00    -0.225 C  
HETATM   18  C   UNL     1     -10.797   1.571  72.786  1.00  0.00    -0.150 C  
ENDBRANCH  13  14
ENDBRANCH  10  13
ENDBRANCH   8   9
BRANCH   8  19
HETATM   19  C   UNL     1     -10.063   4.365  67.698  1.00  0.00    -0.038 C  
BRANCH  19  20
HETATM   20  C   UNL     1      -9.092   4.204  66.560  1.00  0.00    -0.137 A  
HETATM   21  C   UNL     1      -7.007   3.339  65.671  1.00  0.00    -0.057 A  
HETATM   22  C   UNL     1      -8.294   4.932  64.392  1.00  0.00    -0.133 A  
HETATM   23  C   UNL     1      -9.255   4.969  65.400  1.00  0.00    -0.144 A  
HETATM   24  C   UNL     1      -7.963   3.381  66.686  1.00  0.00    -0.081 A  
HETATM   25  C   UNL     1      -7.170   4.121  64.528  1.00  0.00    -0.066 A  
ENDBRANCH  19  20
ENDBRANCH   8  19
ENDBRANCH   7   8
BRANCH   7  26
HETATM   26  O   UNL     1     -11.276   6.549  69.457  1.00  0.00    -0.340 OA 
HETATM   27  O   UNL     1     -13.266   7.436  71.908  1.00  0.00    -0.311 OA 
HETATM   28  O   UNL     1     -11.692   8.513  70.607  1.00  0.00    -0.249 OA 
HETATM   29  O   UNL     1     -11.325   6.461  71.896  1.00  0.00    -0.263 OA 
HETATM   30  P   UNL     1     -12.326   7.017  70.751  1.00  0.00    -0.022 P  
ENDBRANCH   7  26
ENDBRANCH   6   7
ENDBRANCH   5   6
BRANCH   5  31
HETATM   31  S   UNL     1      -8.122   7.865  67.210  1.00  0.00    -0.119 S  
HETATM   32  O   UNL     1      -9.494   7.602  66.827  1.00  0.00    -0.169 OA 
HETATM   33  O   UNL     1      -7.079   7.657  66.226  1.00  0.00    -0.067 OA 
BRANCH  31  34
HETATM   34  C   UNL     1      -8.073   9.569  67.628  1.00  0.00    -0.110 A  
HETATM   35  N   UNL     1      -7.679  13.587  68.720  1.00  0.00    -0.268 NA 
HETATM   36  C   UNL     1      -8.931  10.096  68.593  1.00  0.00    -0.136 A  
HETATM   37  H1  UNL     1      -6.979  14.178  68.271  1.00  0.00     0.000 HD 
HETATM   38  H2  UNL     1      -7.518  13.611  69.728  1.00  0.00     0.000 HD 
HETATM   39  C   UNL     1      -7.009  10.328  67.137  1.00  0.00    -0.088 A  
HETATM   40  C   UNL     1      -6.890  11.663  67.493  1.00  0.00    -0.104 A  
HETATM   41  C   UNL     1      -8.797  11.440  68.951  1.00  0.00    -0.010 A  
HETATM   42  C   UNL     1      -7.836  12.252  68.334  1.00  0.00    -0.151 A  
ENDBRANCH  31  34
ENDBRANCH   5  31
ENDBRANCH   4   5
TORSDOF 12
ENDMDL
MODEL      319
REMARK 921   NORMALIZED FREE ENERGY PREDICTED BY IDOCK:   -2.16 KCAL/MOL
REMARK 922        TOTAL FREE ENERGY PREDICTED BY IDOCK:   -6.48 KCAL/MOL
REMARK 923 INTER-LIGAND FREE ENERGY PREDICTED BY IDOCK:   -7.43 KCAL/MOL
REMARK 924 INTRA-LIGAND FREE ENERGY PREDICTED BY IDOCK:    0.96 KCAL/MOL
REMARK 927      BINDING AFFINITY PREDICTED BY RF-SCORE:    0.00 PKD
ROOT
HETATM    1  C   UNL     1      -5.379  10.289  68.043  1.00  0.00    -0.034 C  
HETATM    2  C   UNL     1      -5.932  11.084  66.871  1.00  0.00    -0.088 C  
HETATM    3  C   UNL     1      -5.208  10.829  65.548  1.00  0.00    -0.139 C  
HETATM    4  C   UNL     1      -7.433  11.282  66.631  1.00  0.00    -0.133 C  
ENDROOT
BRANCH   4   5
HETATM    5  N   UNL     1      -8.550  10.339  66.928  1.00  0.00    -0.126 N  
BRANCH   5   6
HETATM    6  C   UNL     1      -9.198  10.823  68.259  1.00  0.00    -0.157 C  
BRANCH   6   7
HETATM    7  C   UNL     1      -9.045   9.850  69.515  1.00  0.00    -0.223 C  
BRANCH   7   8
HETATM    8  C   UNL     1     -10.396   9.807  70.387  1.00  0.00    -0.293 C  
BRANCH   8   9
HETATM    9  N   UNL     1     -10.989  11.141  70.588  1.00  0.00    -0.017 N  
HETATM   10  C   UNL     1     -12.011  11.592  69.791  1.00  0.00    -0.346 C  
HETATM   11  H   UNL     1     -10.634  11.740  71.334  1.00  0.00     0.000 HD 
HETATM   12  O   UNL     1     -12.562  10.956  68.908  1.00  0.00    -0.338 OA 
BRANCH  10  13
HETATM   13  O   UNL     1     -12.342  12.863  70.145  1.00  0.00    -0.270 OA 
BRANCH  13  14
HETATM   14  C   UNL     1     -11.879  13.884  69.243  1.00  0.00    -0.348 C  
HETATM   15  C   UNL     1     -10.485  14.385  69.550  1.00  0.00    -0.028 C  
HETATM   16  O   UNL     1     -10.579  13.949  67.231  1.00  0.00    -0.272 OA 
HETATM   17  C   UNL     1      -9.975  14.816  68.197  1.00  0.00    -0.221 C  
HETATM   18  C   UNL     1     -11.711  13.312  67.840  1.00  0.00    -0.357 C  
ENDBRANCH  13  14
ENDBRANCH  10  13
ENDBRANCH   8   9
BRANCH   8  19
HETATM   19  C   UNL     1     -11.477   8.779  69.978  1.00  0.00     0.047 C  
BRANCH  19  20
HETATM   20  C   UNL     1     -11.138   7.318  70.104  1.00  0.00    -0.281 A  
HETATM   21  C   UNL     1     -10.771   5.346  71.468  1.00  0.00    -0.262 A  
HETATM   22  C   UNL     1     -10.198   5.312  69.122  1.00  0.00    -0.281 A  
HETATM   23  C   UNL     1     -10.641   6.627  68.993  1.00  0.00    -0.273 A  
HETATM   24  C   UNL     1     -11.208   6.665  71.342  1.00  0.00    -0.318 A  
HETATM   25  C   UNL     1     -10.260   4.673  70.359  1.00  0.00    -0.208 A  
ENDBRANCH  19  20
ENDBRANCH   8  19
ENDBRANCH   7   8
BRANCH   7  26
HETATM   26  O   UNL     1      -7.790  10.077  70.258  1.00  0.00    -0.172 OA 
HETATM   27  O   UNL     1      -6.603   7.588  72.032  1.00  0.00    -0.049 OA 
HETATM   28  O   UNL     1      -6.321   8.334  69.866  1.00  0.00    -0.032 OA 
HETATM   29  O   UNL     1      -8.465   7.833  70.941  1.00  0.00    -0.122 OA 
HETATM   30  P   UNL     1      -7.164   8.764  71.193  1.00  0.00    -0.087 P  
ENDBRANCH   7  26
ENDBRANCH   6   7
ENDBRANCH   5   6
BRANCH   5  31
HETATM   31  S   UNL     1      -9.760   9.793  65.851  1.00  0.00    -0.281 S  
HETATM   32  O   UNL     1     -10.784   9.093  66.598  1.00  0.00    -0.145 OA 
HETATM   33  O   UNL     1      -9.103   9.097  64.763  1.00  0.00    -0.200 OA 
BRANCH  31  34
HETATM   34  C   UNL     1     -10.568  11.177  65.136  1.00  0.00    -0.253 A  
HETATM   35  N   UNL     1     -12.635  14.286  63.251  1.00  0.00    -0.945 NA 
HETATM   36  C   UNL     1      -9.845  12.161  64.463  1.00  0.00    -0.151 A  
HETATM   37  H1  UNL     1     -13.653  14.335  63.302  1.00  0.00     0.000 HD 
HETATM   38  H2  UNL     1     -12.365  14.275  62.267  1.00  0.00     0.000 HD 
HETATM   39  C   UNL     1     -11.962  11.149  65.063  1.00  0.00     1.026 A  
HETATM   40  C   UNL     1     -12.642  12.189  64.448  1.00  0.00    -0.377 A  
HETATM   41  C   UNL     1     -10.541  13.199  63.839  1.00  0.00    -0.195 A  
HETATM   42  C   UNL     1     -11.938  13.267  63.909  1.00  0.00    -0.483 A  
ENDBRANCH  31  34
ENDBRANCH   5  31
ENDBRANCH   4   5
TORSDOF 12
ENDMDL
MODEL      320
REMARK 921   NORMALIZED FREE ENERGY PREDICTED BY IDOCK:   -2.02 KCAL/MOL
REMARK 922        TOTAL FREE ENERGY PREDICTED BY IDOCK:   -6.24 KCAL/MOL
REMARK 923 INTER-LIGAND FREE ENERGY PREDICTED BY IDOCK:   -6.04 KCAL/MOL
REMARK 924 INTRA-LIGAND FREE ENERGY PREDICTED BY IDOCK:   -0.20 KCAL/MOL
REMARK 927      BINDING AFFINITY PREDICTED BY RF-SCORE:    0.00 PKD
ROOT
HETATM    1  C   UNL     1      -6.401  11.731  67.338  1.00  0.00    -0.114 C  
HETATM    2  C   UNL     1      -6.133  10.606  68.324  1.00  0.00    -0.046 C  
HETATM    3  C   UNL     1      -5.577  11.076  69.670  1.00  0.00    -0.043 C  
HETATM    4  C   UNL     1      -7.088   9.424  68.523  1.00  0.00    -0.071 C  
ENDROOT
BRANCH   4   5
HETATM    5  N   UNL     1      -8.578   9.412  68.427  1.00  0.00    -0.123 N  
BRANCH   5   6
HETATM    6  C   UNL     1      -9.109  10.148  69.694  1.00  0.00    -0.174 C  
BRANCH   6   7
HETATM    7  C   UNL     1     -10.097   9.316  70.632  1.00  0.00    -0.276 C  
BRANCH   7   8
HETATM    8  C   UNL     1      -9.323   8.115  71.371  1.00  0.00    -0.155 C  
BRANCH   8   9
HETATM    9  N   UNL     1      -9.930   6.797  71.108  1.00  0.00    -0.182 N  
HETATM   10  C   UNL     1      -9.527   6.029  70.045  1.00  0.00    -0.156 C  
HETATM   11  H   UNL     1     -10.661   6.450  71.728  1.00  0.00     0.000 HD 
HETATM   12  O   UNL     1      -8.628   6.301  69.268  1.00  0.00    -0.123 OA 
BRANCH  10  13
HETATM   13  O   UNL     1     -10.272   4.892  69.992  1.00  0.00    -0.264 OA 
BRANCH  13  14
HETATM   14  C   UNL     1      -9.623   3.717  70.510  1.00  0.00    -0.186 C  
HETATM   15  C   UNL     1      -8.114   3.760  70.415  1.00  0.00    -0.061 C  
HETATM   16  O   UNL     1      -8.660   3.058  72.603  1.00  0.00    -0.080 OA 
HETATM   17  C   UNL     1      -7.678   2.896  71.574  1.00  0.00    -0.048 C  
HETATM   18  C   UNL     1      -9.847   3.610  72.014  1.00  0.00    -0.174 C  
ENDBRANCH  13  14
ENDBRANCH  10  13
ENDBRANCH   8   9
BRANCH   8  19
HETATM   19  C   UNL     1      -7.785   8.054  71.217  1.00  0.00    -0.090 C  
BRANCH  19  20
HETATM   20  C   UNL     1      -6.978   7.625  72.413  1.00  0.00    -0.071 A  
HETATM   21  C   UNL     1      -5.347   8.108  74.143  1.00  0.00    -0.062 A  
HETATM   22  C   UNL     1      -6.084   5.837  73.781  1.00  0.00    -0.062 A  
HETATM   23  C   UNL     1      -6.929   6.271  72.762  1.00  0.00    -0.075 A  
HETATM   24  C   UNL     1      -6.186   8.543  73.116  1.00  0.00    -0.107 A  
HETATM   25  C   UNL     1      -5.291   6.754  74.469  1.00  0.00    -0.050 A  
ENDBRANCH  19  20
ENDBRANCH   8  19
ENDBRANCH   7   8
BRANCH   7  26
HETATM   26  O   UNL     1     -11.360   8.967  69.956  1.00  0.00    -0.184 OA 
HETATM   27  O   UNL     1     -14.140   9.304  71.662  1.00  0.00    -0.285 OA 
HETATM   28  O   UNL     1     -12.906  10.661  70.261  1.00  0.00    -0.302 OA 
HETATM   29  O   UNL     1     -12.054   9.489  72.237  1.00  0.00    -0.248 OA 
HETATM   30  P   UNL     1     -12.827   9.145  70.856  1.00  0.00     0.222 P  
ENDBRANCH   7  26
ENDBRANCH   6   7
ENDBRANCH   5   6
BRANCH   5  31
HETATM   31  S   UNL     1      -9.533   9.816  67.069  1.00  0.00    -0.162 S  
HETATM   32  O   UNL     1     -10.673   8.926  67.006  1.00  0.00    -0.248 OA 
HETATM   33  O   UNL     1      -8.655   9.896  65.918  1.00  0.00    -0.132 OA 
BRANCH  31  34
HETATM   34  C   UNL     1     -10.206  11.422  67.290  1.00  0.00    -0.199 A  
HETATM   35  N   UNL     1     -11.703  15.244  68.092  1.00  0.00    -0.422 NA 
HETATM   36  C   UNL     1     -11.581  11.639  67.220  1.00  0.00    -0.316 A  
HETATM   37  H1  UNL     1     -11.068  16.010  68.314  1.00  0.00     0.000 HD 
HETATM   38  H2  UNL     1     -12.371  15.151  68.857  1.00  0.00     0.000 HD 
HETATM   39  C   UNL     1      -9.354  12.424  67.758  1.00  0.00    -0.196 A  
HETATM   40  C   UNL     1      -9.854  13.693  68.010  1.00  0.00    -0.244 A  
HETATM   41  C   UNL     1     -12.075  12.918  67.485  1.00  0.00    -0.251 A  
HETATM   42  C   UNL     1     -11.203  13.972  67.790  1.00  0.00    -0.281 A  
ENDBRANCH  31  34
ENDBRANCH   5  31
ENDBRANCH   4   5
TORSDOF 12
ENDMDL
MODEL      321
REMARK 921   NORMALIZED FREE ENERGY PREDICTED BY IDOCK:   -1.99 KCAL/MOL
REMARK 922        TOTAL FREE ENERGY PREDICTED BY IDOCK:   -6.19 KCAL/MOL
REMARK 923 INTER-LIGAND FREE ENERGY PREDICTED BY IDOCK:   -6.16 KCAL/MOL
REMARK 924 INTRA-LIGAND FREE ENERGY PREDICTED BY IDOCK:   -0.03 KCAL/MOL
REMARK 927      BINDING AFFINITY PREDICTED BY RF-SCORE:    0.00 PKD
ROOT
HETATM    1  C   UNL     1      -7.447  11.884  69.915  1.00  0.00     1.036 C  
HETATM    2  C   UNL     1      -6.623  12.427  68.759  1.00  0.00    -0.088 C  
HETATM    3  C   UNL     1      -5.247  11.772  68.613  1.00  0.00    -0.046 C  
HETATM    4  C   UNL     1      -7.219  12.734  67.381  1.00  0.00    -0.132 C  
ENDROOT
BRANCH   4   5
HETATM    5  N   UNL     1      -8.328  12.030  66.674  1.00  0.00    -0.134 N  
BRANCH   5   6
HETATM    6  C   UNL     1      -8.946  13.061  65.682  1.00  0.00     0.730 C  
BRANCH   6   7
HETATM    7  C   UNL     1     -10.200  13.892  66.216  1.00  0.00    -0.297 C  
BRANCH   7   8
HETATM    8  C   UNL     1      -9.786  14.846  67.443  1.00  0.00    -0.221 C  
BRANCH   8   9
HETATM    9  N   UNL     1      -8.555  15.612  67.181  1.00  0.00    -0.194 N  
HETATM   10  C   UNL     1      -8.393  16.321  66.018  1.00  0.00    -0.064 C  
HETATM   11  H   UNL     1      -7.809  15.615  67.878  1.00  0.00     0.000 HD 
HETATM   12  O   UNL     1      -9.225  16.447  65.136  1.00  0.00     0.108 OA 
BRANCH  10  13
HETATM   13  O   UNL     1      -7.158  16.893  65.997  1.00  0.00    -0.133 OA 
BRANCH  13  14
HETATM   14  C   UNL     1      -6.968  17.961  66.942  1.00  0.00    -0.181 C  
HETATM   15  C   UNL     1      -6.413  17.508  68.274  1.00  0.00    -0.182 C  
HETATM   16  O   UNL     1      -5.155  19.387  67.593  1.00  0.00    -0.172 OA 
HETATM   17  C   UNL     1      -5.658  18.723  68.757  1.00  0.00    -0.195 C  
HETATM   18  C   UNL     1      -5.882  18.912  66.450  1.00  0.00    -0.161 C  
ENDBRANCH  13  14
ENDBRANCH  10  13
ENDBRANCH   8   9
BRANCH   8  19
HETATM   19  C   UNL     1     -10.885  15.756  68.042  1.00  0.00    -0.309 C  
BRANCH  19  20
HETATM   20  C   UNL     1     -10.594  17.229  68.147  1.00  0.00    -0.386 A  
HETATM   21  C   UNL     1      -9.929  19.162  69.453  1.00  0.00    -0.103 A  
HETATM   22  C   UNL     1     -10.810  19.459  67.224  1.00  0.00    -0.561 A  
HETATM   23  C   UNL     1     -10.949  18.078  67.093  1.00  0.00    -0.025 A  
HETATM   24  C   UNL     1     -10.075  17.780  69.327  1.00  0.00    -0.135 A  
HETATM   25  C   UNL     1     -10.304  20.000  68.404  1.00  0.00    -0.465 A  
ENDBRANCH  19  20
ENDBRANCH   8  19
ENDBRANCH   7   8
BRANCH   7  26
HETATM   26  O   UNL     1     -11.395  13.049  66.412  1.00  0.00    -0.295 OA 
HETATM   27  O   UNL     1     -13.277  12.450  63.795  1.00  0.00    -0.690 OA 
HETATM   28  O   UNL     1     -11.472  11.407  64.785  1.00  0.00    -0.145 OA 
HETATM   29  O   UNL     1     -11.563  13.752  64.081  1.00  0.00    -0.381 OA 
HETATM   30  P   UNL     1     -12.388  12.733  65.031  1.00  0.00    -0.423 P  
ENDBRANCH   7  26
ENDBRANCH   6   7
ENDBRANCH   5   6
BRANCH   5  31
HETATM   31  S   UNL     1      -8.282  10.480  65.957  1.00  0.00    -0.153 S  
HETATM   32  O   UNL     1      -6.934   9.957  66.036  1.00  0.00    -0.094 OA 
HETATM   33  O   UNL     1      -8.910  10.575  64.655  1.00  0.00    -0.185 OA 
BRANCH  31  34
HETATM   34  C   UNL     1      -9.267   9.375  66.900  1.00  0.00    -0.140 A  
HETATM   35  N   UNL     1     -11.488   6.854  69.391  1.00  0.00    -0.573 NA 
HETATM   36  C   UNL     1      -9.116   7.994  66.775  1.00  0.00    -0.189 A  
HETATM   37  H1  UNL     1     -12.147   7.244  70.065  1.00  0.00     0.000 HD 
HETATM   38  H2  UNL     1     -10.824   6.268  69.897  1.00  0.00     0.000 HD 
HETATM   39  C   UNL     1     -10.038   9.912  67.934  1.00  0.00    -0.210 A  
HETATM   40  C   UNL     1     -10.781   9.072  68.748  1.00  0.00    -0.140 A  
HETATM   41  C   UNL     1      -9.864   7.158  67.607  1.00  0.00    -0.183 A  
HETATM   42  C   UNL     1     -10.769   7.693  68.533  1.00  0.00    -0.051 A  
ENDBRANCH  31  34
ENDBRANCH   5  31
ENDBRANCH   4   5
TORSDOF 12
ENDMDL
MODEL      322
REMARK 921   NORMALIZED FREE ENERGY PREDICTED BY IDOCK:   -1.97 KCAL/MOL
REMARK 922        TOTAL FREE ENERGY PREDICTED BY IDOCK:   -6.16 KCAL/MOL
REMARK 923 INTER-LIGAND FREE ENERGY PREDICTED BY IDOCK:   -5.98 KCAL/MOL
REMARK 924 INTRA-LIGAND FREE ENERGY PREDICTED BY IDOCK:   -0.18 KCAL/MOL
REMARK 927      BINDING AFFINITY PREDICTED BY RF-SCORE:    0.00 PKD
ROOT
HETATM    1  C   UNL     1      -9.745   5.966  70.776  1.00  0.00    -0.212 C  
HETATM    2  C   UNL     1     -11.077   6.095  70.054  1.00  0.00    -0.462 C  
HETATM    3  C   UNL     1     -12.216   6.611  70.936  1.00  0.00    -0.324 C  
HETATM    4  C   UNL     1     -11.205   6.652  68.632  1.00  0.00    -0.157 C  
ENDROOT
BRANCH   4   5
HETATM    5  N   UNL     1     -10.387   7.714  67.977  1.00  0.00    -0.201 N  
BRANCH   5   6
HETATM    6  C   UNL     1      -9.886   8.653  69.115  1.00  0.00    -0.185 C  
BRANCH   6   7
HETATM    7  C   UNL     1      -9.837  10.212  68.774  1.00  0.00    -0.175 C  
BRANCH   7   8
HETATM    8  C   UNL     1      -8.518  10.582  67.931  1.00  0.00    -0.119 C  
BRANCH   8   9
HETATM    9  N   UNL     1      -8.824  11.275  66.666  1.00  0.00    -0.169 N  
HETATM   10  C   UNL     1      -9.326  12.551  66.659  1.00  0.00    -0.236 C  
HETATM   11  H   UNL     1      -8.658  10.797  65.781  1.00  0.00     0.000 HD 
HETATM   12  O   UNL     1      -9.514  13.251  67.640  1.00  0.00    -0.197 OA 
BRANCH  10  13
HETATM   13  O   UNL     1      -9.570  12.942  65.379  1.00  0.00    -0.088 OA 
BRANCH  13  14
HETATM   14  C   UNL     1     -10.958  12.939  64.998  1.00  0.00    -0.297 C  
HETATM   15  C   UNL     1     -11.912  12.813  66.163  1.00  0.00    -0.476 C  
HETATM   16  O   UNL     1     -12.696  14.576  64.803  1.00  0.00    -0.606 OA 
HETATM   17  C   UNL     1     -13.145  13.530  65.670  1.00  0.00     0.037 C  
HETATM   18  C   UNL     1     -11.345  14.292  64.411  1.00  0.00    -0.273 C  
ENDBRANCH  13  14
ENDBRANCH  10  13
ENDBRANCH   8   9
BRANCH   8  19
HETATM   19  C   UNL     1      -7.365  11.289  68.682  1.00  0.00    -0.109 C  
BRANCH  19  20
HETATM   20  C   UNL     1      -6.525  10.460  69.616  1.00  0.00    -0.076 A  
HETATM   21  C   UNL     1      -5.774   8.299  70.425  1.00  0.00    -0.028 A  
HETATM   22  C   UNL     1      -5.223  10.304  71.654  1.00  0.00    -0.048 A  
HETATM   23  C   UNL     1      -5.895  11.073  70.704  1.00  0.00    -0.105 A  
HETATM   24  C   UNL     1      -6.454   9.066  69.478  1.00  0.00    -0.043 A  
HETATM   25  C   UNL     1      -5.166   8.919  71.516  1.00  0.00    -0.039 A  
ENDBRANCH  19  20
ENDBRANCH   8  19
ENDBRANCH   7   8
BRANCH   7  26
HETATM   26  O   UNL     1     -10.125  11.057  69.948  1.00  0.00     0.158 OA 
HETATM   27  O   UNL     1     -13.239  11.953  70.447  1.00  0.00     0.376 OA 
HETATM   28  O   UNL     1     -11.918  10.184  71.120  1.00  0.00    -0.335 OA 
HETATM   29  O   UNL     1     -12.276  10.905  68.806  1.00  0.00    -0.518 OA 
HETATM   30  P   UNL     1     -11.768  11.529  70.211  1.00  0.00    -0.095 P  
ENDBRANCH   7  26
ENDBRANCH   6   7
ENDBRANCH   5   6
BRANCH   5  31
HETATM   31  S   UNL     1      -9.160   7.503  66.806  1.00  0.00    -0.155 S  
HETATM   32  O   UNL     1      -7.869   7.506  67.462  1.00  0.00    -0.111 OA 
HETATM   33  O   UNL     1      -9.396   8.457  65.741  1.00  0.00    -0.168 OA 
BRANCH  31  34
HETATM   34  C   UNL     1      -9.313   5.910  66.085  1.00  0.00    -0.132 A  
HETATM   35  N   UNL     1      -9.893   2.058  64.564  1.00  0.00    -0.328 NA 
HETATM   36  C   UNL     1      -8.256   5.001  66.121  1.00  0.00    -0.109 A  
HETATM   37  H1  UNL     1     -10.788   1.794  64.153  1.00  0.00     0.000 HD 
HETATM   38  H2  UNL     1      -9.682   1.402  65.317  1.00  0.00     0.000 HD 
HETATM   39  C   UNL     1     -10.585   5.500  65.680  1.00  0.00     0.385 A  
HETATM   40  C   UNL     1     -10.768   4.226  65.165  1.00  0.00    -0.134 A  
HETATM   41  C   UNL     1      -8.455   3.718  65.608  1.00  0.00    -0.110 A  
HETATM   42  C   UNL     1      -9.684   3.355  65.043  1.00  0.00    -0.115 A  
ENDBRANCH  31  34
ENDBRANCH   5  31
ENDBRANCH   4   5
TORSDOF 12
ENDMDL
MODEL      323
REMARK 921   NORMALIZED FREE ENERGY PREDICTED BY IDOCK:   -1.86 KCAL/MOL
REMARK 922        TOTAL FREE ENERGY PREDICTED BY IDOCK:   -5.98 KCAL/MOL
REMARK 923 INTER-LIGAND FREE ENERGY PREDICTED BY IDOCK:   -6.51 KCAL/MOL
REMARK 924 INTRA-LIGAND FREE ENERGY PREDICTED BY IDOCK:    0.54 KCAL/MOL
REMARK 927      BINDING AFFINITY PREDICTED BY RF-SCORE:    0.00 PKD
ROOT
HETATM    1  C   UNL     1      -5.156   8.927  67.050  1.00  0.00    -0.036 C  
HETATM    2  C   UNL     1      -5.758   9.728  65.907  1.00  0.00    -0.051 C  
HETATM    3  C   UNL     1      -5.436   9.171  64.519  1.00  0.00    -0.055 C  
HETATM    4  C   UNL     1      -7.183  10.289  65.941  1.00  0.00    -0.131 C  
ENDROOT
BRANCH   4   5
HETATM    5  N   UNL     1      -8.394   9.703  66.588  1.00  0.00    -0.123 N  
BRANCH   5   6
HETATM    6  C   UNL     1      -8.104   9.665  68.118  1.00  0.00    -0.105 C  
BRANCH   6   7
HETATM    7  C   UNL     1      -8.087   8.220  68.798  1.00  0.00    -0.115 C  
BRANCH   7   8
HETATM    8  C   UNL     1      -7.268   8.238  70.182  1.00  0.00    -0.055 C  
BRANCH   8   9
HETATM    9  N   UNL     1      -6.148   9.197  70.172  1.00  0.00    -0.034 N  
HETATM   10  C   UNL     1      -6.369  10.548  70.256  1.00  0.00    -0.137 C  
HETATM   11  H   UNL     1      -5.192   8.849  70.101  1.00  0.00     0.000 HD 
HETATM   12  O   UNL     1      -7.453  11.087  70.403  1.00  0.00     0.303 OA 
BRANCH  10  13
HETATM   13  O   UNL     1      -5.185  11.213  70.172  1.00  0.00    -0.052 OA 
BRANCH  13  14
HETATM   14  C   UNL     1      -5.283  12.570  69.703  1.00  0.00    -0.075 C  
HETATM   15  C   UNL     1      -6.386  12.790  68.694  1.00  0.00    -0.075 C  
HETATM   16  O   UNL     1      -6.551  14.514  70.299  1.00  0.00    -0.174 OA 
HETATM   17  C   UNL     1      -6.759  14.236  68.910  1.00  0.00    -0.100 C  
HETATM   18  C   UNL     1      -5.702  13.492  70.843  1.00  0.00    -0.189 C  
ENDBRANCH  13  14
ENDBRANCH  10  13
ENDBRANCH   8   9
BRANCH   8  19
HETATM   19  C   UNL     1      -8.082   8.356  71.493  1.00  0.00    -0.172 C  
BRANCH  19  20
HETATM   20  C   UNL     1      -9.581   8.432  71.382  1.00  0.00    -0.254 A  
HETATM   21  C   UNL     1     -11.601   9.683  70.894  1.00  0.00    -0.420 A  
HETATM   22  C   UNL     1     -11.753   7.503  71.921  1.00  0.00    -0.320 A  
HETATM   23  C   UNL     1     -10.364   7.391  71.895  1.00  0.00    -0.218 A  
HETATM   24  C   UNL     1     -10.210   9.577  70.874  1.00  0.00    -0.356 A  
HETATM   25  C   UNL     1     -12.370   8.649  71.425  1.00  0.00    -0.344 A  
ENDBRANCH  19  20
ENDBRANCH   8  19
ENDBRANCH   7   8
BRANCH   7  26
HETATM   26  O   UNL     1      -7.743   7.149  67.844  1.00  0.00    -0.108 OA 
HETATM   27  O   UNL     1      -9.816   4.623  67.582  1.00  0.00    -0.168 OA 
HETATM   28  O   UNL     1      -9.576   6.659  66.521  1.00  0.00    -0.168 OA 
HETATM   29  O   UNL     1      -9.757   6.316  68.941  1.00  0.00    -0.128 OA 
HETATM   30  P   UNL     1      -8.837   5.817  67.706  1.00  0.00    -0.102 P  
ENDBRANCH   7  26
ENDBRANCH   6   7
ENDBRANCH   5   6
BRANCH   5  31
HETATM   31  S   UNL     1     -10.026  10.127  66.310  1.00  0.00    -0.246 S  
HETATM   32  O   UNL     1     -10.878   9.340  67.176  1.00  0.00    -0.217 OA 
HETATM   33  O   UNL     1     -10.259  10.075  64.880  1.00  0.00    -0.261 OA 
BRANCH  31  34
HETATM   34  C   UNL     1     -10.283  11.795  66.792  1.00  0.00    -0.211 A  
HETATM   35  N   UNL     1     -10.623  15.829  67.838  1.00  0.00    -0.274 NA 
HETATM   36  C   UNL     1     -10.474  12.134  68.131  1.00  0.00    -0.225 A  
HETATM   37  H1  UNL     1     -10.588  16.554  67.121  1.00  0.00     0.000 HD 
HETATM   38  H2  UNL     1      -9.894  16.025  68.525  1.00  0.00     0.000 HD 
HETATM   39  C   UNL     1     -10.066  12.788  65.834  1.00  0.00    -0.286 A  
HETATM   40  C   UNL     1     -10.193  14.124  66.185  1.00  0.00    -0.313 A  
HETATM   41  C   UNL     1     -10.591  13.482  68.473  1.00  0.00    -0.257 A  
HETATM   42  C   UNL     1     -10.544  14.477  67.488  1.00  0.00    -0.262 A  
ENDBRANCH  31  34
ENDBRANCH   5  31
ENDBRANCH   4   5
TORSDOF 12
ENDMDL
MODEL      324
REMARK 921   NORMALIZED FREE ENERGY PREDICTED BY IDOCK:   -1.84 KCAL/MOL
REMARK 922        TOTAL FREE ENERGY PREDICTED BY IDOCK:   -5.94 KCAL/MOL
REMARK 923 INTER-LIGAND FREE ENERGY PREDICTED BY IDOCK:   -8.50 KCAL/MOL
REMARK 924 INTRA-LIGAND FREE ENERGY PREDICTED BY IDOCK:    2.56 KCAL/MOL
REMARK 927      BINDING AFFINITY PREDICTED BY RF-SCORE:    0.00 PKD
ROOT
HETATM    1  C   UNL     1     -12.697  15.696  70.749  1.00  0.00    -0.483 C  
HETATM    2  C   UNL     1     -11.729  14.526  70.685  1.00  0.00    -0.330 C  
HETATM    3  C   UNL     1     -12.388  13.190  70.337  1.00  0.00    -0.351 C  
HETATM    4  C   UNL     1     -10.342  14.624  70.039  1.00  0.00     0.221 C  
ENDROOT
BRANCH   4   5
HETATM    5  N   UNL     1      -9.924  15.444  68.865  1.00  0.00    -0.209 N  
BRANCH   5   6
HETATM    6  C   UNL     1     -10.147  14.557  67.603  1.00  0.00    -0.228 C  
BRANCH   6   7
HETATM    7  C   UNL     1     -10.628  13.058  67.869  1.00  0.00    -0.229 C  
BRANCH   7   8
HETATM    8  C   UNL     1      -9.411  12.019  67.712  1.00  0.00    -0.190 C  
BRANCH   8   9
HETATM    9  N   UNL     1      -9.535  10.854  68.606  1.00  0.00    -0.184 N  
HETATM   10  C   UNL     1     -10.650  10.056  68.582  1.00  0.00    -0.212 C  
HETATM   11  H   UNL     1      -8.777  10.637  69.254  1.00  0.00     0.000 HD 
HETATM   12  O   UNL     1     -11.595  10.171  67.819  1.00  0.00    -0.239 OA 
BRANCH  10  13
HETATM   13  O   UNL     1     -10.542   9.087  69.532  1.00  0.00    -0.223 OA 
BRANCH  13  14
HETATM   14  C   UNL     1      -9.237   8.492  69.646  1.00  0.00    -0.157 C  
HETATM   15  C   UNL     1      -8.907   8.004  71.038  1.00  0.00    -0.153 C  
HETATM   16  O   UNL     1      -8.337   6.274  69.535  1.00  0.00    -0.115 OA 
HETATM   17  C   UNL     1      -7.950   6.866  70.779  1.00  0.00    -0.106 C  
HETATM   18  C   UNL     1      -9.173   7.204  68.831  1.00  0.00    -0.137 C  
ENDBRANCH  13  14
ENDBRANCH  10  13
ENDBRANCH   8   9
BRANCH   8  19
HETATM   19  C   UNL     1      -9.029  11.577  66.280  1.00  0.00    -0.199 C  
BRANCH  19  20
HETATM   20  C   UNL     1      -8.357  10.241  66.114  1.00  0.00    -0.140 A  
HETATM   21  C   UNL     1      -6.350   8.878  66.067  1.00  0.00    -0.057 A  
HETATM   22  C   UNL     1      -8.456   7.950  65.333  1.00  0.00    -0.134 A  
HETATM   23  C   UNL     1      -9.090   9.157  65.618  1.00  0.00    -0.273 A  
HETATM   24  C   UNL     1      -6.982  10.091  66.344  1.00  0.00    -0.101 A  
HETATM   25  C   UNL     1      -7.087   7.811  65.554  1.00  0.00    -0.063 A  
ENDBRANCH  19  20
ENDBRANCH   8  19
ENDBRANCH   7   8
BRANCH   7  26
HETATM   26  O   UNL     1     -11.872  12.727  67.148  1.00  0.00    -0.365 OA 
HETATM   27  O   UNL     1     -12.417  14.236  64.289  1.00  0.00    -0.657 OA 
HETATM   28  O   UNL     1     -11.394  12.269  64.931  1.00  0.00    -0.309 OA 
HETATM   29  O   UNL     1     -10.880  14.502  65.799  1.00  0.00    -0.296 OA 
HETATM   30  P   UNL     1     -12.159  13.523  65.639  1.00  0.00    -0.484 P  
ENDBRANCH   7  26
ENDBRANCH   6   7
ENDBRANCH   5   6
BRANCH   5  31
HETATM   31  S   UNL     1     -10.350  17.064  68.526  1.00  0.00    -0.382 S  
HETATM   32  O   UNL     1     -10.206  17.857  69.729  1.00  0.00     0.103 OA 
HETATM   33  O   UNL     1     -11.636  17.053  67.857  1.00  0.00     0.166 OA 
BRANCH  31  34
HETATM   34  C   UNL     1      -9.204  17.739  67.382  1.00  0.00    -0.248 A  
HETATM   35  N   UNL     1      -6.257  19.284  64.849  1.00  0.00    -0.343 NA 
HETATM   36  C   UNL     1      -9.260  19.084  67.018  1.00  0.00    -0.330 A  
HETATM   37  H1  UNL     1      -5.520  18.680  64.485  1.00  0.00     0.000 HD 
HETATM   38  H2  UNL     1      -5.817  20.064  65.338  1.00  0.00     0.000 HD 
HETATM   39  C   UNL     1      -8.106  16.954  67.023  1.00  0.00    -0.228 A  
HETATM   40  C   UNL     1      -7.138  17.468  66.173  1.00  0.00    -0.341 A  
HETATM   41  C   UNL     1      -8.275  19.593  66.169  1.00  0.00    -0.355 A  
HETATM   42  C   UNL     1      -7.263  18.763  65.669  1.00  0.00    -0.139 A  
ENDBRANCH  31  34
ENDBRANCH   5  31
ENDBRANCH   4   5
TORSDOF 12
ENDMDL
MODEL      325
REMARK 921   NORMALIZED FREE ENERGY PREDICTED BY IDOCK:   -1.81 KCAL/MOL
REMARK 922        TOTAL FREE ENERGY PREDICTED BY IDOCK:   -5.88 KCAL/MOL
REMARK 923 INTER-LIGAND FREE ENERGY PREDICTED BY IDOCK:   -7.64 KCAL/MOL
REMARK 924 INTRA-LIGAND FREE ENERGY PREDICTED BY IDOCK:    1.76 KCAL/MOL
REMARK 927      BINDING AFFINITY PREDICTED BY RF-SCORE:    0.00 PKD
ROOT
HETATM    1  C   UNL     1     -11.001  13.415  68.541  1.00  0.00    -0.292 C  
HETATM    2  C   UNL     1     -11.089  12.167  69.403  1.00  0.00    -0.183 C  
HETATM    3  C   UNL     1     -12.497  11.575  69.501  1.00  0.00    -0.060 C  
HETATM    4  C   UNL     1     -10.040  11.050  69.365  1.00  0.00    -0.030 C  
ENDROOT
BRANCH   4   5
HETATM    5  N   UNL     1      -9.238  10.574  68.200  1.00  0.00    -0.145 N  
BRANCH   5   6
HETATM    6  C   UNL     1      -9.949   9.295  67.665  1.00  0.00    -0.196 C  
BRANCH   6   7
HETATM    7  C   UNL     1      -9.275   7.899  68.048  1.00  0.00    -0.131 C  
BRANCH   7   8
HETATM    8  C   UNL     1      -8.118   8.093  69.148  1.00  0.00    -0.121 C  
BRANCH   8   9
HETATM    9  N   UNL     1      -8.606   7.922  70.528  1.00  0.00    -0.130 N  
HETATM   10  C   UNL     1      -9.940   7.741  70.792  1.00  0.00    -0.181 C  
HETATM   11  H   UNL     1      -7.941   7.938  71.300  1.00  0.00     0.000 HD 
HETATM   12  O   UNL     1     -10.827   7.645  69.960  1.00  0.00    -0.246 OA 
BRANCH  10  13
HETATM   13  O   UNL     1     -10.136   7.662  72.136  1.00  0.00    -0.183 OA 
BRANCH  13  14
HETATM   14  C   UNL     1     -11.493   7.870  72.566  1.00  0.00    -0.398 C  
HETATM   15  C   UNL     1     -12.133   9.114  71.992  1.00  0.00    -0.431 C  
HETATM   16  O   UNL     1     -13.671   7.344  71.715  1.00  0.00    -0.359 OA 
HETATM   17  C   UNL     1     -13.598   8.753  71.952  1.00  0.00    -0.424 C  
HETATM   18  C   UNL     1     -12.393   6.766  72.019  1.00  0.00    -0.271 C  
ENDBRANCH  13  14
ENDBRANCH  10  13
ENDBRANCH   8   9
BRANCH   8  19
HETATM   19  C   UNL     1      -6.793   7.325  68.933  1.00  0.00    -0.072 C  
BRANCH  19  20
HETATM   20  C   UNL     1      -6.332   6.401  70.029  1.00  0.00    -0.039 A  
HETATM   21  C   UNL     1      -6.465   4.278  71.194  1.00  0.00    -0.029 A  
HETATM   22  C   UNL     1      -5.184   6.094  72.140  1.00  0.00    -0.022 A  
HETATM   23  C   UNL     1      -5.511   6.896  71.048  1.00  0.00    -0.027 A  
HETATM   24  C   UNL     1      -6.801   5.082  70.105  1.00  0.00    -0.044 A  
HETATM   25  C   UNL     1      -5.663   4.788  72.214  1.00  0.00    -0.012 A  
ENDBRANCH  19  20
ENDBRANCH   8  19
ENDBRANCH   7   8
BRANCH   7  26
HETATM   26  O   UNL     1      -8.926   7.095  66.861  1.00  0.00    -0.125 OA 
HETATM   27  O   UNL     1      -9.746   3.921  66.882  1.00  0.00    -0.216 OA 
HETATM   28  O   UNL     1     -10.765   5.869  66.177  1.00  0.00    -0.046 OA 
HETATM   29  O   UNL     1      -9.853   5.456  68.414  1.00  0.00    -0.132 OA 
HETATM   30  P   UNL     1      -9.360   5.420  66.872  1.00  0.00    -0.143 P  
ENDBRANCH   7  26
ENDBRANCH   6   7
ENDBRANCH   5   6
BRANCH   5  31
HETATM   31  S   UNL     1      -8.648  11.507  66.896  1.00  0.00    -0.166 S  
HETATM   32  O   UNL     1      -7.538  10.814  66.276  1.00  0.00    -0.135 OA 
HETATM   33  O   UNL     1      -8.436  12.857  67.378  1.00  0.00    -0.176 OA 
BRANCH  31  34
HETATM   34  C   UNL     1      -9.883  11.614  65.654  1.00  0.00    -0.240 A  
HETATM   35  N   UNL     1     -13.007  11.721  62.876  1.00  0.00    -0.784 NA 
HETATM   36  C   UNL     1      -9.704  11.010  64.410  1.00  0.00    -0.330 A  
HETATM   37  H1  UNL     1     -13.879  12.201  63.098  1.00  0.00     0.000 HD 
HETATM   38  H2  UNL     1     -13.228  10.754  62.633  1.00  0.00     0.000 HD 
HETATM   39  C   UNL     1     -11.131  12.122  66.021  1.00  0.00    -0.354 A  
HETATM   40  C   UNL     1     -12.159  12.166  65.092  1.00  0.00    -0.285 A  
HETATM   41  C   UNL     1     -10.750  11.053  63.485  1.00  0.00    -0.230 A  
HETATM   42  C   UNL     1     -11.948  11.712  63.789  1.00  0.00    -0.253 A  
ENDBRANCH  31  34
ENDBRANCH   5  31
ENDBRANCH   4   5
TORSDOF 12
ENDMDL
MODEL      326
REMARK 921   NORMALIZED FREE ENERGY PREDICTED BY IDOCK:   -1.67 KCAL/MOL
REMARK 922        TOTAL FREE ENERGY PREDICTED BY IDOCK:   -5.65 KCAL/MOL
REMARK 923 INTER-LIGAND FREE ENERGY PREDICTED BY IDOCK:   -6.74 KCAL/MOL
REMARK 924 INTRA-LIGAND FREE ENERGY PREDICTED BY IDOCK:    1.09 KCAL/MOL
REMARK 927      BINDING AFFINITY PREDICTED BY RF-SCORE:    0.00 PKD
ROOT
HETATM    1  C   UNL     1      -6.370  11.458  66.803  1.00  0.00    -0.142 C  
HETATM    2  C   UNL     1      -6.110  10.105  67.446  1.00  0.00    -0.057 C  
HETATM    3  C   UNL     1      -5.252  10.171  68.711  1.00  0.00    -0.035 C  
HETATM    4  C   UNL     1      -7.190   9.027  67.587  1.00  0.00    -0.083 C  
ENDROOT
BRANCH   4   5
HETATM    5  N   UNL     1      -8.654   9.207  67.811  1.00  0.00    -0.121 N  
BRANCH   5   6
HETATM    6  C   UNL     1      -8.828   9.612  69.305  1.00  0.00    -0.164 C  
BRANCH   6   7
HETATM    7  C   UNL     1      -9.638   8.590  70.226  1.00  0.00    -0.167 C  
BRANCH   7   8
HETATM    8  C   UNL     1      -8.891   7.168  70.313  1.00  0.00    -0.148 C  
BRANCH   8   9
HETATM    9  N   UNL     1      -9.749   6.105  70.866  1.00  0.00    -0.175 N  
HETATM   10  C   UNL     1      -9.261   4.842  71.087  1.00  0.00    -0.142 C  
HETATM   11  H   UNL     1     -10.722   6.312  71.089  1.00  0.00     0.000 HD 
HETATM   12  O   UNL     1      -8.108   4.481  70.920  1.00  0.00    -0.074 OA 
BRANCH  10  13
HETATM   13  O   UNL     1     -10.258   4.039  71.549  1.00  0.00    -0.135 OA 
BRANCH  13  14
HETATM   14  C   UNL     1     -10.029   3.475  72.852  1.00  0.00    -0.148 C  
HETATM   15  C   UNL     1      -9.143   2.250  72.842  1.00  0.00    -0.098 C  
HETATM   16  O   UNL     1      -8.348   3.676  74.548  1.00  0.00    -0.083 OA 
HETATM   17  C   UNL     1      -8.489   2.294  74.201  1.00  0.00    -0.059 C  
HETATM   18  C   UNL     1      -9.225   4.444  73.712  1.00  0.00    -0.106 C  
ENDBRANCH  13  14
ENDBRANCH  10  13
ENDBRANCH   8   9
BRANCH   8  19
HETATM   19  C   UNL     1      -8.145   6.674  69.051  1.00  0.00    -0.116 C  
BRANCH  19  20
HETATM   20  C   UNL     1      -8.967   6.078  67.940  1.00  0.00    -0.118 A  
HETATM   21  C   UNL     1     -11.111   5.698  66.869  1.00  0.00     0.016 A  
HETATM   22  C   UNL     1      -9.159   4.487  66.122  1.00  0.00    -0.128 A  
HETATM   23  C   UNL     1      -8.383   5.148  67.072  1.00  0.00    -0.107 A  
HETATM   24  C   UNL     1     -10.337   6.355  67.827  1.00  0.00    -0.238 A  
HETATM   25  C   UNL     1     -10.522   4.760  66.023  1.00  0.00    -0.332 A  
ENDBRANCH  19  20
ENDBRANCH   8  19
ENDBRANCH   7   8
BRANCH   7  26
HETATM   26  O   UNL     1     -11.077   8.558  69.904  1.00  0.00    -0.218 OA 
HETATM   27  O   UNL     1     -13.194   8.999  72.369  1.00  0.00    -0.420 OA 
HETATM   28  O   UNL     1     -12.133  10.383  70.857  1.00  0.00    -0.311 OA 
HETATM   29  O   UNL     1     -11.035   8.767  72.335  1.00  0.00    -0.321 OA 
HETATM   30  P   UNL     1     -12.194   8.791  71.205  1.00  0.00    -0.224 P  
ENDBRANCH   7  26
ENDBRANCH   6   7
ENDBRANCH   5   6
BRANCH   5  31
HETATM   31  S   UNL     1      -9.753  10.078  66.835  1.00  0.00    -0.198 S  
HETATM   32  O   UNL     1     -11.011   9.363  66.776  1.00  0.00    -0.033 OA 
HETATM   33  O   UNL     1      -9.083  10.398  65.590  1.00  0.00    -0.161 OA 
BRANCH  31  34
HETATM   34  C   UNL     1     -10.123  11.612  67.604  1.00  0.00    -0.188 A  
HETATM   35  N   UNL     1     -11.201  15.316  69.219  1.00  0.00    -0.265 NA 
HETATM   36  C   UNL     1      -9.153  12.605  67.728  1.00  0.00    -0.192 A  
HETATM   37  H1  UNL     1     -12.155  15.482  69.538  1.00  0.00     0.000 HD 
HETATM   38  H2  UNL     1     -10.968  16.027  68.525  1.00  0.00     0.000 HD 
HETATM   39  C   UNL     1     -11.463  11.893  67.881  1.00  0.00    -0.385 A  
HETATM   40  C   UNL     1     -11.812  13.118  68.428  1.00  0.00    -0.386 A  
HETATM   41  C   UNL     1      -9.518  13.839  68.272  1.00  0.00    -0.214 A  
HETATM   42  C   UNL     1     -10.828  14.067  68.710  1.00  0.00    -0.263 A  
ENDBRANCH  31  34
ENDBRANCH   5  31
ENDBRANCH   4   5
TORSDOF 12
ENDMDL
MODEL      327
REMARK 921   NORMALIZED FREE ENERGY PREDICTED BY IDOCK:   -1.59 KCAL/MOL
REMARK 922        TOTAL FREE ENERGY PREDICTED BY IDOCK:   -5.51 KCAL/MOL
REMARK 923 INTER-LIGAND FREE ENERGY PREDICTED BY IDOCK:   -4.18 KCAL/MOL
REMARK 924 INTRA-LIGAND FREE ENERGY PREDICTED BY IDOCK:   -1.32 KCAL/MOL
REMARK 927      BINDING AFFINITY PREDICTED BY RF-SCORE:    0.00 PKD
ROOT
HETATM    1  C   UNL     1      -8.242  12.581  68.850  1.00  0.00     0.232 C  
HETATM    2  C   UNL     1      -9.505  11.736  68.881  1.00  0.00     0.055 C  
HETATM    3  C   UNL     1     -10.789  12.525  68.615  1.00  0.00    -0.280 C  
HETATM    4  C   UNL     1      -9.593  10.342  68.249  1.00  0.00    -0.144 C  
ENDROOT
BRANCH   4   5
HETATM    5  N   UNL     1      -8.903   9.835  67.027  1.00  0.00    -0.134 N  
BRANCH   5   6
HETATM    6  C   UNL     1      -7.549   9.227  67.502  1.00  0.00    -0.088 C  
BRANCH   6   7
HETATM    7  C   UNL     1      -7.628   7.809  68.232  1.00  0.00    -0.109 C  
BRANCH   7   8
HETATM    8  C   UNL     1      -8.626   7.858  69.492  1.00  0.00    -0.137 C  
BRANCH   8   9
HETATM    9  N   UNL     1      -9.078   6.520  69.915  1.00  0.00    -0.143 N  
HETATM   10  C   UNL     1     -10.346   6.319  70.397  1.00  0.00    -0.208 C  
HETATM   11  H   UNL     1      -8.436   5.730  69.848  1.00  0.00     0.000 HD 
HETATM   12  O   UNL     1     -11.224   7.162  70.473  1.00  0.00    -0.270 OA 
BRANCH  10  13
HETATM   13  O   UNL     1     -10.496   5.017  70.765  1.00  0.00    -0.227 OA 
BRANCH  13  14
HETATM   14  C   UNL     1      -9.964   4.688  72.061  1.00  0.00    -0.189 C  
HETATM   15  C   UNL     1     -10.525   5.529  73.185  1.00  0.00    -0.252 C  
HETATM   16  O   UNL     1     -10.615   3.276  73.885  1.00  0.00    -0.161 OA 
HETATM   17  C   UNL     1     -10.432   4.608  74.376  1.00  0.00    -0.282 C  
HETATM   18  C   UNL     1     -10.397   3.283  72.466  1.00  0.00    -0.112 C  
ENDBRANCH  13  14
ENDBRANCH  10  13
ENDBRANCH   8   9
BRANCH   8  19
HETATM   19  C   UNL     1      -8.194   8.705  70.712  1.00  0.00    -0.158 C  
BRANCH  19  20
HETATM   20  C   UNL     1      -7.696   7.976  71.931  1.00  0.00    -0.114 A  
HETATM   21  C   UNL     1      -7.782   7.548  74.317  1.00  0.00    -0.178 A  
HETATM   22  C   UNL     1      -5.971   6.649  72.996  1.00  0.00    -0.053 A  
HETATM   23  C   UNL     1      -6.520   7.221  71.850  1.00  0.00    -0.043 A  
HETATM   24  C   UNL     1      -8.328   8.129  73.173  1.00  0.00    -0.266 A  
HETATM   25  C   UNL     1      -6.600   6.814  74.229  1.00  0.00    -0.079 A  
ENDBRANCH  19  20
ENDBRANCH   8  19
ENDBRANCH   7   8
BRANCH   7  26
HETATM   26  O   UNL     1      -6.296   7.220  68.469  1.00  0.00    -0.034 OA 
HETATM   27  O   UNL     1      -5.750   4.193  67.335  1.00  0.00    -0.020 OA 
HETATM   28  O   UNL     1      -5.472   6.327  66.501  1.00  0.00    -0.012 OA 
HETATM   29  O   UNL     1      -7.548   5.407  67.420  1.00  0.00    -0.086 OA 
HETATM   30  P   UNL     1      -6.008   5.623  67.870  1.00  0.00    -0.019 P  
ENDBRANCH   7  26
ENDBRANCH   6   7
ENDBRANCH   5   6
BRANCH   5  31
HETATM   31  S   UNL     1      -9.572   8.875  65.782  1.00  0.00    -0.089 S  
HETATM   32  O   UNL     1     -10.242   9.732  64.826  1.00  0.00    -0.007 OA 
HETATM   33  O   UNL     1     -10.332   7.809  66.404  1.00  0.00    -0.154 OA 
BRANCH  31  34
HETATM   34  C   UNL     1      -8.277   8.100  64.886  1.00  0.00    -0.147 A  
HETATM   35  N   UNL     1      -5.260   6.427  62.522  1.00  0.00    -0.022 NA 
HETATM   36  C   UNL     1      -8.321   6.737  64.596  1.00  0.00     0.040 A  
HETATM   37  H1  UNL     1      -4.492   7.005  62.181  1.00  0.00     0.000 HD 
HETATM   38  H2  UNL     1      -5.714   5.992  61.718  1.00  0.00     0.000 HD 
HETATM   39  C   UNL     1      -7.323   8.921  64.282  1.00  0.00    -0.100 A  
HETATM   40  C   UNL     1      -6.318   8.360  63.510  1.00  0.00    -0.080 A  
HETATM   41  C   UNL     1      -7.309   6.183  63.809  1.00  0.00    -0.067 A  
HETATM   42  C   UNL     1      -6.253   6.976  63.341  1.00  0.00    -0.044 A  
ENDBRANCH  31  34
ENDBRANCH   5  31
ENDBRANCH   4   5
TORSDOF 12
ENDMDL
MODEL      328
REMARK 921   NORMALIZED FREE ENERGY PREDICTED BY IDOCK:   -1.51 KCAL/MOL
REMARK 922        TOTAL FREE ENERGY PREDICTED BY IDOCK:   -5.38 KCAL/MOL
REMARK 923 INTER-LIGAND FREE ENERGY PREDICTED BY IDOCK:   -5.80 KCAL/MOL
REMARK 924 INTRA-LIGAND FREE ENERGY PREDICTED BY IDOCK:    0.42 KCAL/MOL
REMARK 927      BINDING AFFINITY PREDICTED BY RF-SCORE:    0.00 PKD
ROOT
HETATM    1  C   UNL     1      -9.919  14.979  64.593  1.00  0.00     0.446 C  
HETATM    2  C   UNL     1     -10.721  16.135  65.167  1.00  0.00    -0.391 C  
HETATM    3  C   UNL     1     -12.224  15.862  65.269  1.00  0.00     1.036 C  
HETATM    4  C   UNL     1     -10.246  16.969  66.362  1.00  0.00    -0.326 C  
ENDROOT
BRANCH   4   5
HETATM    5  N   UNL     1      -9.446  16.525  67.541  1.00  0.00    -0.223 N  
BRANCH   5   6
HETATM    6  C   UNL     1      -9.509  14.968  67.558  1.00  0.00    -0.203 C  
BRANCH   6   7
HETATM    7  C   UNL     1      -9.260  14.266  68.971  1.00  0.00     0.044 C  
BRANCH   7   8
HETATM    8  C   UNL     1      -9.543  12.685  68.892  1.00  0.00     0.234 C  
BRANCH   8   9
HETATM    9  N   UNL     1     -10.308  12.299  67.693  1.00  0.00    -0.202 N  
HETATM   10  C   UNL     1     -11.443  11.535  67.789  1.00  0.00    -0.286 C  
HETATM   11  H   UNL     1      -9.987  12.606  66.774  1.00  0.00     0.000 HD 
HETATM   12  O   UNL     1     -11.962  11.155  68.825  1.00  0.00    -0.451 OA 
BRANCH  10  13
HETATM   13  O   UNL     1     -11.929  11.275  66.545  1.00  0.00    -0.139 OA 
BRANCH  13  14
HETATM   14  C   UNL     1     -11.206  11.900  65.469  1.00  0.00    -0.299 C  
HETATM   15  C   UNL     1     -10.368  10.939  64.657  1.00  0.00    -0.407 C  
HETATM   16  O   UNL     1     -11.577  12.276  63.132  1.00  0.00    -0.364 OA 
HETATM   17  C   UNL     1     -10.332  11.589  63.295  1.00  0.00    -0.384 C  
HETATM   18  C   UNL     1     -12.178  12.439  64.425  1.00  0.00    -0.437 C  
ENDBRANCH  13  14
ENDBRANCH  10  13
ENDBRANCH   8   9
BRANCH   8  19
HETATM   19  C   UNL     1      -8.343  11.733  69.110  1.00  0.00     0.312 C  
BRANCH  19  20
HETATM   20  C   UNL     1      -8.632  10.265  69.269  1.00  0.00    -0.175 A  
HETATM   21  C   UNL     1      -8.934   8.312  70.677  1.00  0.00    -0.161 A  
HETATM   22  C   UNL     1      -8.769   8.057  68.281  1.00  0.00    -0.130 A  
HETATM   23  C   UNL     1      -8.634   9.437  68.140  1.00  0.00    -0.120 A  
HETATM   24  C   UNL     1      -8.791   9.693  70.539  1.00  0.00    -0.169 A  
HETATM   25  C   UNL     1      -8.915   7.495  69.547  1.00  0.00    -0.143 A  
ENDBRANCH  19  20
ENDBRANCH   8  19
ENDBRANCH   7   8
BRANCH   7  26
HETATM   26  O   UNL     1      -9.898  14.994  70.084  1.00  0.00    -0.023 OA 
HETATM   27  O   UNL     1     -13.149  15.404  69.966  1.00  0.00    -0.098 OA 
HETATM   28  O   UNL     1     -11.733  13.808  70.846  1.00  0.00    -0.171 OA 
HETATM   29  O   UNL     1     -11.735  14.600  68.527  1.00  0.00    -0.298 OA 
HETATM   30  P   UNL     1     -11.613  15.210  70.022  1.00  0.00    -0.348 P  
ENDBRANCH   7  26
ENDBRANCH   6   7
ENDBRANCH   5   6
BRANCH   5  31
HETATM   31  S   UNL     1      -7.886  17.054  67.993  1.00  0.00    -0.188 S  
HETATM   32  O   UNL     1      -6.972  15.931  67.963  1.00  0.00    -0.116 OA 
HETATM   33  O   UNL     1      -8.013  17.806  69.226  1.00  0.00    -0.026 OA 
BRANCH  31  34
HETATM   34  C   UNL     1      -7.282  18.179  66.789  1.00  0.00    -0.206 A  
HETATM   35  N   UNL     1      -5.570  20.771  63.989  1.00  0.00    -0.225 NA 
HETATM   36  C   UNL     1      -7.481  19.553  66.927  1.00  0.00    -0.251 A  
HETATM   37  H1  UNL     1      -5.033  20.402  63.205  1.00  0.00     0.000 HD 
HETATM   38  H2  UNL     1      -4.976  21.422  64.504  1.00  0.00     0.000 HD 
HETATM   39  C   UNL     1      -6.410  17.685  65.818  1.00  0.00    -0.142 A  
HETATM   40  C   UNL     1      -5.855  18.547  64.885  1.00  0.00    -0.221 A  
HETATM   41  C   UNL     1      -6.910  20.413  65.986  1.00  0.00    -0.276 A  
HETATM   42  C   UNL     1      -6.173  19.906  64.908  1.00  0.00    -0.274 A  
ENDBRANCH  31  34
ENDBRANCH   5  31
ENDBRANCH   4   5
TORSDOF 12
ENDMDL
MODEL      329
REMARK 921   NORMALIZED FREE ENERGY PREDICTED BY IDOCK:   -1.25 KCAL/MOL
REMARK 922        TOTAL FREE ENERGY PREDICTED BY IDOCK:   -4.93 KCAL/MOL
REMARK 923 INTER-LIGAND FREE ENERGY PREDICTED BY IDOCK:   -5.84 KCAL/MOL
REMARK 924 INTRA-LIGAND FREE ENERGY PREDICTED BY IDOCK:    0.91 KCAL/MOL
REMARK 927      BINDING AFFINITY PREDICTED BY RF-SCORE:    0.00 PKD
ROOT
HETATM    1  C   UNL     1      -6.999  15.658  67.011  1.00  0.00    -0.073 C  
HETATM    2  C   UNL     1      -7.071  15.025  68.392  1.00  0.00    -0.108 C  
HETATM    3  C   UNL     1      -7.397  16.013  69.514  1.00  0.00    -0.146 C  
HETATM    4  C   UNL     1      -7.742  13.673  68.656  1.00  0.00    -0.107 C  
ENDROOT
BRANCH   4   5
HETATM    5  N   UNL     1      -8.930  13.080  67.975  1.00  0.00    -0.193 N  
BRANCH   5   6
HETATM    6  C   UNL     1      -9.334  11.824  68.804  1.00  0.00    -0.009 C  
BRANCH   6   7
HETATM    7  C   UNL     1      -8.253  10.652  68.885  1.00  0.00    -0.145 C  
BRANCH   7   8
HETATM    8  C   UNL     1      -8.114   9.891  67.475  1.00  0.00    -0.110 C  
BRANCH   8   9
HETATM    9  N   UNL     1      -7.105   8.816  67.502  1.00  0.00    -0.079 N  
HETATM   10  C   UNL     1      -5.881   8.975  66.903  1.00  0.00    -0.049 C  
HETATM   11  H   UNL     1      -7.320   7.939  67.976  1.00  0.00     0.000 HD 
HETATM   12  O   UNL     1      -5.479   9.989  66.357  1.00  0.00    -0.043 OA 
BRANCH  10  13
HETATM   13  O   UNL     1      -5.159   7.829  67.023  1.00  0.00    -0.025 OA 
BRANCH  13  14
HETATM   14  C   UNL     1      -5.836   6.636  66.589  1.00  0.00    -0.018 C  
HETATM   15  C   UNL     1      -5.457   6.189  65.196  1.00  0.00    -0.017 C  
HETATM   16  O   UNL     1      -5.365   4.286  66.591  1.00  0.00    -0.012 OA 
HETATM   17  C   UNL     1      -5.662   4.695  65.252  1.00  0.00    -0.014 C  
HETATM   18  C   UNL     1      -5.401   5.445  67.437  1.00  0.00    -0.008 C  
ENDBRANCH  13  14
ENDBRANCH  10  13
ENDBRANCH   8   9
BRANCH   8  19
HETATM   19  C   UNL     1      -9.415   9.408  66.792  1.00  0.00    -0.217 C  
BRANCH  19  20
HETATM   20  C   UNL     1      -9.499   9.510  65.293  1.00  0.00    -0.326 A  
HETATM   21  C   UNL     1      -8.897   8.705  63.085  1.00  0.00     0.211 A  
HETATM   22  C   UNL     1     -10.034  10.822  63.328  1.00  0.00    -0.369 A  
HETATM   23  C   UNL     1     -10.066  10.649  64.710  1.00  0.00    -0.412 A  
HETATM   24  C   UNL     1      -8.920   8.534  64.469  1.00  0.00     0.253 A  
HETATM   25  C   UNL     1      -9.447   9.853  62.516  1.00  0.00    -0.166 A  
ENDBRANCH  19  20
ENDBRANCH   8  19
ENDBRANCH   7   8
BRANCH   7  26
HETATM   26  O   UNL     1      -8.429   9.801  70.077  1.00  0.00    -0.190 OA 
HETATM   27  O   UNL     1     -11.446   8.685  70.714  1.00  0.00    -0.271 OA 
HETATM   28  O   UNL     1      -9.633   7.907  69.516  1.00  0.00    -0.160 OA 
HETATM   29  O   UNL     1     -10.702  10.093  69.237  1.00  0.00    -0.205 OA 
HETATM   30  P   UNL     1     -10.021   9.212  70.412  1.00  0.00    -0.256 P  
ENDBRANCH   7  26
ENDBRANCH   6   7
ENDBRANCH   5   6
BRANCH   5  31
HETATM   31  S   UNL     1     -10.327  13.898  67.428  1.00  0.00    -0.253 S  
HETATM   32  O   UNL     1     -11.098  13.012  66.581  1.00  0.00    -0.278 OA 
HETATM   33  O   UNL     1      -9.909  15.177  66.889  1.00  0.00    -0.229 OA 
BRANCH  31  34
HETATM   34  C   UNL     1     -11.364  14.255  68.798  1.00  0.00    -0.275 A  
HETATM   35  N   UNL     1     -14.054  14.961  71.921  1.00  0.00    -0.465 NA 
HETATM   36  C   UNL     1     -11.681  15.570  69.135  1.00  0.00    -0.380 A  
HETATM   37  H1  UNL     1     -14.456  14.182  72.442  1.00  0.00     0.000 HD 
HETATM   38  H2  UNL     1     -14.820  15.518  71.540  1.00  0.00     0.000 HD 
HETATM   39  C   UNL     1     -12.040  13.189  69.396  1.00  0.00    -0.285 A  
HETATM   40  C   UNL     1     -12.921  13.429  70.439  1.00  0.00     0.106 A  
HETATM   41  C   UNL     1     -12.577  15.800  70.181  1.00  0.00    -0.156 A  
HETATM   42  C   UNL     1     -13.128  14.730  70.898  1.00  0.00    -0.363 A  
ENDBRANCH  31  34
ENDBRANCH   5  31
ENDBRANCH   4   5
TORSDOF 12
ENDMDL
MODEL      330
REMARK 921   NORMALIZED FREE ENERGY PREDICTED BY IDOCK:   -0.68 KCAL/MOL
REMARK 922        TOTAL FREE ENERGY PREDICTED BY IDOCK:   -3.97 KCAL/MOL
REMARK 923 INTER-LIGAND FREE ENERGY PREDICTED BY IDOCK:   -4.28 KCAL/MOL
REMARK 924 INTRA-LIGAND FREE ENERGY PREDICTED BY IDOCK:    0.31 KCAL/MOL
REMARK 927      BINDING AFFINITY PREDICTED BY RF-SCORE:    0.00 PKD
ROOT
HETATM    1  C   UNL     1      -5.592   5.315  66.889  1.00  0.00    -0.017 C  
HETATM    2  C   UNL     1      -6.901   4.847  67.504  1.00  0.00    -0.060 C  
HETATM    3  C   UNL     1      -6.957   3.343  67.782  1.00  0.00    -0.050 C  
HETATM    4  C   UNL     1      -7.628   5.623  68.608  1.00  0.00    -0.088 C  
ENDROOT
BRANCH   4   5
HETATM    5  N   UNL     1      -7.038   6.443  69.707  1.00  0.00    -0.070 N  
BRANCH   5   6
HETATM    6  C   UNL     1      -7.617   7.880  69.547  1.00  0.00    -0.099 C  
BRANCH   6   7
HETATM    7  C   UNL     1      -9.206   8.014  69.617  1.00  0.00    -0.152 C  
BRANCH   7   8
HETATM    8  C   UNL     1      -9.770   8.901  68.399  1.00  0.00    -0.161 C  
BRANCH   8   9
HETATM    9  N   UNL     1      -8.749   9.795  67.822  1.00  0.00    -0.129 N  
HETATM   10  C   UNL     1      -8.857  11.158  67.928  1.00  0.00    -0.136 C  
HETATM   11  H   UNL     1      -7.948   9.392  67.336  1.00  0.00     0.000 HD 
HETATM   12  O   UNL     1      -9.729  11.761  68.531  1.00  0.00    -0.200 OA 
BRANCH  10  13
HETATM   13  O   UNL     1      -7.824  11.753  67.273  1.00  0.00    -0.144 OA 
BRANCH  13  14
HETATM   14  C   UNL     1      -7.305  12.937  67.906  1.00  0.00    -0.127 C  
HETATM   15  C   UNL     1      -7.129  12.803  69.401  1.00  0.00     0.186 C  
HETATM   16  O   UNL     1      -5.141  13.744  68.543  1.00  0.00    -0.080 OA 
HETATM   17  C   UNL     1      -5.991  13.751  69.694  1.00  0.00    -0.113 C  
HETATM   18  C   UNL     1      -5.878  13.201  67.438  1.00  0.00     0.022 C  
ENDBRANCH  13  14
ENDBRANCH  10  13
ENDBRANCH   8   9
BRANCH   8  19
HETATM   19  C   UNL     1     -10.554   8.168  67.285  1.00  0.00    -0.344 C  
BRANCH  19  20
HETATM   20  C   UNL     1      -9.816   7.142  66.468  1.00  0.00    -0.189 A  
HETATM   21  C   UNL     1      -8.175   6.574  64.774  1.00  0.00    -0.073 A  
HETATM   22  C   UNL     1      -9.669   4.876  65.622  1.00  0.00    -0.161 A  
HETATM   23  C   UNL     1     -10.254   5.813  66.472  1.00  0.00    -0.241 A  
HETATM   24  C   UNL     1      -8.766   7.515  65.618  1.00  0.00    -0.105 A  
HETATM   25  C   UNL     1      -8.633   5.257  64.772  1.00  0.00    -0.136 A  
ENDBRANCH  19  20
ENDBRANCH   8  19
ENDBRANCH   7   8
BRANCH   7  26
HETATM   26  O   UNL     1      -9.685   8.370  70.966  1.00  0.00    -0.161 OA 
HETATM   27  O   UNL     1     -12.912   8.203  71.525  1.00  0.00    -0.318 OA 
HETATM   28  O   UNL     1     -11.137   6.742  71.736  1.00  0.00    -0.230 OA 
HETATM   29  O   UNL     1     -11.741   7.979  69.710  1.00  0.00     0.241 OA 
HETATM   30  P   UNL     1     -11.388   8.281  71.261  1.00  0.00    -0.287 P  
ENDBRANCH   7  26
ENDBRANCH   6   7
ENDBRANCH   5   6
BRANCH   5  31
HETATM   31  S   UNL     1      -6.930   6.034  71.362  1.00  0.00    -0.074 S  
HETATM   32  O   UNL     1      -5.932   4.999  71.535  1.00  0.00    -0.019 OA 
HETATM   33  O   UNL     1      -8.273   5.784  71.846  1.00  0.00    -0.116 OA 
BRANCH  31  34
HETATM   34  C   UNL     1      -6.330   7.415  72.263  1.00  0.00    -0.043 A  
HETATM   35  N   UNL     1      -5.184  10.778  74.469  1.00  0.00    -0.359 NA 
HETATM   36  C   UNL     1      -5.612   8.429  71.630  1.00  0.00    -0.037 A  
HETATM   37  H1  UNL     1      -5.408  10.846  75.462  1.00  0.00     0.000 HD 
HETATM   38  H2  UNL     1      -5.574  11.595  73.998  1.00  0.00     0.000 HD 
HETATM   39  C   UNL     1      -6.783   7.582  73.574  1.00  0.00    -0.079 A  
HETATM   40  C   UNL     1      -6.390   8.693  74.304  1.00  0.00    -0.139 A  
HETATM   41  C   UNL     1      -5.228   9.547  72.373  1.00  0.00    -0.068 A  
HETATM   42  C   UNL     1      -5.536   9.640  73.736  1.00  0.00     0.076 A  
ENDBRANCH  31  34
ENDBRANCH   5  31
ENDBRANCH   4   5
TORSDOF 12
ENDMDL
MODEL      331
REMARK 921   NORMALIZED FREE ENERGY PREDICTED BY IDOCK:   -0.66 KCAL/MOL
REMARK 922        TOTAL FREE ENERGY PREDICTED BY IDOCK:   -3.92 KCAL/MOL
REMARK 923 INTER-LIGAND FREE ENERGY PREDICTED BY IDOCK:   -5.14 KCAL/MOL
REMARK 924 INTRA-LIGAND FREE ENERGY PREDICTED BY IDOCK:    1.22 KCAL/MOL
REMARK 927      BINDING AFFINITY PREDICTED BY RF-SCORE:    0.00 PKD
ROOT
HETATM    1  C   UNL     1      -5.801   5.511  67.009  1.00  0.00    -0.018 C  
HETATM    2  C   UNL     1      -7.012   4.928  67.718  1.00  0.00    -0.061 C  
HETATM    3  C   UNL     1      -6.890   3.436  68.037  1.00  0.00    -0.050 C  
HETATM    4  C   UNL     1      -7.750   5.658  68.846  1.00  0.00    -0.089 C  
ENDROOT
BRANCH   4   5
HETATM    5  N   UNL     1      -7.186   6.571  69.883  1.00  0.00    -0.074 N  
BRANCH   5   6
HETATM    6  C   UNL     1      -8.134   7.805  69.949  1.00  0.00    -0.120 C  
BRANCH   6   7
HETATM    7  C   UNL     1      -9.507   7.602  70.738  1.00  0.00    -0.162 C  
BRANCH   7   8
HETATM    8  C   UNL     1     -10.707   7.232  69.733  1.00  0.00    -0.239 C  
BRANCH   8   9
HETATM    9  N   UNL     1     -10.433   7.637  68.342  1.00  0.00    -0.268 N  
HETATM   10  C   UNL     1     -10.645   8.926  67.923  1.00  0.00    -0.183 C  
HETATM   11  H   UNL     1     -10.079   6.947  67.680  1.00  0.00     0.000 HD 
HETATM   12  O   UNL     1     -11.008   9.855  68.625  1.00  0.00    -0.225 OA 
BRANCH  10  13
HETATM   13  O   UNL     1     -10.369   9.028  66.595  1.00  0.00    -0.263 OA 
BRANCH  13  14
HETATM   14  C   UNL     1      -9.146   9.718  66.281  1.00  0.00    -0.157 C  
HETATM   15  C   UNL     1      -7.976   8.799  66.011  1.00  0.00    -0.107 C  
HETATM   16  O   UNL     1      -8.018  10.407  64.282  1.00  0.00    -0.151 OA 
HETATM   17  C   UNL     1      -7.124   9.606  65.062  1.00  0.00    -0.116 C  
HETATM   18  C   UNL     1      -9.284  10.458  64.955  1.00  0.00    -0.221 C  
ENDBRANCH  13  14
ENDBRANCH  10  13
ENDBRANCH   8   9
BRANCH   8  19
HETATM   19  C   UNL     1     -11.266   5.791  69.788  1.00  0.00    -0.179 C  
BRANCH  19  20
HETATM   20  C   UNL     1     -10.700   4.858  70.825  1.00  0.00     0.057 A  
HETATM   21  C   UNL     1      -9.413   2.889  71.415  1.00  0.00    -0.216 A  
HETATM   22  C   UNL     1     -10.723   4.021  73.098  1.00  0.00    -0.272 A  
HETATM   23  C   UNL     1     -11.133   4.958  72.152  1.00  0.00     0.004 A  
HETATM   24  C   UNL     1      -9.830   3.820  70.464  1.00  0.00    -0.147 A  
HETATM   25  C   UNL     1      -9.866   2.986  72.730  1.00  0.00    -0.197 A  
ENDBRANCH  19  20
ENDBRANCH   8  19
ENDBRANCH   7   8
BRANCH   7  26
HETATM   26  O   UNL     1      -9.769   8.684  71.706  1.00  0.00    -0.236 OA 
HETATM   27  O   UNL     1     -12.894   9.301  72.483  1.00  0.00    -0.370 OA 
HETATM   28  O   UNL     1     -11.235   7.940  73.334  1.00  0.00    -0.275 OA 
HETATM   29  O   UNL     1     -12.000   7.984  71.007  1.00  0.00    -0.296 OA 
HETATM   30  P   UNL     1     -11.418   9.009  72.116  1.00  0.00     0.025 P  
ENDBRANCH   7  26
ENDBRANCH   6   7
ENDBRANCH   5   6
BRANCH   5  31
HETATM   31  S   UNL     1      -6.654   6.154  71.452  1.00  0.00    -0.052 S  
HETATM   32  O   UNL     1      -5.460   5.340  71.351  1.00  0.00    -0.008 OA 
HETATM   33  O   UNL     1      -7.790   5.625  72.179  1.00  0.00    -0.100 OA 
BRANCH  31  34
HETATM   34  C   UNL     1      -6.157   7.607  72.302  1.00  0.00    -0.040 A  
HETATM   35  N   UNL     1      -5.262  11.124  74.380  1.00  0.00    -0.342 NA 
HETATM   36  C   UNL     1      -5.501   8.640  71.634  1.00  0.00    -0.041 A  
HETATM   37  H1  UNL     1      -5.501  11.215  75.367  1.00  0.00     0.000 HD 
HETATM   38  H2  UNL     1      -5.700  11.894  73.873  1.00  0.00     0.000 HD 
HETATM   39  C   UNL     1      -6.635   7.795  73.600  1.00  0.00    -0.097 A  
HETATM   40  C   UNL     1      -6.325   8.958  74.288  1.00  0.00    -0.064 A  
HETATM   41  C   UNL     1      -5.201   9.811  72.334  1.00  0.00    -0.021 A  
HETATM   42  C   UNL     1      -5.529   9.937  73.690  1.00  0.00     0.228 A  
ENDBRANCH  31  34
ENDBRANCH   5  31
ENDBRANCH   4   5
TORSDOF 12
ENDMDL
MODEL      332
REMARK 921   NORMALIZED FREE ENERGY PREDICTED BY IDOCK:   -0.55 KCAL/MOL
REMARK 922        TOTAL FREE ENERGY PREDICTED BY IDOCK:   -3.74 KCAL/MOL
REMARK 923 INTER-LIGAND FREE ENERGY PREDICTED BY IDOCK:   -6.48 KCAL/MOL
REMARK 924 INTRA-LIGAND FREE ENERGY PREDICTED BY IDOCK:    2.74 KCAL/MOL
REMARK 927      BINDING AFFINITY PREDICTED BY RF-SCORE:    0.00 PKD
ROOT
HETATM    1  C   UNL     1      -7.337   2.610  66.700  1.00  0.00    -0.069 C  
HETATM    2  C   UNL     1      -6.729   2.589  68.093  1.00  0.00    -0.039 C  
HETATM    3  C   UNL     1      -5.225   2.870  68.121  1.00  0.00    -0.012 C  
HETATM    4  C   UNL     1      -7.415   3.218  69.311  1.00  0.00    -0.048 C  
ENDROOT
BRANCH   4   5
HETATM    5  N   UNL     1      -8.281   4.432  69.362  1.00  0.00    -0.063 N  
BRANCH   5   6
HETATM    6  C   UNL     1      -8.618   4.799  67.886  1.00  0.00    -0.103 C  
BRANCH   6   7
HETATM    7  C   UNL     1      -9.111   6.294  67.624  1.00  0.00    -0.117 C  
BRANCH   7   8
HETATM    8  C   UNL     1      -9.155   6.625  66.050  1.00  0.00    -0.077 C  
BRANCH   8   9
HETATM    9  N   UNL     1      -9.044   8.067  65.766  1.00  0.00    -0.362 N  
HETATM   10  C   UNL     1      -9.843   8.981  66.405  1.00  0.00    -0.286 C  
HETATM   11  H   UNL     1      -8.360   8.391  65.082  1.00  0.00     0.000 HD 
HETATM   12  O   UNL     1     -10.654   8.732  67.281  1.00  0.00    -0.286 OA 
BRANCH  10  13
HETATM   13  O   UNL     1      -9.582  10.229  65.931  1.00  0.00    -0.183 OA 
BRANCH  13  14
HETATM   14  C   UNL     1     -10.350  10.611  64.775  1.00  0.00    -0.283 C  
HETATM   15  C   UNL     1     -11.032  11.954  64.910  1.00  0.00    -0.367 C  
HETATM   16  O   UNL     1      -9.965  11.919  62.804  1.00  0.00    -0.166 OA 
HETATM   17  C   UNL     1     -11.114  12.437  63.483  1.00  0.00    -0.458 C  
HETATM   18  C   UNL     1      -9.427  10.840  63.583  1.00  0.00    -0.291 C  
ENDBRANCH  13  14
ENDBRANCH  10  13
ENDBRANCH   8   9
BRANCH   8  19
HETATM   19  C   UNL     1      -8.226   5.807  65.122  1.00  0.00    -0.140 C  
BRANCH  19  20
HETATM   20  C   UNL     1      -8.826   4.643  64.380  1.00  0.00    -0.152 A  
HETATM   21  C   UNL     1      -8.826   3.115  62.496  1.00  0.00    -0.081 A  
HETATM   22  C   UNL     1     -10.711   3.168  64.005  1.00  0.00    -0.088 A  
HETATM   23  C   UNL     1     -10.081   4.156  64.760  1.00  0.00    -0.204 A  
HETATM   24  C   UNL     1      -8.198   4.110  63.246  1.00  0.00    -0.088 A  
HETATM   25  C   UNL     1     -10.085   2.651  62.872  1.00  0.00    -0.105 A  
ENDBRANCH  19  20
ENDBRANCH   8  19
ENDBRANCH   7   8
BRANCH   7  26
HETATM   26  O   UNL     1      -8.423   7.276  68.483  1.00  0.00    -0.124 OA 
HETATM   27  O   UNL     1      -5.148   7.365  68.367  1.00  0.00    -0.022 OA 
HETATM   28  O   UNL     1      -6.854   8.439  67.244  1.00  0.00    -0.068 OA 
HETATM   29  O   UNL     1      -6.595   6.014  67.474  1.00  0.00    -0.052 OA 
HETATM   30  P   UNL     1      -6.695   7.323  68.421  1.00  0.00    -0.056 P  
ENDBRANCH   7  26
ENDBRANCH   6   7
ENDBRANCH   5   6
BRANCH   5  31
HETATM   31  S   UNL     1      -9.646   4.690  70.357  1.00  0.00    -0.219 S  
HETATM   32  O   UNL     1      -9.999   3.450  71.016  1.00  0.00    -0.128 OA 
HETATM   33  O   UNL     1     -10.654   5.360  69.561  1.00  0.00    -0.292 OA 
BRANCH  31  34
HETATM   34  C   UNL     1      -9.220   5.800  71.649  1.00  0.00    -0.146 A  
HETATM   35  N   UNL     1      -8.181   8.655  74.522  1.00  0.00    -0.417 NA 
HETATM   36  C   UNL     1      -8.070   5.605  72.412  1.00  0.00    -0.107 A  
HETATM   37  H1  UNL     1      -8.773   9.471  74.677  1.00  0.00     0.000 HD 
HETATM   38  H2  UNL     1      -7.241   8.982  74.297  1.00  0.00     0.000 HD 
HETATM   39  C   UNL     1      -9.937   6.995  71.741  1.00  0.00    -0.187 A  
HETATM   40  C   UNL     1      -9.595   7.932  72.704  1.00  0.00    -0.290 A  
HETATM   41  C   UNL     1      -7.730   6.560  73.373  1.00  0.00    -0.092 A  
HETATM   42  C   UNL     1      -8.543   7.681  73.586  1.00  0.00    -0.213 A  
ENDBRANCH  31  34
ENDBRANCH   5  31
ENDBRANCH   4   5
TORSDOF 12
ENDMDL
MODEL      333
REMARK 921   NORMALIZED FREE ENERGY PREDICTED BY IDOCK:   -0.53 KCAL/MOL
REMARK 922        TOTAL FREE ENERGY PREDICTED BY IDOCK:   -3.71 KCAL/MOL
REMARK 923 INTER-LIGAND FREE ENERGY PREDICTED BY IDOCK:   -5.56 KCAL/MOL
REMARK 924 INTRA-LIGAND FREE ENERGY PREDICTED BY IDOCK:    1.85 KCAL/MOL
REMARK 927      BINDING AFFINITY PREDICTED BY RF-SCORE:    0.00 PKD
ROOT
HETATM    1  C   UNL     1     -12.336  14.779  65.986  1.00  0.00     0.020 C  
HETATM    2  C   UNL     1     -10.999  14.689  66.703  1.00  0.00    -0.323 C  
HETATM    3  C   UNL     1     -10.799  15.751  67.786  1.00  0.00    -0.316 C  
HETATM    4  C   UNL     1     -10.372  13.359  67.136  1.00  0.00    -0.246 C  
ENDROOT
BRANCH   4   5
HETATM    5  N   UNL     1     -11.061  12.117  67.594  1.00  0.00    -0.251 N  
BRANCH   5   6
HETATM    6  C   UNL     1     -10.557  10.965  66.673  1.00  0.00    -0.249 C  
BRANCH   6   7
HETATM    7  C   UNL     1      -8.982  10.902  66.419  1.00  0.00    -0.175 C  
BRANCH   7   8
HETATM    8  C   UNL     1      -8.162  11.352  67.727  1.00  0.00    -0.125 C  
BRANCH   8   9
HETATM    9  N   UNL     1      -7.908  10.235  68.655  1.00  0.00    -0.096 N  
HETATM   10  C   UNL     1      -7.079   9.199  68.308  1.00  0.00    -0.077 C  
HETATM   11  H   UNL     1      -8.356  10.233  69.571  1.00  0.00     0.000 HD 
HETATM   12  O   UNL     1      -6.440   9.110  67.273  1.00  0.00    -0.059 OA 
BRANCH  10  13
HETATM   13  O   UNL     1      -7.052   8.277  69.309  1.00  0.00    -0.057 OA 
BRANCH  13  14
HETATM   14  C   UNL     1      -6.273   8.652  70.459  1.00  0.00    -0.036 C  
HETATM   15  C   UNL     1      -7.094   9.207  71.600  1.00  0.00     0.066 C  
HETATM   16  O   UNL     1      -5.617   7.607  72.513  1.00  0.00    -0.037 OA 
HETATM   17  C   UNL     1      -6.277   8.841  72.815  1.00  0.00    -0.030 C  
HETATM   18  C   UNL     1      -5.640   7.417  71.091  1.00  0.00    -0.031 C  
ENDBRANCH  13  14
ENDBRANCH  10  13
ENDBRANCH   8   9
BRANCH   8  19
HETATM   19  C   UNL     1      -6.882  12.194  67.514  1.00  0.00    -0.127 C  
BRANCH  19  20
HETATM   20  C   UNL     1      -6.706  13.428  68.357  1.00  0.00    -0.096 A  
HETATM   21  C   UNL     1      -7.629  15.392  69.443  1.00  0.00    -0.224 A  
HETATM   22  C   UNL     1      -5.235  15.103  69.305  1.00  0.00    -0.091 A  
HETATM   23  C   UNL     1      -5.417  13.892  68.640  1.00  0.00    -0.087 A  
HETATM   24  C   UNL     1      -7.813  14.183  68.769  1.00  0.00    -0.114 A  
HETATM   25  C   UNL     1      -6.339  15.854  69.702  1.00  0.00    -0.186 A  
ENDBRANCH  19  20
ENDBRANCH   8  19
ENDBRANCH   7   8
BRANCH   7  26
HETATM   26  O   UNL     1      -8.588  11.536  65.146  1.00  0.00     0.152 OA 
HETATM   27  O   UNL     1     -10.305  10.753  62.465  1.00  0.00     0.138 OA 
HETATM   28  O   UNL     1     -10.458  12.390  64.085  1.00  0.00    -0.335 OA 
HETATM   29  O   UNL     1     -10.347   9.976  64.492  1.00  0.00    -0.032 OA 
HETATM   30  P   UNL     1      -9.494  11.123  63.731  1.00  0.00    -0.206 P  
ENDBRANCH   7  26
ENDBRANCH   6   7
ENDBRANCH   5   6
BRANCH   5  31
HETATM   31  S   UNL     1     -11.227  11.555  69.199  1.00  0.00    -0.292 S  
HETATM   32  O   UNL     1      -9.935  11.585  69.852  1.00  0.00     0.740 OA 
HETATM   33  O   UNL     1     -11.949  10.299  69.156  1.00  0.00    -0.073 OA 
BRANCH  31  34
HETATM   34  C   UNL     1     -12.233  12.672  70.104  1.00  0.00    -0.238 A  
HETATM   35  N   UNL     1     -14.399  15.522  72.266  1.00  0.00    -0.547 NA 
HETATM   36  C   UNL     1     -12.716  12.340  71.369  1.00  0.00    -0.351 A  
HETATM   37  H1  UNL     1     -14.590  16.440  71.863  1.00  0.00     0.000 HD 
HETATM   38  H2  UNL     1     -13.917  15.658  73.155  1.00  0.00     0.000 HD 
HETATM   39  C   UNL     1     -12.346  13.979  69.625  1.00  0.00    -0.309 A  
HETATM   40  C   UNL     1     -13.076  14.916  70.340  1.00  0.00    -0.206 A  
HETATM   41  C   UNL     1     -13.442  13.294  72.085  1.00  0.00    -0.655 A  
HETATM   42  C   UNL     1     -13.704  14.555  71.532  1.00  0.00    -0.397 A  
ENDBRANCH  31  34
ENDBRANCH   5  31
ENDBRANCH   4   5
TORSDOF 12
ENDMDL
MODEL      334
REMARK 921   NORMALIZED FREE ENERGY PREDICTED BY IDOCK:   -0.48 KCAL/MOL
REMARK 922        TOTAL FREE ENERGY PREDICTED BY IDOCK:   -3.62 KCAL/MOL
REMARK 923 INTER-LIGAND FREE ENERGY PREDICTED BY IDOCK:   -5.44 KCAL/MOL
REMARK 924 INTRA-LIGAND FREE ENERGY PREDICTED BY IDOCK:    1.82 KCAL/MOL
REMARK 927      BINDING AFFINITY PREDICTED BY RF-SCORE:    0.00 PKD
ROOT
HETATM    1  C   UNL     1      -8.340   9.818  70.903  1.00  0.00     0.421 C  
HETATM    2  C   UNL     1      -7.763   8.580  71.569  1.00  0.00    -0.146 C  
HETATM    3  C   UNL     1      -8.746   7.851  72.488  1.00  0.00    -0.209 C  
HETATM    4  C   UNL     1      -6.872   7.574  70.832  1.00  0.00    -0.047 C  
ENDROOT
BRANCH   4   5
HETATM    5  N   UNL     1      -6.929   7.164  69.398  1.00  0.00    -0.060 N  
BRANCH   5   6
HETATM    6  C   UNL     1      -7.345   5.663  69.383  1.00  0.00    -0.070 C  
BRANCH   6   7
HETATM    7  C   UNL     1      -8.612   5.272  70.273  1.00  0.00    -0.121 C  
BRANCH   7   8
HETATM    8  C   UNL     1      -9.932   6.047  69.778  1.00  0.00    -0.175 C  
BRANCH   8   9
HETATM    9  N   UNL     1     -10.223   5.826  68.350  1.00  0.00    -0.174 N  
HETATM   10  C   UNL     1     -10.132   4.577  67.791  1.00  0.00     0.003 C  
HETATM   11  H   UNL     1     -10.498   6.617  67.767  1.00  0.00     0.000 HD 
HETATM   12  O   UNL     1      -9.872   3.545  68.386  1.00  0.00    -0.057 OA 
BRANCH  10  13
HETATM   13  O   UNL     1     -10.397   4.650  66.458  1.00  0.00    -0.252 OA 
BRANCH  13  14
HETATM   14  C   UNL     1      -9.237   4.627  65.606  1.00  0.00    -0.151 C  
HETATM   15  C   UNL     1      -8.287   3.488  65.897  1.00  0.00    -0.106 C  
HETATM   16  O   UNL     1      -8.621   3.544  63.560  1.00  0.00    -0.090 OA 
HETATM   17  C   UNL     1      -7.640   3.236  64.556  1.00  0.00    -0.076 C  
HETATM   18  C   UNL     1      -9.648   4.343  64.166  1.00  0.00    -0.061 C  
ENDBRANCH  13  14
ENDBRANCH  10  13
ENDBRANCH   8   9
BRANCH   8  19
HETATM   19  C   UNL     1     -11.213   5.893  70.632  1.00  0.00    -0.284 C  
BRANCH  19  20
HETATM   20  C   UNL     1     -11.978   7.141  70.980  1.00  0.00    -0.387 A  
HETATM   21  C   UNL     1     -14.045   8.245  71.607  1.00  0.00    -0.489 A  
HETATM   22  C   UNL     1     -12.126   9.559  70.959  1.00  0.00    -0.398 A  
HETATM   23  C   UNL     1     -11.388   8.393  70.768  1.00  0.00    -0.290 A  
HETATM   24  C   UNL     1     -13.311   7.075  71.408  1.00  0.00    -0.335 A  
HETATM   25  C   UNL     1     -13.454   9.486  71.374  1.00  0.00    -0.405 A  
ENDBRANCH  19  20
ENDBRANCH   8  19
ENDBRANCH   7   8
BRANCH   7  26
HETATM   26  O   UNL     1      -8.325   5.319  71.719  1.00  0.00    -0.115 OA 
HETATM   27  O   UNL     1      -8.486   2.504  73.392  1.00  0.00    -0.066 OA 
HETATM   28  O   UNL     1      -6.823   3.650  72.274  1.00  0.00    -0.031 OA 
HETATM   29  O   UNL     1      -8.994   3.003  71.341  1.00  0.00    -0.083 OA 
HETATM   30  P   UNL     1      -8.410   3.834  72.601  1.00  0.00    -0.091 P  
ENDBRANCH   7  26
ENDBRANCH   6   7
ENDBRANCH   5   6
BRANCH   5  31
HETATM   31  S   UNL     1      -7.684   7.996  68.111  1.00  0.00    -0.120 S  
HETATM   32  O   UNL     1      -9.041   8.331  68.489  1.00  0.00    -0.137 OA 
HETATM   33  O   UNL     1      -7.475   7.225  66.902  1.00  0.00    -0.092 OA 
BRANCH  31  34
HETATM   34  C   UNL     1      -6.877   9.534  67.861  1.00  0.00    -0.074 A  
HETATM   35  N   UNL     1      -5.200  13.296  67.132  1.00  0.00    -0.269 NA 
HETATM   36  C   UNL     1      -5.733   9.624  67.069  1.00  0.00    -0.051 A  
HETATM   37  H1  UNL     1      -5.610  14.133  67.546  1.00  0.00     0.000 HD 
HETATM   38  H2  UNL     1      -5.171  13.422  66.120  1.00  0.00     0.000 HD 
HETATM   39  C   UNL     1      -7.535  10.690  68.287  1.00  0.00    -0.091 A  
HETATM   40  C   UNL     1      -6.968  11.933  68.053  1.00  0.00    -0.078 A  
HETATM   41  C   UNL     1      -5.175  10.882  66.832  1.00  0.00    -0.056 A  
HETATM   42  C   UNL     1      -5.738  12.033  67.401  1.00  0.00    -0.123 A  
ENDBRANCH  31  34
ENDBRANCH   5  31
ENDBRANCH   4   5
TORSDOF 12
ENDMDL
MODEL      335
REMARK 921   NORMALIZED FREE ENERGY PREDICTED BY IDOCK:   -0.36 KCAL/MOL
REMARK 922        TOTAL FREE ENERGY PREDICTED BY IDOCK:   -3.43 KCAL/MOL
REMARK 923 INTER-LIGAND FREE ENERGY PREDICTED BY IDOCK:   -2.73 KCAL/MOL
REMARK 924 INTRA-LIGAND FREE ENERGY PREDICTED BY IDOCK:   -0.69 KCAL/MOL
REMARK 927      BINDING AFFINITY PREDICTED BY RF-SCORE:    0.00 PKD
ROOT
HETATM    1  C   UNL     1     -10.939  14.073  69.034  1.00  0.00    -0.287 C  
HETATM    2  C   UNL     1     -12.138  13.459  68.330  1.00  0.00    -0.270 C  
HETATM    3  C   UNL     1     -12.541  14.179  67.042  1.00  0.00     0.128 C  
HETATM    4  C   UNL     1     -12.334  11.946  68.182  1.00  0.00     0.629 C  
ENDROOT
BRANCH   4   5
HETATM    5  N   UNL     1     -11.293  10.890  68.012  1.00  0.00    -0.310 N  
BRANCH   5   6
HETATM    6  C   UNL     1     -11.538   9.842  69.139  1.00  0.00     0.205 C  
BRANCH   6   7
HETATM    7  C   UNL     1     -10.519   9.873  70.367  1.00  0.00    -0.285 C  
BRANCH   7   8
HETATM    8  C   UNL     1      -9.636   8.530  70.425  1.00  0.00    -0.172 C  
BRANCH   8   9
HETATM    9  N   UNL     1     -10.098   7.586  71.458  1.00  0.00    -0.181 N  
HETATM   10  C   UNL     1      -9.285   7.218  72.499  1.00  0.00    -0.139 C  
HETATM   11  H   UNL     1     -11.040   7.199  71.397  1.00  0.00     0.000 HD 
HETATM   12  O   UNL     1      -8.165   7.649  72.718  1.00  0.00    -0.106 OA 
BRANCH  10  13
HETATM   13  O   UNL     1      -9.922   6.303  73.279  1.00  0.00    -0.165 OA 
BRANCH  13  14
HETATM   14  C   UNL     1     -10.477   5.181  72.569  1.00  0.00    -0.214 C  
HETATM   15  C   UNL     1      -9.439   4.297  71.916  1.00  0.00    -0.201 C  
HETATM   16  O   UNL     1     -10.941   2.883  73.065  1.00  0.00    -0.130 OA 
HETATM   17  C   UNL     1     -10.107   2.943  71.904  1.00  0.00    -0.084 C  
HETATM   18  C   UNL     1     -11.149   4.220  73.544  1.00  0.00    -0.290 C  
ENDBRANCH  13  14
ENDBRANCH  10  13
ENDBRANCH   8   9
BRANCH   8  19
HETATM   19  C   UNL     1      -9.363   7.797  69.090  1.00  0.00    -0.151 C  
BRANCH  19  20
HETATM   20  C   UNL     1      -7.928   7.588  68.686  1.00  0.00    -0.123 A  
HETATM   21  C   UNL     1      -6.089   6.113  68.115  1.00  0.00    -0.024 A  
HETATM   22  C   UNL     1      -5.677   8.462  68.495  1.00  0.00    -0.037 A  
HETATM   23  C   UNL     1      -7.034   8.663  68.737  1.00  0.00    -0.063 A  
HETATM   24  C   UNL     1      -7.447   6.311  68.365  1.00  0.00    -0.088 A  
HETATM   25  C   UNL     1      -5.204   7.187  68.187  1.00  0.00    -0.020 A  
ENDBRANCH  19  20
ENDBRANCH   8  19
ENDBRANCH   7   8
BRANCH   7  26
HETATM   26  O   UNL     1     -11.163  10.291  71.627  1.00  0.00     0.109 OA 
HETATM   27  O   UNL     1     -14.396   9.820  71.908  1.00  0.00     0.098 OA 
HETATM   28  O   UNL     1     -12.512   8.587  72.419  1.00  0.00    -0.373 OA 
HETATM   29  O   UNL     1     -13.034   9.568  70.236  1.00  0.00     0.259 OA 
HETATM   30  P   UNL     1     -12.869  10.042  71.775  1.00  0.00    -0.435 P  
ENDBRANCH   7  26
ENDBRANCH   6   7
ENDBRANCH   5   6
BRANCH   5  31
HETATM   31  S   UNL     1     -10.842  10.102  66.565  1.00  0.00     0.123 S  
HETATM   32  O   UNL     1     -11.521  10.727  65.449  1.00  0.00     0.399 OA 
HETATM   33  O   UNL     1     -11.012   8.677  66.765  1.00  0.00    -0.010 OA 
BRANCH  31  34
HETATM   34  C   UNL     1      -9.130  10.359  66.273  1.00  0.00    -0.158 A  
HETATM   35  N   UNL     1      -5.126  11.211  65.420  1.00  0.00    -0.395 NA 
HETATM   36  C   UNL     1      -8.374   9.424  65.568  1.00  0.00    -0.139 A  
HETATM   37  H1  UNL     1      -4.703  12.082  65.743  1.00  0.00     0.000 HD 
HETATM   38  H2  UNL     1      -5.016  11.160  64.407  1.00  0.00     0.000 HD 
HETATM   39  C   UNL     1      -8.604  11.619  66.567  1.00  0.00    -0.164 A  
HETATM   40  C   UNL     1      -7.272  11.891  66.293  1.00  0.00     0.463 A  
HETATM   41  C   UNL     1      -7.036   9.712  65.289  1.00  0.00    -0.109 A  
HETATM   42  C   UNL     1      -6.455  10.908  65.733  1.00  0.00    -0.022 A  
ENDBRANCH  31  34
ENDBRANCH   5  31
ENDBRANCH   4   5
TORSDOF 12
ENDMDL
MODEL      336
REMARK 921   NORMALIZED FREE ENERGY PREDICTED BY IDOCK:   -0.32 KCAL/MOL
REMARK 922        TOTAL FREE ENERGY PREDICTED BY IDOCK:   -3.35 KCAL/MOL
REMARK 923 INTER-LIGAND FREE ENERGY PREDICTED BY IDOCK:   -4.50 KCAL/MOL
REMARK 924 INTRA-LIGAND FREE ENERGY PREDICTED BY IDOCK:    1.15 KCAL/MOL
REMARK 927      BINDING AFFINITY PREDICTED BY RF-SCORE:    0.00 PKD
ROOT
HETATM    1  C   UNL     1     -10.812  14.088  69.110  1.00  0.00    -0.235 C  
HETATM    2  C   UNL     1     -11.968  13.365  68.437  1.00  0.00    -0.359 C  
HETATM    3  C   UNL     1     -12.408  13.992  67.113  1.00  0.00    -0.234 C  
HETATM    4  C   UNL     1     -12.070  11.838  68.367  1.00  0.00    -0.029 C  
ENDROOT
BRANCH   4   5
HETATM    5  N   UNL     1     -10.965  10.840  68.253  1.00  0.00    -0.234 N  
BRANCH   5   6
HETATM    6  C   UNL     1     -11.282   9.710  69.278  1.00  0.00    -0.047 C  
BRANCH   6   7
HETATM    7  C   UNL     1     -10.326   9.623  70.553  1.00  0.00    -0.295 C  
BRANCH   7   8
HETATM    8  C   UNL     1      -9.580   8.200  70.626  1.00  0.00    -0.166 C  
BRANCH   8   9
HETATM    9  N   UNL     1      -9.598   7.479  69.341  1.00  0.00    -0.155 N  
HETATM   10  C   UNL     1     -10.114   6.212  69.244  1.00  0.00    -0.174 C  
HETATM   11  H   UNL     1      -9.220   7.931  68.508  1.00  0.00     0.000 HD 
HETATM   12  O   UNL     1     -10.645   5.586  70.146  1.00  0.00    -0.285 OA 
BRANCH  10  13
HETATM   13  O   UNL     1      -9.965   5.751  67.973  1.00  0.00    -0.127 OA 
BRANCH  13  14
HETATM   14  C   UNL     1      -9.536   4.381  67.870  1.00  0.00    -0.152 C  
HETATM   15  C   UNL     1      -8.135   4.218  67.326  1.00  0.00    -0.100 C  
HETATM   16  O   UNL     1      -8.307   2.850  69.244  1.00  0.00    -0.057 OA 
HETATM   17  C   UNL     1      -7.673   2.929  67.963  1.00  0.00    -0.056 C  
HETATM   18  C   UNL     1      -9.416   3.762  69.258  1.00  0.00    -0.182 C  
ENDBRANCH  13  14
ENDBRANCH  10  13
ENDBRANCH   8   9
BRANCH   8  19
HETATM   19  C   UNL     1      -8.169   8.165  71.258  1.00  0.00    -0.132 C  
BRANCH  19  20
HETATM   20  C   UNL     1      -7.742   6.898  71.949  1.00  0.00    -0.094 A  
HETATM   21  C   UNL     1      -7.741   5.453  73.898  1.00  0.00    -0.098 A  
HETATM   22  C   UNL     1      -6.249   4.993  72.056  1.00  0.00    -0.030 A  
HETATM   23  C   UNL     1      -6.751   6.097  71.370  1.00  0.00    -0.055 A  
HETATM   24  C   UNL     1      -8.240   6.564  73.216  1.00  0.00    -0.118 A  
HETATM   25  C   UNL     1      -6.741   4.674  73.320  1.00  0.00    -0.066 A  
ENDBRANCH  19  20
ENDBRANCH   8  19
ENDBRANCH   7   8
BRANCH   7  26
HETATM   26  O   UNL     1     -10.989  10.082  71.789  1.00  0.00     0.172 OA 
HETATM   27  O   UNL     1     -13.958   8.866  72.462  1.00  0.00    -0.462 OA 
HETATM   28  O   UNL     1     -11.789   8.262  72.971  1.00  0.00    -0.269 OA 
HETATM   29  O   UNL     1     -12.672   8.673  70.723  1.00  0.00     0.003 OA 
HETATM   30  P   UNL     1     -12.556   9.440  72.144  1.00  0.00    -0.265 P  
ENDBRANCH   7  26
ENDBRANCH   6   7
ENDBRANCH   5   6
BRANCH   5  31
HETATM   31  S   UNL     1     -10.316  10.171  66.822  1.00  0.00    -0.203 S  
HETATM   32  O   UNL     1     -10.050  11.234  65.875  1.00  0.00    -0.227 OA 
HETATM   33  O   UNL     1     -11.179   9.081  66.411  1.00  0.00     0.795 OA 
BRANCH  31  34
HETATM   34  C   UNL     1      -8.752   9.456  67.173  1.00  0.00    -0.128 A  
HETATM   35  N   UNL     1      -5.167   7.498  68.070  1.00  0.00    -0.025 NA 
HETATM   36  C   UNL     1      -7.965   9.930  68.222  1.00  0.00    -0.100 A  
HETATM   37  H1  UNL     1      -4.863   6.698  67.515  1.00  0.00     0.000 HD 
HETATM   38  H2  UNL     1      -5.218   7.208  69.047  1.00  0.00     0.000 HD 
HETATM   39  C   UNL     1      -8.423   8.264  66.524  1.00  0.00    -0.121 A  
HETATM   40  C   UNL     1      -7.227   7.626  66.817  1.00  0.00    -0.088 A  
HETATM   41  C   UNL     1      -6.767   9.275  68.514  1.00  0.00    -0.058 A  
HETATM   42  C   UNL     1      -6.348   8.176  67.752  1.00  0.00    -0.053 A  
ENDBRANCH  31  34
ENDBRANCH   5  31
ENDBRANCH   4   5
TORSDOF 12
ENDMDL
MODEL      337
REMARK 921   NORMALIZED FREE ENERGY PREDICTED BY IDOCK:   -0.21 KCAL/MOL
REMARK 922        TOTAL FREE ENERGY PREDICTED BY IDOCK:   -3.16 KCAL/MOL
REMARK 923 INTER-LIGAND FREE ENERGY PREDICTED BY IDOCK:   -3.44 KCAL/MOL
REMARK 924 INTRA-LIGAND FREE ENERGY PREDICTED BY IDOCK:    0.28 KCAL/MOL
REMARK 927      BINDING AFFINITY PREDICTED BY RF-SCORE:    0.00 PKD
ROOT
HETATM    1  C   UNL     1      -8.000  11.881  68.981  1.00  0.00     0.135 C  
HETATM    2  C   UNL     1      -9.282  11.064  68.992  1.00  0.00    -0.077 C  
HETATM    3  C   UNL     1     -10.555  11.899  68.838  1.00  0.00    -0.205 C  
HETATM    4  C   UNL     1      -9.425   9.727  68.256  1.00  0.00    -0.139 C  
ENDROOT
BRANCH   4   5
HETATM    5  N   UNL     1      -8.793   9.304  66.972  1.00  0.00    -0.123 N  
BRANCH   5   6
HETATM    6  C   UNL     1      -7.390   8.733  67.337  1.00  0.00    -0.081 C  
BRANCH   6   7
HETATM    7  C   UNL     1      -7.370   7.296  68.032  1.00  0.00    -0.097 C  
BRANCH   7   8
HETATM    8  C   UNL     1      -8.335   7.257  69.317  1.00  0.00    -0.132 C  
BRANCH   8   9
HETATM    9  N   UNL     1      -8.844   5.905  69.611  1.00  0.00    -0.130 N  
HETATM   10  C   UNL     1     -10.190   5.642  69.633  1.00  0.00    -0.251 C  
HETATM   11  H   UNL     1      -8.183   5.152  69.800  1.00  0.00     0.000 HD 
HETATM   12  O   UNL     1     -11.078   6.435  69.368  1.00  0.00    -0.323 OA 
BRANCH  10  13
HETATM   13  O   UNL     1     -10.398   4.342  69.977  1.00  0.00    -0.065 OA 
BRANCH  13  14
HETATM   14  C   UNL     1      -9.291   3.706  70.641  1.00  0.00    -0.158 C  
HETATM   15  C   UNL     1      -9.683   2.497  71.460  1.00  0.00    -0.222 C  
HETATM   16  O   UNL     1      -7.806   1.887  70.163  1.00  0.00    -0.042 OA 
HETATM   17  C   UNL     1      -8.436   1.647  71.425  1.00  0.00    -0.047 C  
HETATM   18  C   UNL     1      -8.338   3.103  69.616  1.00  0.00    -0.055 C  
ENDBRANCH  13  14
ENDBRANCH  10  13
ENDBRANCH   8   9
BRANCH   8  19
HETATM   19  C   UNL     1      -7.835   7.950  70.607  1.00  0.00    -0.095 C  
BRANCH  19  20
HETATM   20  C   UNL     1      -8.379   7.460  71.922  1.00  0.00    -0.115 A  
HETATM   21  C   UNL     1      -8.339   5.887  73.769  1.00  0.00    -0.115 A  
HETATM   22  C   UNL     1     -10.173   7.443  73.550  1.00  0.00    -0.400 A  
HETATM   23  C   UNL     1      -9.587   7.977  72.404  1.00  0.00    -0.297 A  
HETATM   24  C   UNL     1      -7.755   6.415  72.617  1.00  0.00    -0.104 A  
HETATM   25  C   UNL     1      -9.552   6.398  74.230  1.00  0.00    -0.256 A  
ENDBRANCH  19  20
ENDBRANCH   8  19
ENDBRANCH   7   8
BRANCH   7  26
HETATM   26  O   UNL     1      -6.002   6.778  68.221  1.00  0.00    -0.022 OA 
HETATM   27  O   UNL     1      -5.327   3.799  67.026  1.00  0.00    -0.011 OA 
HETATM   28  O   UNL     1      -5.191   5.956  66.216  1.00  0.00    -0.008 OA 
HETATM   29  O   UNL     1      -7.185   4.913  67.183  1.00  0.00    -0.074 OA 
HETATM   30  P   UNL     1      -5.646   5.206  67.590  1.00  0.00    -0.014 P  
ENDBRANCH   7  26
ENDBRANCH   6   7
ENDBRANCH   5   6
BRANCH   5  31
HETATM   31  S   UNL     1      -9.499   8.374  65.725  1.00  0.00     0.094 S  
HETATM   32  O   UNL     1     -10.160   9.257  64.787  1.00  0.00     0.490 OA 
HETATM   33  O   UNL     1     -10.277   7.320  66.345  1.00  0.00    -0.113 OA 
BRANCH  31  34
HETATM   34  C   UNL     1      -8.233   7.579  64.806  1.00  0.00    -0.065 A  
HETATM   35  N   UNL     1      -5.168   5.511  62.852  1.00  0.00    -0.013 NA 
HETATM   36  C   UNL     1      -7.109   8.282  64.375  1.00  0.00    -0.078 A  
HETATM   37  H1  UNL     1      -5.252   4.510  62.675  1.00  0.00     0.000 HD 
HETATM   38  H2  UNL     1      -4.311   5.670  63.383  1.00  0.00     0.000 HD 
HETATM   39  C   UNL     1      -8.274   6.186  64.715  1.00  0.00    -0.112 A  
HETATM   40  C   UNL     1      -7.261   5.507  64.056  1.00  0.00    -0.051 A  
HETATM   41  C   UNL     1      -6.090   7.587  63.720  1.00  0.00    -0.049 A  
HETATM   42  C   UNL     1      -6.205   6.212  63.475  1.00  0.00    -0.022 A  
ENDBRANCH  31  34
ENDBRANCH   5  31
ENDBRANCH   4   5
TORSDOF 12
ENDMDL
MODEL      338
REMARK 921   NORMALIZED FREE ENERGY PREDICTED BY IDOCK:   -0.11 KCAL/MOL
REMARK 922        TOTAL FREE ENERGY PREDICTED BY IDOCK:   -2.99 KCAL/MOL
REMARK 923 INTER-LIGAND FREE ENERGY PREDICTED BY IDOCK:   -5.13 KCAL/MOL
REMARK 924 INTRA-LIGAND FREE ENERGY PREDICTED BY IDOCK:    2.14 KCAL/MOL
REMARK 927      BINDING AFFINITY PREDICTED BY RF-SCORE:    0.00 PKD
ROOT
HETATM    1  C   UNL     1      -6.829  15.976  66.512  1.00  0.00     0.480 C  
HETATM    2  C   UNL     1      -7.198  15.151  67.735  1.00  0.00    -0.185 C  
HETATM    3  C   UNL     1      -7.123  15.923  69.054  1.00  0.00    -0.161 C  
HETATM    4  C   UNL     1      -8.375  14.169  67.755  1.00  0.00    -0.174 C  
ENDROOT
BRANCH   4   5
HETATM    5  N   UNL     1      -9.680  14.273  67.039  1.00  0.00    -0.246 N  
BRANCH   5   6
HETATM    6  C   UNL     1     -10.786  13.941  68.085  1.00  0.00    -0.249 C  
BRANCH   6   7
HETATM    7  C   UNL     1     -10.338  13.045  69.329  1.00  0.00     0.323 C  
BRANCH   7   8
HETATM    8  C   UNL     1     -10.246  11.492  68.924  1.00  0.00    -0.149 C  
BRANCH   8   9
HETATM    9  N   UNL     1     -10.377  10.590  70.083  1.00  0.00    -0.431 N  
HETATM   10  C   UNL     1      -9.280   9.980  70.636  1.00  0.00     0.498 C  
HETATM   11  H   UNL     1     -11.300  10.417  70.480  1.00  0.00     0.000 HD 
HETATM   12  O   UNL     1      -8.122  10.146  70.294  1.00  0.00    -0.134 OA 
BRANCH  10  13
HETATM   13  O   UNL     1      -9.672   9.164  71.651  1.00  0.00    -0.292 OA 
BRANCH  13  14
HETATM   14  C   UNL     1     -10.820   8.345  71.363  1.00  0.00    -0.244 C  
HETATM   15  C   UNL     1     -10.479   7.006  70.749  1.00  0.00    -0.231 C  
HETATM   16  O   UNL     1     -12.025   6.606  72.488  1.00  0.00    -0.186 OA 
HETATM   17  C   UNL     1     -11.617   6.126  71.203  1.00  0.00    -0.202 C  
HETATM   18  C   UNL     1     -11.513   7.936  72.658  1.00  0.00    -0.395 C  
ENDBRANCH  13  14
ENDBRANCH  10  13
ENDBRANCH   8   9
BRANCH   8  19
HETATM   19  C   UNL     1     -11.124  11.007  67.746  1.00  0.00    -0.356 C  
BRANCH  19  20
HETATM   20  C   UNL     1     -10.429  10.401  66.557  1.00  0.00    -0.262 A  
HETATM   21  C   UNL     1      -8.964   8.722  65.597  1.00  0.00    -0.248 A  
HETATM   22  C   UNL     1      -9.662  10.614  64.268  1.00  0.00    -0.372 A  
HETATM   23  C   UNL     1     -10.410  11.094  65.341  1.00  0.00    -0.331 A  
HETATM   24  C   UNL     1      -9.706   9.206  66.675  1.00  0.00    -0.287 A  
HETATM   25  C   UNL     1      -8.937   9.431  64.397  1.00  0.00    -0.215 A  
ENDBRANCH  19  20
ENDBRANCH   8  19
ENDBRANCH   7   8
BRANCH   7  26
HETATM   26  O   UNL     1     -11.094  13.362  70.555  1.00  0.00     0.522 OA 
HETATM   27  O   UNL     1     -12.265  16.407  70.875  1.00  0.00    -0.018 OA 
HETATM   28  O   UNL     1     -13.071  14.428  70.004  1.00  0.00    -0.047 OA 
HETATM   29  O   UNL     1     -10.956  15.505  69.396  1.00  0.00    -0.240 OA 
HETATM   30  P   UNL     1     -11.712  14.969  70.723  1.00  0.00    -0.357 P  
ENDBRANCH   7  26
ENDBRANCH   6   7
ENDBRANCH   5   6
BRANCH   5  31
HETATM   31  S   UNL     1     -10.202  15.535  66.013  1.00  0.00    -0.356 S  
HETATM   32  O   UNL     1     -11.633  15.432  65.819  1.00  0.00    -0.124 OA 
HETATM   33  O   UNL     1      -9.345  15.538  64.844  1.00  0.00     0.277 OA 
BRANCH  31  34
HETATM   34  C   UNL     1      -9.949  17.077  66.814  1.00  0.00    -0.295 A  
HETATM   35  N   UNL     1      -9.611  20.835  68.616  1.00  0.00     0.524 NA 
HETATM   36  C   UNL     1      -8.894  17.911  66.448  1.00  0.00    -0.251 A  
HETATM   37  H1  UNL     1     -10.280  21.128  69.329  1.00  0.00     0.000 HD 
HETATM   38  H2  UNL     1      -9.618  21.530  67.869  1.00  0.00     0.000 HD 
HETATM   39  C   UNL     1     -10.957  17.541  67.661  1.00  0.00    -0.111 A  
HETATM   40  C   UNL     1     -10.834  18.783  68.265  1.00  0.00     0.083 A  
HETATM   41  C   UNL     1      -8.784  19.163  67.056  1.00  0.00    -0.313 A  
HETATM   42  C   UNL     1      -9.701  19.566  68.036  1.00  0.00    -0.376 A  
ENDBRANCH  31  34
ENDBRANCH   5  31
ENDBRANCH   4   5
TORSDOF 12
ENDMDL
MODEL      339
REMARK 921   NORMALIZED FREE ENERGY PREDICTED BY IDOCK:    0.07 KCAL/MOL
REMARK 922        TOTAL FREE ENERGY PREDICTED BY IDOCK:   -2.69 KCAL/MOL
REMARK 923 INTER-LIGAND FREE ENERGY PREDICTED BY IDOCK:   -4.77 KCAL/MOL
REMARK 924 INTRA-LIGAND FREE ENERGY PREDICTED BY IDOCK:    2.08 KCAL/MOL
REMARK 927      BINDING AFFINITY PREDICTED BY RF-SCORE:    0.00 PKD
ROOT
HETATM    1  C   UNL     1     -11.555   7.344  71.049  1.00  0.00    -0.315 C  
HETATM    2  C   UNL     1     -10.597   6.358  71.698  1.00  0.00    -0.261 C  
HETATM    3  C   UNL     1     -10.838   4.901  71.297  1.00  0.00     0.094 C  
HETATM    4  C   UNL     1      -9.097   6.630  71.852  1.00  0.00    -0.143 C  
ENDROOT
BRANCH   4   5
HETATM    5  N   UNL     1      -8.196   7.392  70.940  1.00  0.00    -0.113 N  
BRANCH   5   6
HETATM    6  C   UNL     1      -8.443   8.903  71.232  1.00  0.00    -0.182 C  
BRANCH   6   7
HETATM    7  C   UNL     1      -8.845   9.808  69.979  1.00  0.00    -0.215 C  
BRANCH   7   8
HETATM    8  C   UNL     1     -10.441   9.861  69.787  1.00  0.00    -0.261 C  
BRANCH   8   9
HETATM    9  N   UNL     1     -10.969  11.237  69.770  1.00  0.00    -0.457 N  
HETATM   10  C   UNL     1     -11.823  11.682  70.747  1.00  0.00    -0.015 C  
HETATM   11  H   UNL     1     -10.695  11.869  69.018  1.00  0.00     0.000 HD 
HETATM   12  O   UNL     1     -12.180  11.049  71.727  1.00  0.00    -0.107 OA 
BRANCH  10  13
HETATM   13  O   UNL     1     -12.205  12.960  70.476  1.00  0.00    -0.368 OA 
BRANCH  13  14
HETATM   14  C   UNL     1     -12.427  13.244  69.083  1.00  0.00     0.234 C  
HETATM   15  C   UNL     1     -12.411  14.718  68.749  1.00  0.00     0.122 C  
HETATM   16  O   UNL     1     -11.050  13.625  67.159  1.00  0.00    -0.287 OA 
HETATM   17  C   UNL     1     -11.940  14.736  67.315  1.00  0.00    -0.211 C  
HETATM   18  C   UNL     1     -11.267  12.714  68.246  1.00  0.00    -0.272 C  
ENDBRANCH  13  14
ENDBRANCH  10  13
ENDBRANCH   8   9
BRANCH   8  19
HETATM   19  C   UNL     1     -11.050   9.022  68.639  1.00  0.00     0.158 C  
BRANCH  19  20
HETATM   20  C   UNL     1     -10.236   8.856  67.384  1.00  0.00    -0.313 A  
HETATM   21  C   UNL     1      -8.571   7.655  66.091  1.00  0.00    -0.160 A  
HETATM   22  C   UNL     1      -9.364   9.807  65.333  1.00  0.00    -0.311 A  
HETATM   23  C   UNL     1     -10.213   9.884  66.436  1.00  0.00    -0.292 A  
HETATM   24  C   UNL     1      -9.413   7.735  67.201  1.00  0.00    -0.198 A  
HETATM   25  C   UNL     1      -8.541   8.695  65.163  1.00  0.00    -0.200 A  
ENDBRANCH  19  20
ENDBRANCH   8  19
ENDBRANCH   7   8
BRANCH   7  26
HETATM   26  O   UNL     1      -8.048   9.497  68.778  1.00  0.00    -0.093 OA 
HETATM   27  O   UNL     1      -6.457  11.971  67.328  1.00  0.00    -0.121 OA 
HETATM   28  O   UNL     1      -5.941  10.434  68.971  1.00  0.00    -0.041 OA 
HETATM   29  O   UNL     1      -7.885  11.925  68.963  1.00  0.00    -0.039 OA 
HETATM   30  P   UNL     1      -7.208  10.803  68.013  1.00  0.00    -0.090 P  
ENDBRANCH   7  26
ENDBRANCH   6   7
ENDBRANCH   5   6
BRANCH   5  31
HETATM   31  S   UNL     1      -6.534   7.114  70.654  1.00  0.00    -0.044 S  
HETATM   32  O   UNL     1      -6.042   6.140  71.605  1.00  0.00    -0.038 OA 
HETATM   33  O   UNL     1      -5.875   8.403  70.584  1.00  0.00    -0.031 OA 
BRANCH  31  34
HETATM   34  C   UNL     1      -6.333   6.370  69.077  1.00  0.00    -0.038 A  
HETATM   35  N   UNL     1      -5.742   4.359  65.459  1.00  0.00    -0.017 NA 
HETATM   36  C   UNL     1      -5.474   6.922  68.128  1.00  0.00    -0.019 A  
HETATM   37  H1  UNL     1      -6.236   3.488  65.266  1.00  0.00     0.000 HD 
HETATM   38  H2  UNL     1      -4.741   4.183  65.371  1.00  0.00     0.000 HD 
HETATM   39  C   UNL     1      -6.876   5.098  68.885  1.00  0.00    -0.051 A  
HETATM   40  C   UNL     1      -6.687   4.442  67.679  1.00  0.00    -0.047 A  
HETATM   41  C   UNL     1      -5.284   6.248  66.920  1.00  0.00    -0.005 A  
HETATM   42  C   UNL     1      -5.963   5.052  66.654  1.00  0.00    -0.023 A  
ENDBRANCH  31  34
ENDBRANCH   5  31
ENDBRANCH   4   5
TORSDOF 12
ENDMDL
MODEL      340
REMARK 921   NORMALIZED FREE ENERGY PREDICTED BY IDOCK:    0.17 KCAL/MOL
REMARK 922        TOTAL FREE ENERGY PREDICTED BY IDOCK:   -2.51 KCAL/MOL
REMARK 923 INTER-LIGAND FREE ENERGY PREDICTED BY IDOCK:   -5.34 KCAL/MOL
REMARK 924 INTRA-LIGAND FREE ENERGY PREDICTED BY IDOCK:    2.84 KCAL/MOL
REMARK 927      BINDING AFFINITY PREDICTED BY RF-SCORE:    0.00 PKD
ROOT
HETATM    1  C   UNL     1      -9.000  11.144  66.391  1.00  0.00    -0.190 C  
HETATM    2  C   UNL     1      -7.748  10.338  66.698  1.00  0.00    -0.113 C  
HETATM    3  C   UNL     1      -6.652  10.460  65.637  1.00  0.00    -0.129 C  
HETATM    4  C   UNL     1      -7.131  10.256  68.099  1.00  0.00    -0.082 C  
ENDROOT
BRANCH   4   5
HETATM    5  N   UNL     1      -7.099  11.305  69.159  1.00  0.00    -0.116 N  
BRANCH   5   6
HETATM    6  C   UNL     1      -6.749  10.578  70.492  1.00  0.00     0.034 C  
BRANCH   6   7
HETATM    7  C   UNL     1      -7.325   9.099  70.662  1.00  0.00    -0.111 C  
BRANCH   7   8
HETATM    8  C   UNL     1      -8.502   8.807  69.606  1.00  0.00    -0.129 C  
BRANCH   8   9
HETATM    9  N   UNL     1      -8.184   7.700  68.686  1.00  0.00    -0.127 N  
HETATM   10  C   UNL     1      -7.164   6.823  68.956  1.00  0.00    -0.091 C  
HETATM   11  H   UNL     1      -8.733   7.583  67.835  1.00  0.00     0.000 HD 
HETATM   12  O   UNL     1      -6.474   6.817  69.962  1.00  0.00    -0.038 OA 
BRANCH  10  13
HETATM   13  O   UNL     1      -7.042   5.932  67.935  1.00  0.00    -0.067 OA 
BRANCH  13  14
HETATM   14  C   UNL     1      -7.464   6.421  66.649  1.00  0.00    -0.083 C  
HETATM   15  C   UNL     1      -6.536   6.046  65.517  1.00  0.00    -0.043 C  
HETATM   16  O   UNL     1      -8.736   5.562  64.809  1.00  0.00    -0.128 OA 
HETATM   17  C   UNL     1      -7.460   5.994  64.325  1.00  0.00    -0.076 C  
HETATM   18  C   UNL     1      -8.767   5.748  66.232  1.00  0.00    -0.134 C  
ENDBRANCH  13  14
ENDBRANCH  10  13
ENDBRANCH   8   9
BRANCH   8  19
HETATM   19  C   UNL     1      -9.940   8.669  70.159  1.00  0.00    -0.193 C  
BRANCH  19  20
HETATM   20  C   UNL     1     -10.869   9.842  69.996  1.00  0.00    -0.319 A  
HETATM   21  C   UNL     1     -12.910  11.015  70.583  1.00  0.00    -0.305 A  
HETATM   22  C   UNL     1     -11.601  11.745  68.688  1.00  0.00    -0.367 A  
HETATM   23  C   UNL     1     -10.677  10.732  68.934  1.00  0.00    -0.259 A  
HETATM   24  C   UNL     1     -11.990   9.995  70.825  1.00  0.00    -0.426 A  
HETATM   25  C   UNL     1     -12.718  11.885  69.510  1.00  0.00     0.509 A  
ENDBRANCH  19  20
ENDBRANCH   8  19
ENDBRANCH   7   8
BRANCH   7  26
HETATM   26  O   UNL     1      -7.606   8.760  72.070  1.00  0.00    -0.281 OA 
HETATM   27  O   UNL     1      -5.148   7.529  73.857  1.00  0.00    -0.042 OA 
HETATM   28  O   UNL     1      -5.962   9.647  73.433  1.00  0.00    -0.297 OA 
HETATM   29  O   UNL     1      -5.311   7.997  71.743  1.00  0.00    -0.034 OA 
HETATM   30  P   UNL     1      -6.309   8.111  73.013  1.00  0.00    -0.088 P  
ENDBRANCH   7  26
ENDBRANCH   6   7
ENDBRANCH   5   6
BRANCH   5  31
HETATM   31  S   UNL     1      -6.313  12.821  69.094  1.00  0.00    -0.111 S  
HETATM   32  O   UNL     1      -5.228  12.756  68.138  1.00  0.00    -0.063 OA 
HETATM   33  O   UNL     1      -6.012  13.223  70.453  1.00  0.00    -0.162 OA 
BRANCH  31  34
HETATM   34  C   UNL     1      -7.423  14.023  68.459  1.00  0.00    -0.124 A  
HETATM   35  N   UNL     1     -10.022  16.772  66.676  1.00  0.00    -0.280 NA 
HETATM   36  C   UNL     1      -7.137  15.385  68.552  1.00  0.00    -0.114 A  
HETATM   37  H1  UNL     1     -10.864  16.452  66.198  1.00  0.00     0.000 HD 
HETATM   38  H2  UNL     1      -9.471  17.324  66.016  1.00  0.00     0.000 HD 
HETATM   39  C   UNL     1      -8.480  13.575  67.664  1.00  0.00    -0.184 A  
HETATM   40  C   UNL     1      -9.346  14.491  67.085  1.00  0.00    -0.225 A  
HETATM   41  C   UNL     1      -8.011  16.298  67.958  1.00  0.00    -0.151 A  
HETATM   42  C   UNL     1      -9.168  15.858  67.302  1.00  0.00    -0.206 A  
ENDBRANCH  31  34
ENDBRANCH   5  31
ENDBRANCH   4   5
TORSDOF 12
ENDMDL
MODEL      341
REMARK 921   NORMALIZED FREE ENERGY PREDICTED BY IDOCK:    0.26 KCAL/MOL
REMARK 922        TOTAL FREE ENERGY PREDICTED BY IDOCK:   -2.37 KCAL/MOL
REMARK 923 INTER-LIGAND FREE ENERGY PREDICTED BY IDOCK:   -3.28 KCAL/MOL
REMARK 924 INTRA-LIGAND FREE ENERGY PREDICTED BY IDOCK:    0.91 KCAL/MOL
REMARK 927      BINDING AFFINITY PREDICTED BY RF-SCORE:    0.00 PKD
ROOT
HETATM    1  C   UNL     1      -5.313   8.929  67.136  1.00  0.00    -0.040 C  
HETATM    2  C   UNL     1      -5.941   9.541  65.894  1.00  0.00    -0.055 C  
HETATM    3  C   UNL     1      -5.585   8.817  64.594  1.00  0.00    -0.062 C  
HETATM    4  C   UNL     1      -7.391  10.037  65.851  1.00  0.00    -0.115 C  
ENDROOT
BRANCH   4   5
HETATM    5  N   UNL     1      -8.579   9.490  66.569  1.00  0.00    -0.132 N  
BRANCH   5   6
HETATM    6  C   UNL     1      -8.225   9.504  68.086  1.00  0.00    -0.114 C  
BRANCH   6   7
HETATM    7  C   UNL     1      -8.210   8.087  68.822  1.00  0.00    -0.126 C  
BRANCH   7   8
HETATM    8  C   UNL     1      -7.505   8.187  70.264  1.00  0.00    -0.067 C  
BRANCH   8   9
HETATM    9  N   UNL     1      -6.337   9.086  70.268  1.00  0.00    -0.041 N  
HETATM   10  C   UNL     1      -6.489  10.449  70.240  1.00  0.00    -0.141 C  
HETATM   11  H   UNL     1      -5.398   8.687  70.292  1.00  0.00     0.000 HD 
HETATM   12  O   UNL     1      -7.549  11.050  70.269  1.00  0.00     0.284 OA 
BRANCH  10  13
HETATM   13  O   UNL     1      -5.267  11.047  70.197  1.00  0.00    -0.051 OA 
BRANCH  13  14
HETATM   14  C   UNL     1      -5.258  12.368  69.627  1.00  0.00    -0.075 C  
HETATM   15  C   UNL     1      -5.910  12.452  68.266  1.00  0.00    -0.059 C  
HETATM   16  O   UNL     1      -6.765  14.230  69.563  1.00  0.00    -0.129 OA 
HETATM   17  C   UNL     1      -6.419  13.872  68.221  1.00  0.00    -0.111 C  
HETATM   18  C   UNL     1      -6.128  13.305  70.457  1.00  0.00    -0.039 C  
ENDBRANCH  13  14
ENDBRANCH  10  13
ENDBRANCH   8   9
BRANCH   8  19
HETATM   19  C   UNL     1      -8.414   8.459  71.486  1.00  0.00    -0.202 C  
BRANCH  19  20
HETATM   20  C   UNL     1      -8.615   7.340  72.472  1.00  0.00    -0.131 A  
HETATM   21  C   UNL     1      -8.524   4.983  73.038  1.00  0.00    -0.111 A  
HETATM   22  C   UNL     1      -9.619   6.539  74.526  1.00  0.00    -0.305 A  
HETATM   23  C   UNL     1      -9.307   7.588  73.663  1.00  0.00    -0.329 A  
HETATM   24  C   UNL     1      -8.219   6.030  72.168  1.00  0.00    -0.111 A  
HETATM   25  C   UNL     1      -9.231   5.238  74.212  1.00  0.00    -0.118 A  
ENDBRANCH  19  20
ENDBRANCH   8  19
ENDBRANCH   7   8
BRANCH   7  26
HETATM   26  O   UNL     1      -7.752   6.996  67.940  1.00  0.00    -0.108 OA 
HETATM   27  O   UNL     1      -9.624   4.312  67.745  1.00  0.00    -0.164 OA 
HETATM   28  O   UNL     1      -9.492   6.302  66.583  1.00  0.00    -0.146 OA 
HETATM   29  O   UNL     1      -9.741   6.074  69.010  1.00  0.00    -0.128 OA 
HETATM   30  P   UNL     1      -8.740   5.580  67.837  1.00  0.00    -0.104 P  
ENDBRANCH   7  26
ENDBRANCH   6   7
ENDBRANCH   5   6
BRANCH   5  31
HETATM   31  S   UNL     1     -10.216   9.922  66.344  1.00  0.00    -0.192 S  
HETATM   32  O   UNL     1     -10.965   8.756  65.923  1.00  0.00     1.453 OA 
HETATM   33  O   UNL     1     -10.251  11.104  65.505  1.00  0.00    -0.243 OA 
BRANCH  31  34
HETATM   34  C   UNL     1     -10.911  10.391  67.886  1.00  0.00    -0.279 A  
HETATM   35  N   UNL     1     -12.309  11.647  71.622  1.00  0.00    -0.010 NA 
HETATM   36  C   UNL     1     -11.270   9.432  68.832  1.00  0.00     0.096 A  
HETATM   37  H1  UNL     1     -12.407  12.641  71.829  1.00  0.00     0.000 HD 
HETATM   38  H2  UNL     1     -11.700  11.232  72.327  1.00  0.00     0.000 HD 
HETATM   39  C   UNL     1     -10.882  11.745  68.226  1.00  0.00    -0.259 A  
HETATM   40  C   UNL     1     -11.359  12.156  69.461  1.00  0.00    -0.277 A  
HETATM   41  C   UNL     1     -11.740   9.857  70.077  1.00  0.00    -0.186 A  
HETATM   42  C   UNL     1     -11.874  11.223  70.362  1.00  0.00    -0.350 A  
ENDBRANCH  31  34
ENDBRANCH   5  31
ENDBRANCH   4   5
TORSDOF 12
ENDMDL
MODEL      342
REMARK 921   NORMALIZED FREE ENERGY PREDICTED BY IDOCK:    0.35 KCAL/MOL
REMARK 922        TOTAL FREE ENERGY PREDICTED BY IDOCK:   -2.20 KCAL/MOL
REMARK 923 INTER-LIGAND FREE ENERGY PREDICTED BY IDOCK:   -1.17 KCAL/MOL
REMARK 924 INTRA-LIGAND FREE ENERGY PREDICTED BY IDOCK:   -1.03 KCAL/MOL
REMARK 927      BINDING AFFINITY PREDICTED BY RF-SCORE:    0.00 PKD
ROOT
HETATM    1  C   UNL     1     -10.910  14.125  69.065  1.00  0.00    -0.273 C  
HETATM    2  C   UNL     1     -12.160  13.626  68.358  1.00  0.00    -0.312 C  
HETATM    3  C   UNL     1     -12.621  14.520  67.204  1.00  0.00     0.448 C  
HETATM    4  C   UNL     1     -12.395  12.150  68.019  1.00  0.00     0.631 C  
ENDROOT
BRANCH   4   5
HETATM    5  N   UNL     1     -11.387  11.114  67.647  1.00  0.00    -0.294 N  
BRANCH   5   6
HETATM    6  C   UNL     1     -11.605   9.916  68.619  1.00  0.00     0.244 C  
BRANCH   6   7
HETATM    7  C   UNL     1     -10.447   9.650  69.685  1.00  0.00    -0.229 C  
BRANCH   7   8
HETATM    8  C   UNL     1      -9.751   8.220  69.444  1.00  0.00    -0.177 C  
BRANCH   8   9
HETATM    9  N   UNL     1     -10.010   7.677  68.099  1.00  0.00    -0.169 N  
HETATM   10  C   UNL     1     -10.559   6.432  67.929  1.00  0.00    -0.258 C  
HETATM   11  H   UNL     1      -9.777   8.238  67.279  1.00  0.00     0.000 HD 
HETATM   12  O   UNL     1     -10.935   5.689  68.820  1.00  0.00    -0.216 OA 
BRANCH  10  13
HETATM   13  O   UNL     1     -10.647   6.146  66.601  1.00  0.00    -0.251 OA 
BRANCH  13  14
HETATM   14  C   UNL     1     -10.453   4.760  66.265  1.00  0.00    -0.269 C  
HETATM   15  C   UNL     1     -11.116   4.346  64.971  1.00  0.00     0.076 C  
HETATM   16  O   UNL     1      -8.908   3.511  64.926  1.00  0.00    -0.115 OA 
HETATM   17  C   UNL     1     -10.238   3.217  64.487  1.00  0.00    -0.037 C  
HETATM   18  C   UNL     1      -8.981   4.491  65.971  1.00  0.00    -0.122 C  
ENDBRANCH  13  14
ENDBRANCH  10  13
ENDBRANCH   8   9
BRANCH   8  19
HETATM   19  C   UNL     1      -8.255   8.082  69.816  1.00  0.00    -0.120 C  
BRANCH  19  20
HETATM   20  C   UNL     1      -7.915   7.373  71.099  1.00  0.00    -0.100 A  
HETATM   21  C   UNL     1      -6.880   5.523  72.279  1.00  0.00    -0.079 A  
HETATM   22  C   UNL     1      -8.320   7.056  73.467  1.00  0.00    -0.139 A  
HETATM   23  C   UNL     1      -8.520   7.781  72.293  1.00  0.00    -0.165 A  
HETATM   24  C   UNL     1      -7.086   6.242  71.101  1.00  0.00    -0.074 A  
HETATM   25  C   UNL     1      -7.504   5.926  73.459  1.00  0.00    -0.093 A  
ENDBRANCH  19  20
ENDBRANCH   8  19
ENDBRANCH   7   8
BRANCH   7  26
HETATM   26  O   UNL     1     -10.868   9.952  71.066  1.00  0.00    -0.321 OA 
HETATM   27  O   UNL     1     -13.829   8.907  72.013  1.00  0.00    -0.409 OA 
HETATM   28  O   UNL     1     -11.691   8.037  72.070  1.00  0.00    -0.286 OA 
HETATM   29  O   UNL     1     -12.836   8.896  70.081  1.00  0.00     0.823 OA 
HETATM   30  P   UNL     1     -12.430   9.400  71.565  1.00  0.00    -0.410 P  
ENDBRANCH   7  26
ENDBRANCH   6   7
ENDBRANCH   5   6
BRANCH   5  31
HETATM   31  S   UNL     1     -11.020  10.540  66.080  1.00  0.00     0.255 S  
HETATM   32  O   UNL     1     -11.477  11.503  65.100  1.00  0.00    -0.165 OA 
HETATM   33  O   UNL     1     -11.501   9.176  65.984  1.00  0.00     2.369 OA 
BRANCH  31  34
HETATM   34  C   UNL     1      -9.278  10.465  65.883  1.00  0.00    -0.170 A  
HETATM   35  N   UNL     1      -5.145   9.991  65.451  1.00  0.00    -0.046 NA 
HETATM   36  C   UNL     1      -8.425  11.099  66.786  1.00  0.00    -0.153 A  
HETATM   37  H1  UNL     1      -4.767   9.438  64.683  1.00  0.00     0.000 HD 
HETATM   38  H2  UNL     1      -4.793   9.605  66.327  1.00  0.00     0.000 HD 
HETATM   39  C   UNL     1      -8.770   9.572  64.937  1.00  0.00    -0.218 A  
HETATM   40  C   UNL     1      -7.398   9.429  64.790  1.00  0.00    -0.107 A  
HETATM   41  C   UNL     1      -7.046  10.940  66.634  1.00  0.00    -0.135 A  
HETATM   42  C   UNL     1      -6.525  10.180  65.579  1.00  0.00    -0.107 A  
ENDBRANCH  31  34
ENDBRANCH   5  31
ENDBRANCH   4   5
TORSDOF 12
ENDMDL
MODEL      343
REMARK 921   NORMALIZED FREE ENERGY PREDICTED BY IDOCK:    0.37 KCAL/MOL
REMARK 922        TOTAL FREE ENERGY PREDICTED BY IDOCK:   -2.17 KCAL/MOL
REMARK 923 INTER-LIGAND FREE ENERGY PREDICTED BY IDOCK:   -4.80 KCAL/MOL
REMARK 924 INTRA-LIGAND FREE ENERGY PREDICTED BY IDOCK:    2.63 KCAL/MOL
REMARK 927      BINDING AFFINITY PREDICTED BY RF-SCORE:    0.00 PKD
ROOT
HETATM    1  C   UNL     1     -12.635  13.216  70.681  1.00  0.00    -0.286 C  
HETATM    2  C   UNL     1     -13.122  14.655  70.645  1.00  0.00    -0.323 C  
HETATM    3  C   UNL     1     -13.256  15.302  72.025  1.00  0.00    -0.499 C  
HETATM    4  C   UNL     1     -12.625  15.679  69.619  1.00  0.00     0.066 C  
ENDROOT
BRANCH   4   5
HETATM    5  N   UNL     1     -11.270  15.789  69.002  1.00  0.00    -0.296 N  
BRANCH   5   6
HETATM    6  C   UNL     1     -11.051  17.298  68.682  1.00  0.00     0.037 C  
BRANCH   6   7
HETATM    7  C   UNL     1     -10.506  17.638  67.220  1.00  0.00    -0.338 C  
BRANCH   7   8
HETATM    8  C   UNL     1     -10.165  19.203  67.076  1.00  0.00    -0.393 C  
BRANCH   8   9
HETATM    9  N   UNL     1      -9.517  19.760  68.277  1.00  0.00    -0.354 N  
HETATM   10  C   UNL     1      -8.375  19.201  68.792  1.00  0.00    -0.342 C  
HETATM   11  H   UNL     1      -9.926  20.576  68.733  1.00  0.00     0.000 HD 
HETATM   12  O   UNL     1      -7.758  18.266  68.311  1.00  0.00    -0.271 OA 
BRANCH  10  13
HETATM   13  O   UNL     1      -8.010  19.863  69.924  1.00  0.00     0.243 OA 
BRANCH  13  14
HETATM   14  C   UNL     1      -6.626  19.720  70.290  1.00  0.00    -0.145 C  
HETATM   15  C   UNL     1      -6.326  20.124  71.716  1.00  0.00    -0.013 C  
HETATM   16  O   UNL     1      -5.286  18.037  71.345  1.00  0.00    -0.427 OA 
HETATM   17  C   UNL     1      -5.137  19.263  72.068  1.00  0.00    -0.043 C  
HETATM   18  C   UNL     1      -6.229  18.248  70.284  1.00  0.00     0.138 C  
ENDBRANCH  13  14
ENDBRANCH  10  13
ENDBRANCH   8   9
BRANCH   8  19
HETATM   19  C   UNL     1      -9.432  19.659  65.793  1.00  0.00    -0.066 C  
BRANCH  19  20
HETATM   20  C   UNL     1      -7.943  19.867  65.872  1.00  0.00    -0.288 A  
HETATM   21  C   UNL     1      -5.683  18.990  65.801  1.00  0.00    -0.193 A  
HETATM   22  C   UNL     1      -6.073  21.258  66.535  1.00  0.00    -0.358 A  
HETATM   23  C   UNL     1      -7.442  21.091  66.329  1.00  0.00     0.245 A  
HETATM   24  C   UNL     1      -7.053  18.819  65.602  1.00  0.00    -0.219 A  
HETATM   25  C   UNL     1      -5.195  20.207  66.275  1.00  0.00    -0.179 A  
ENDBRANCH  19  20
ENDBRANCH   8  19
ENDBRANCH   7   8
BRANCH   7  26
HETATM   26  O   UNL     1     -11.337  17.045  66.155  1.00  0.00     0.459 OA 
HETATM   27  O   UNL     1      -9.985  14.701  64.303  1.00  0.00     0.333 OA 
HETATM   28  O   UNL     1     -11.212  14.737  66.258  1.00  0.00    -0.338 OA 
HETATM   29  O   UNL     1      -9.155  15.999  65.833  1.00  0.00    -0.333 OA 
HETATM   30  P   UNL     1     -10.623  15.808  65.178  1.00  0.00    -0.246 P  
ENDBRANCH   7  26
ENDBRANCH   6   7
ENDBRANCH   5   6
BRANCH   5  31
HETATM   31  S   UNL     1      -9.816  15.089  69.563  1.00  0.00    -0.066 S  
HETATM   32  O   UNL     1      -9.955  14.758  70.966  1.00  0.00     0.973 OA 
HETATM   33  O   UNL     1      -8.725  15.956  69.164  1.00  0.00    -0.231 OA 
BRANCH  31  34
HETATM   34  C   UNL     1      -9.555  13.558  68.746  1.00  0.00     0.015 A  
HETATM   35  N   UNL     1      -8.803  10.062  66.578  1.00  0.00    -0.138 NA 
HETATM   36  C   UNL     1     -10.630  12.772  68.335  1.00  0.00    -0.262 A  
HETATM   37  H1  UNL     1      -7.845   9.778  66.372  1.00  0.00     0.000 HD 
HETATM   38  H2  UNL     1      -9.309  10.140  65.695  1.00  0.00     0.000 HD 
HETATM   39  C   UNL     1      -8.258  13.262  68.321  1.00  0.00    -0.156 A  
HETATM   40  C   UNL     1      -8.013  12.095  67.613  1.00  0.00    -0.157 A  
HETATM   41  C   UNL     1     -10.372  11.603  67.614  1.00  0.00    -0.210 A  
HETATM   42  C   UNL     1      -9.057  11.213  67.332  1.00  0.00    -0.142 A  
ENDBRANCH  31  34
ENDBRANCH   5  31
ENDBRANCH   4   5
TORSDOF 12
ENDMDL
MODEL      344
REMARK 921   NORMALIZED FREE ENERGY PREDICTED BY IDOCK:    0.40 KCAL/MOL
REMARK 922        TOTAL FREE ENERGY PREDICTED BY IDOCK:   -2.13 KCAL/MOL
REMARK 923 INTER-LIGAND FREE ENERGY PREDICTED BY IDOCK:   -2.72 KCAL/MOL
REMARK 924 INTRA-LIGAND FREE ENERGY PREDICTED BY IDOCK:    0.59 KCAL/MOL
REMARK 927      BINDING AFFINITY PREDICTED BY RF-SCORE:    0.00 PKD
ROOT
HETATM    1  C   UNL     1      -5.641   5.337  66.893  1.00  0.00    -0.017 C  
HETATM    2  C   UNL     1      -6.885   4.885  67.640  1.00  0.00    -0.060 C  
HETATM    3  C   UNL     1      -6.841   3.425  68.098  1.00  0.00    -0.049 C  
HETATM    4  C   UNL     1      -7.594   5.753  68.685  1.00  0.00    -0.089 C  
ENDROOT
BRANCH   4   5
HETATM    5  N   UNL     1      -6.992   6.730  69.639  1.00  0.00    -0.061 N  
BRANCH   5   6
HETATM    6  C   UNL     1      -7.943   7.964  69.668  1.00  0.00    -0.118 C  
BRANCH   6   7
HETATM    7  C   UNL     1      -9.399   7.720  70.276  1.00  0.00    -0.156 C  
BRANCH   7   8
HETATM    8  C   UNL     1     -10.532   7.844  69.141  1.00  0.00    -0.209 C  
BRANCH   8   9
HETATM    9  N   UNL     1     -10.035   8.470  67.902  1.00  0.00    -0.171 N  
HETATM   10  C   UNL     1     -10.494   9.696  67.493  1.00  0.00    -0.262 C  
HETATM   11  H   UNL     1      -9.337   7.983  67.341  1.00  0.00     0.000 HD 
HETATM   12  O   UNL     1     -11.279  10.405  68.100  1.00  0.00    -0.288 OA 
BRANCH  10  13
HETATM   13  O   UNL     1      -9.922  10.026  66.303  1.00  0.00    -0.218 OA 
BRANCH  13  14
HETATM   14  C   UNL     1      -8.962  11.096  66.366  1.00  0.00    -0.182 C  
HETATM   15  C   UNL     1      -9.551  12.462  66.098  1.00  0.00    -0.238 C  
HETATM   16  O   UNL     1      -8.211  12.643  68.034  1.00  0.00    -0.147 OA 
HETATM   17  C   UNL     1      -8.649  13.380  66.888  1.00  0.00    -0.100 C  
HETATM   18  C   UNL     1      -8.436  11.247  67.789  1.00  0.00    -0.126 C  
ENDBRANCH  13  14
ENDBRANCH  10  13
ENDBRANCH   8   9
BRANCH   8  19
HETATM   19  C   UNL     1     -11.366   6.580  68.823  1.00  0.00    -0.237 C  
BRANCH  19  20
HETATM   20  C   UNL     1     -10.848   5.647  67.762  1.00  0.00    -0.176 A  
HETATM   21  C   UNL     1     -10.642   5.006  65.432  1.00  0.00     0.110 A  
HETATM   22  C   UNL     1      -9.926   3.487  67.167  1.00  0.00     0.335 A  
HETATM   23  C   UNL     1     -10.289   4.420  68.137  1.00  0.00     0.276 A  
HETATM   24  C   UNL     1     -11.015   5.938  66.401  1.00  0.00    -0.023 A  
HETATM   25  C   UNL     1     -10.105   3.778  65.816  1.00  0.00     0.045 A  
ENDBRANCH  19  20
ENDBRANCH   8  19
ENDBRANCH   7   8
BRANCH   7  26
HETATM   26  O   UNL     1      -9.628   8.481  71.519  1.00  0.00    -0.183 OA 
HETATM   27  O   UNL     1     -11.487   7.086  73.832  1.00  0.00     0.548 OA 
HETATM   28  O   UNL     1      -9.229   7.125  73.351  1.00  0.00    -0.142 OA 
HETATM   29  O   UNL     1     -11.015   6.492  71.797  1.00  0.00    -0.232 OA 
HETATM   30  P   UNL     1     -10.608   7.744  72.739  1.00  0.00    -0.369 P  
ENDBRANCH   7  26
ENDBRANCH   6   7
ENDBRANCH   5   6
BRANCH   5  31
HETATM   31  S   UNL     1      -6.392   6.414  71.207  1.00  0.00    -0.050 S  
HETATM   32  O   UNL     1      -5.161   5.659  71.104  1.00  0.00    -0.008 OA 
HETATM   33  O   UNL     1      -7.477   5.859  71.992  1.00  0.00    -0.092 OA 
BRANCH  31  34
HETATM   34  C   UNL     1      -5.950   7.928  71.976  1.00  0.00    -0.040 A  
HETATM   35  N   UNL     1      -5.158  11.531  73.946  1.00  0.00    -0.282 NA 
HETATM   36  C   UNL     1      -5.726   9.078  71.220  1.00  0.00    -0.051 A  
HETATM   37  H1  UNL     1      -5.108  11.563  74.964  1.00  0.00     0.000 HD 
HETATM   38  H2  UNL     1      -5.863  12.203  73.640  1.00  0.00     0.000 HD 
HETATM   39  C   UNL     1      -6.050   8.003  73.367  1.00  0.00    -0.076 A  
HETATM   40  C   UNL     1      -5.774   9.197  74.015  1.00  0.00    -0.079 A  
HETATM   41  C   UNL     1      -5.458  10.277  71.884  1.00  0.00     0.134 A  
HETATM   42  C   UNL     1      -5.389  10.321  73.282  1.00  0.00     0.363 A  
ENDBRANCH  31  34
ENDBRANCH   5  31
ENDBRANCH   4   5
TORSDOF 12
ENDMDL
MODEL      345
REMARK 921   NORMALIZED FREE ENERGY PREDICTED BY IDOCK:    0.40 KCAL/MOL
REMARK 922        TOTAL FREE ENERGY PREDICTED BY IDOCK:   -2.12 KCAL/MOL
REMARK 923 INTER-LIGAND FREE ENERGY PREDICTED BY IDOCK:   -5.39 KCAL/MOL
REMARK 924 INTRA-LIGAND FREE ENERGY PREDICTED BY IDOCK:    3.27 KCAL/MOL
REMARK 927      BINDING AFFINITY PREDICTED BY RF-SCORE:    0.00 PKD
ROOT
HETATM    1  C   UNL     1      -9.000  11.144  66.391  1.00  0.00    -0.190 C  
HETATM    2  C   UNL     1      -7.748  10.338  66.698  1.00  0.00    -0.113 C  
HETATM    3  C   UNL     1      -6.652  10.460  65.637  1.00  0.00    -0.129 C  
HETATM    4  C   UNL     1      -7.131  10.256  68.099  1.00  0.00    -0.082 C  
ENDROOT
BRANCH   4   5
HETATM    5  N   UNL     1      -7.099  11.305  69.159  1.00  0.00    -0.116 N  
BRANCH   5   6
HETATM    6  C   UNL     1      -6.749  10.578  70.492  1.00  0.00     0.034 C  
BRANCH   6   7
HETATM    7  C   UNL     1      -7.325   9.099  70.662  1.00  0.00    -0.111 C  
BRANCH   7   8
HETATM    8  C   UNL     1      -8.502   8.807  69.606  1.00  0.00    -0.129 C  
BRANCH   8   9
HETATM    9  N   UNL     1      -8.184   7.700  68.686  1.00  0.00    -0.127 N  
HETATM   10  C   UNL     1      -7.164   6.823  68.956  1.00  0.00    -0.091 C  
HETATM   11  H   UNL     1      -8.733   7.583  67.835  1.00  0.00     0.000 HD 
HETATM   12  O   UNL     1      -6.474   6.817  69.962  1.00  0.00    -0.038 OA 
BRANCH  10  13
HETATM   13  O   UNL     1      -7.042   5.932  67.935  1.00  0.00    -0.067 OA 
BRANCH  13  14
HETATM   14  C   UNL     1      -8.287   5.470  67.381  1.00  0.00    -0.103 C  
HETATM   15  C   UNL     1      -8.295   5.399  65.871  1.00  0.00    -0.123 C  
HETATM   16  O   UNL     1      -9.183   3.363  66.674  1.00  0.00    -0.155 OA 
HETATM   17  C   UNL     1      -9.284   4.293  65.590  1.00  0.00    -0.148 C  
HETATM   18  C   UNL     1      -8.529   4.016  67.772  1.00  0.00    -0.095 C  
ENDBRANCH  13  14
ENDBRANCH  10  13
ENDBRANCH   8   9
BRANCH   8  19
HETATM   19  C   UNL     1      -9.940   8.669  70.159  1.00  0.00    -0.193 C  
BRANCH  19  20
HETATM   20  C   UNL     1     -10.314   7.371  70.822  1.00  0.00    -0.208 A  
HETATM   21  C   UNL     1     -10.351   4.945  70.845  1.00  0.00    -0.225 A  
HETATM   22  C   UNL     1     -11.646   6.185  72.463  1.00  0.00    -0.294 A  
HETATM   23  C   UNL     1     -11.184   7.382  71.919  1.00  0.00    -0.282 A  
HETATM   24  C   UNL     1      -9.894   6.143  70.293  1.00  0.00    -0.206 A  
HETATM   25  C   UNL     1     -11.233   4.968  71.924  1.00  0.00     0.132 A  
ENDBRANCH  19  20
ENDBRANCH   8  19
ENDBRANCH   7   8
BRANCH   7  26
HETATM   26  O   UNL     1      -7.606   8.760  72.070  1.00  0.00    -0.281 OA 
HETATM   27  O   UNL     1      -5.148   7.529  73.857  1.00  0.00    -0.042 OA 
HETATM   28  O   UNL     1      -5.962   9.647  73.433  1.00  0.00    -0.297 OA 
HETATM   29  O   UNL     1      -5.311   7.997  71.743  1.00  0.00    -0.034 OA 
HETATM   30  P   UNL     1      -6.309   8.111  73.013  1.00  0.00    -0.088 P  
ENDBRANCH   7  26
ENDBRANCH   6   7
ENDBRANCH   5   6
BRANCH   5  31
HETATM   31  S   UNL     1      -6.313  12.821  69.094  1.00  0.00    -0.111 S  
HETATM   32  O   UNL     1      -5.228  12.756  68.138  1.00  0.00    -0.063 OA 
HETATM   33  O   UNL     1      -6.012  13.223  70.453  1.00  0.00    -0.162 OA 
BRANCH  31  34
HETATM   34  C   UNL     1      -7.423  14.023  68.459  1.00  0.00    -0.124 A  
HETATM   35  N   UNL     1     -10.014  17.050  67.188  1.00  0.00    -0.273 NA 
HETATM   36  C   UNL     1      -8.772  13.725  68.269  1.00  0.00    -0.179 A  
HETATM   37  H1  UNL     1      -9.659  17.988  66.999  1.00  0.00     0.000 HD 
HETATM   38  H2  UNL     1     -10.756  17.125  67.885  1.00  0.00     0.000 HD 
HETATM   39  C   UNL     1      -6.970  15.341  68.364  1.00  0.00    -0.111 A  
HETATM   40  C   UNL     1      -7.830  16.337  67.931  1.00  0.00    -0.154 A  
HETATM   41  C   UNL     1      -9.632  14.739  67.841  1.00  0.00    -0.210 A  
HETATM   42  C   UNL     1      -9.145  16.027  67.580  1.00  0.00    -0.199 A  
ENDBRANCH  31  34
ENDBRANCH   5  31
ENDBRANCH   4   5
TORSDOF 12
ENDMDL
MODEL      346
REMARK 921   NORMALIZED FREE ENERGY PREDICTED BY IDOCK:    0.45 KCAL/MOL
REMARK 922        TOTAL FREE ENERGY PREDICTED BY IDOCK:   -2.04 KCAL/MOL
REMARK 923 INTER-LIGAND FREE ENERGY PREDICTED BY IDOCK:   -7.21 KCAL/MOL
REMARK 924 INTRA-LIGAND FREE ENERGY PREDICTED BY IDOCK:    5.17 KCAL/MOL
REMARK 927      BINDING AFFINITY PREDICTED BY RF-SCORE:    0.00 PKD
ROOT
HETATM    1  C   UNL     1      -5.826   9.657  67.145  1.00  0.00    -0.051 C  
HETATM    2  C   UNL     1      -6.213  11.069  67.551  1.00  0.00    -0.054 C  
HETATM    3  C   UNL     1      -6.329  12.046  66.378  1.00  0.00     0.566 C  
HETATM    4  C   UNL     1      -7.283  11.371  68.606  1.00  0.00    -0.100 C  
ENDROOT
BRANCH   4   5
HETATM    5  N   UNL     1      -8.526  10.603  68.910  1.00  0.00    -0.148 N  
BRANCH   5   6
HETATM    6  C   UNL     1      -9.607  11.651  69.314  1.00  0.00     0.405 C  
BRANCH   6   7
HETATM    7  C   UNL     1      -9.572  13.040  68.528  1.00  0.00    -0.111 C  
BRANCH   7   8
HETATM    8  C   UNL     1     -10.004  14.260  69.483  1.00  0.00     0.302 C  
BRANCH   8   9
HETATM    9  N   UNL     1      -8.999  15.337  69.524  1.00  0.00    -0.390 N  
HETATM   10  C   UNL     1      -7.700  15.112  69.144  1.00  0.00    -0.195 C  
HETATM   11  H   UNL     1      -9.274  16.267  69.840  1.00  0.00     0.000 HD 
HETATM   12  O   UNL     1      -7.258  14.068  68.695  1.00  0.00    -0.102 OA 
BRANCH  10  13
HETATM   13  O   UNL     1      -6.966  16.244  69.323  1.00  0.00    -0.199 OA 
BRANCH  13  14
HETATM   14  C   UNL     1      -6.805  17.055  68.146  1.00  0.00    -0.159 C  
HETATM   15  C   UNL     1      -7.863  18.123  67.990  1.00  0.00    -0.266 C  
HETATM   16  O   UNL     1      -5.769  19.152  67.624  1.00  0.00    -0.183 OA 
HETATM   17  C   UNL     1      -7.142  19.204  67.222  1.00  0.00    -0.210 C  
HETATM   18  C   UNL     1      -5.528  17.881  68.247  1.00  0.00    -0.152 C  
ENDBRANCH  13  14
ENDBRANCH  10  13
ENDBRANCH   8   9
BRANCH   8  19
HETATM   19  C   UNL     1     -11.426  14.840  69.303  1.00  0.00    -0.322 C  
BRANCH  19  20
HETATM   20  C   UNL     1     -12.442  14.550  70.375  1.00  0.00    -0.407 A  
HETATM   21  C   UNL     1     -13.973  15.315  72.095  1.00  0.00    -0.650 A  
HETATM   22  C   UNL     1     -13.464  12.962  71.894  1.00  0.00    -0.478 A  
HETATM   23  C   UNL     1     -12.626  13.234  70.813  1.00  0.00    -0.357 A  
HETATM   24  C   UNL     1     -13.128  15.589  71.019  1.00  0.00    -0.551 A  
HETATM   25  C   UNL     1     -14.134  14.002  72.536  1.00  0.00    -0.474 A  
ENDBRANCH  19  20
ENDBRANCH   8  19
ENDBRANCH   7   8
BRANCH   7  26
HETATM   26  O   UNL     1     -10.242  12.964  67.215  1.00  0.00    -0.231 OA 
HETATM   27  O   UNL     1     -10.539  15.743  65.500  1.00  0.00    -0.360 OA 
HETATM   28  O   UNL     1      -8.968  14.056  65.622  1.00  0.00     0.433 OA 
HETATM   29  O   UNL     1      -9.830  15.351  67.515  1.00  0.00    -0.216 OA 
HETATM   30  P   UNL     1     -10.398  14.431  66.310  1.00  0.00    -0.318 P  
ENDBRANCH   7  26
ENDBRANCH   6   7
ENDBRANCH   5   6
BRANCH   5  31
HETATM   31  S   UNL     1      -9.233   9.362  67.972  1.00  0.00    -0.129 S  
HETATM   32  O   UNL     1     -10.578   9.110  68.448  1.00  0.00    -0.214 OA 
HETATM   33  O   UNL     1      -8.299   8.255  67.926  1.00  0.00    -0.126 OA 
BRANCH  31  34
HETATM   34  C   UNL     1      -9.421   9.919  66.318  1.00  0.00    -0.193 A  
HETATM   35  N   UNL     1     -10.128  11.104  62.371  1.00  0.00    -0.420 NA 
HETATM   36  C   UNL     1      -8.533   9.518  65.321  1.00  0.00    -0.159 A  
HETATM   37  H1  UNL     1     -10.928  11.696  62.145  1.00  0.00     0.000 HD 
HETATM   38  H2  UNL     1     -10.191  10.255  61.808  1.00  0.00     0.000 HD 
HETATM   39  C   UNL     1     -10.603  10.584  65.987  1.00  0.00    -0.164 A  
HETATM   40  C   UNL     1     -10.826  10.985  64.679  1.00  0.00    -0.248 A  
HETATM   41  C   UNL     1      -8.772   9.920  64.005  1.00  0.00    -0.229 A  
HETATM   42  C   UNL     1      -9.869  10.734  63.694  1.00  0.00    -0.350 A  
ENDBRANCH  31  34
ENDBRANCH   5  31
ENDBRANCH   4   5
TORSDOF 12
ENDMDL
MODEL      347
REMARK 921   NORMALIZED FREE ENERGY PREDICTED BY IDOCK:    0.54 KCAL/MOL
REMARK 922        TOTAL FREE ENERGY PREDICTED BY IDOCK:   -1.88 KCAL/MOL
REMARK 923 INTER-LIGAND FREE ENERGY PREDICTED BY IDOCK:   -2.25 KCAL/MOL
REMARK 924 INTRA-LIGAND FREE ENERGY PREDICTED BY IDOCK:    0.37 KCAL/MOL
REMARK 927      BINDING AFFINITY PREDICTED BY RF-SCORE:    0.00 PKD
ROOT
HETATM    1  C   UNL     1      -9.442  14.753  64.696  1.00  0.00     1.736 C  
HETATM    2  C   UNL     1      -8.925  14.789  66.125  1.00  0.00    -0.061 C  
HETATM    3  C   UNL     1      -9.417  15.990  66.935  1.00  0.00    -0.242 C  
HETATM    4  C   UNL     1      -8.840  13.543  67.013  1.00  0.00    -0.211 C  
ENDROOT
BRANCH   4   5
HETATM    5  N   UNL     1      -9.745  12.357  67.035  1.00  0.00    -0.207 N  
BRANCH   5   6
HETATM    6  C   UNL     1      -8.827  11.099  67.089  1.00  0.00    -0.143 C  
BRANCH   6   7
HETATM    7  C   UNL     1      -9.294   9.845  66.217  1.00  0.00    -0.176 C  
BRANCH   7   8
HETATM    8  C   UNL     1      -9.154   8.475  67.048  1.00  0.00    -0.143 C  
BRANCH   8   9
HETATM    9  N   UNL     1      -9.553   7.290  66.267  1.00  0.00    -0.388 N  
HETATM   10  C   UNL     1     -10.357   6.320  66.810  1.00  0.00    -0.221 C  
HETATM   11  H   UNL     1      -9.225   7.190  65.307  1.00  0.00     0.000 HD 
HETATM   12  O   UNL     1     -10.861   6.348  67.920  1.00  0.00    -0.265 OA 
BRANCH  10  13
HETATM   13  O   UNL     1     -10.534   5.315  65.911  1.00  0.00    -0.145 OA 
BRANCH  13  14
HETATM   14  C   UNL     1      -9.652   4.190  66.076  1.00  0.00    -0.194 C  
HETATM   15  C   UNL     1      -8.189   4.565  66.144  1.00  0.00    -0.106 C  
HETATM   16  O   UNL     1      -8.612   3.070  67.923  1.00  0.00    -0.084 OA 
HETATM   17  C   UNL     1      -7.597   3.468  66.995  1.00  0.00    -0.079 C  
HETATM   18  C   UNL     1      -9.879   3.539  67.436  1.00  0.00     0.156 C  
ENDBRANCH  13  14
ENDBRANCH  10  13
ENDBRANCH   8   9
BRANCH   8  19
HETATM   19  C   UNL     1      -7.820   8.223  67.789  1.00  0.00    -0.114 C  
BRANCH  19  20
HETATM   20  C   UNL     1      -7.874   8.020  69.280  1.00  0.00    -0.114 A  
HETATM   21  C   UNL     1      -8.547   6.712  71.209  1.00  0.00    -0.126 A  
HETATM   22  C   UNL     1      -7.681   8.947  71.510  1.00  0.00    -0.097 A  
HETATM   23  C   UNL     1      -7.512   9.069  70.132  1.00  0.00    -0.072 A  
HETATM   24  C   UNL     1      -8.386   6.836  69.829  1.00  0.00    -0.132 A  
HETATM   25  C   UNL     1      -8.201   7.771  72.048  1.00  0.00    -0.134 A  
ENDBRANCH  19  20
ENDBRANCH   8  19
ENDBRANCH   7   8
BRANCH   7  26
HETATM   26  O   UNL     1      -8.718   9.854  64.860  1.00  0.00    -0.151 OA 
HETATM   27  O   UNL     1      -5.590  10.785  64.544  1.00  0.00    -0.117 OA 
HETATM   28  O   UNL     1      -6.672   8.772  64.871  1.00  0.00    -0.068 OA 
HETATM   29  O   UNL     1      -6.937  10.783  66.247  1.00  0.00    -0.125 OA 
HETATM   30  P   UNL     1      -7.067  10.344  64.693  1.00  0.00     0.141 P  
ENDBRANCH   7  26
ENDBRANCH   6   7
ENDBRANCH   5   6
BRANCH   5  31
HETATM   31  S   UNL     1     -11.122  12.122  68.019  1.00  0.00    -0.264 S  
HETATM   32  O   UNL     1     -10.856  11.061  68.968  1.00  0.00    -0.202 OA 
HETATM   33  O   UNL     1     -12.273  11.994  67.147  1.00  0.00    -0.505 OA 
BRANCH  31  34
HETATM   34  C   UNL     1     -11.395  13.559  68.989  1.00  0.00    -0.288 A  
HETATM   35  N   UNL     1     -12.076  16.805  71.536  1.00  0.00    -0.069 NA 
HETATM   36  C   UNL     1     -12.490  14.388  68.751  1.00  0.00     0.101 A  
HETATM   37  H1  UNL     1     -11.437  16.999  72.307  1.00  0.00     0.000 HD 
HETATM   38  H2  UNL     1     -13.015  16.695  71.920  1.00  0.00     0.000 HD 
HETATM   39  C   UNL     1     -10.620  13.723  70.139  1.00  0.00     0.942 A  
HETATM   40  C   UNL     1     -10.842  14.808  70.973  1.00  0.00     0.210 A  
HETATM   41  C   UNL     1     -12.710  15.473  69.603  1.00  0.00     0.092 A  
HETATM   42  C   UNL     1     -11.833  15.740  70.662  1.00  0.00    -0.385 A  
ENDBRANCH  31  34
ENDBRANCH   5  31
ENDBRANCH   4   5
TORSDOF 12
ENDMDL
MODEL      348
REMARK 921   NORMALIZED FREE ENERGY PREDICTED BY IDOCK:    0.57 KCAL/MOL
REMARK 922        TOTAL FREE ENERGY PREDICTED BY IDOCK:   -1.84 KCAL/MOL
REMARK 923 INTER-LIGAND FREE ENERGY PREDICTED BY IDOCK:   -6.01 KCAL/MOL
REMARK 924 INTRA-LIGAND FREE ENERGY PREDICTED BY IDOCK:    4.17 KCAL/MOL
REMARK 927      BINDING AFFINITY PREDICTED BY RF-SCORE:    0.00 PKD
ROOT
HETATM    1  C   UNL     1      -8.419  13.666  66.957  1.00  0.00    -0.141 C  
HETATM    2  C   UNL     1      -7.190  12.783  67.104  1.00  0.00    -0.014 C  
HETATM    3  C   UNL     1      -6.382  13.046  68.377  1.00  0.00    -0.082 C  
HETATM    4  C   UNL     1      -7.192  11.288  66.770  1.00  0.00    -0.142 C  
ENDROOT
BRANCH   4   5
HETATM    5  N   UNL     1      -8.305  10.306  66.924  1.00  0.00    -0.122 N  
BRANCH   5   6
HETATM    6  C   UNL     1      -8.285   9.842  68.411  1.00  0.00    -0.106 C  
BRANCH   6   7
HETATM    7  C   UNL     1      -8.830   8.370  68.700  1.00  0.00    -0.136 C  
BRANCH   7   8
HETATM    8  C   UNL     1      -8.475   7.901  70.197  1.00  0.00    -0.129 C  
BRANCH   8   9
HETATM    9  N   UNL     1      -9.355   6.823  70.682  1.00  0.00    -0.162 N  
HETATM   10  C   UNL     1     -10.711   6.866  70.479  1.00  0.00    -0.235 C  
HETATM   11  H   UNL     1      -8.948   6.029  71.177  1.00  0.00     0.000 HD 
HETATM   12  O   UNL     1     -11.313   7.724  69.855  1.00  0.00    -0.139 OA 
BRANCH  10  13
HETATM   13  O   UNL     1     -11.298   5.787  71.064  1.00  0.00    -0.214 OA 
BRANCH  13  14
HETATM   14  C   UNL     1     -10.446   5.040  71.952  1.00  0.00    -0.187 C  
HETATM   15  C   UNL     1     -11.148   4.535  73.192  1.00  0.00    -0.350 C  
HETATM   16  O   UNL     1      -9.918   2.729  72.297  1.00  0.00    -0.153 OA 
HETATM   17  C   UNL     1     -10.372   3.287  73.535  1.00  0.00    -0.152 C  
HETATM   18  C   UNL     1     -10.000   3.744  71.286  1.00  0.00    -0.094 C  
ENDBRANCH  13  14
ENDBRANCH  10  13
ENDBRANCH   8   9
BRANCH   8  19
HETATM   19  C   UNL     1      -6.994   7.590  70.516  1.00  0.00    -0.052 C  
BRANCH  19  20
HETATM   20  C   UNL     1      -6.562   7.639  71.957  1.00  0.00    -0.054 A  
HETATM   21  C   UNL     1      -6.036   8.900  73.962  1.00  0.00    -0.077 A  
HETATM   22  C   UNL     1      -5.528   6.541  73.854  1.00  0.00    -0.046 A  
HETATM   23  C   UNL     1      -6.055   6.485  72.565  1.00  0.00    -0.042 A  
HETATM   24  C   UNL     1      -6.556   8.847  72.668  1.00  0.00     0.082 A  
HETATM   25  C   UNL     1      -5.516   7.748  74.550  1.00  0.00    -0.066 A  
ENDBRANCH  19  20
ENDBRANCH   8  19
ENDBRANCH   7   8
BRANCH   7  26
HETATM   26  O   UNL     1      -8.499   7.422  67.619  1.00  0.00    -0.120 OA 
HETATM   27  O   UNL     1      -5.341   7.090  66.803  1.00  0.00    -0.020 OA 
HETATM   28  O   UNL     1      -6.765   6.044  68.288  1.00  0.00    -0.056 OA 
HETATM   29  O   UNL     1      -6.354   8.456  68.154  1.00  0.00    -0.053 OA 
HETATM   30  P   UNL     1      -6.832   7.247  67.189  1.00  0.00    -0.081 P  
ENDBRANCH   7  26
ENDBRANCH   6   7
ENDBRANCH   5   6
BRANCH   5  31
HETATM   31  S   UNL     1      -9.917  10.474  66.383  1.00  0.00    -0.225 S  
HETATM   32  O   UNL     1     -10.585   9.192  66.467  1.00  0.00    -0.174 OA 
HETATM   33  O   UNL     1      -9.887  11.153  65.103  1.00  0.00    -0.230 OA 
BRANCH  31  34
HETATM   34  C   UNL     1     -10.791  11.529  67.480  1.00  0.00    -0.237 A  
HETATM   35  N   UNL     1     -12.676  14.255  70.030  1.00  0.00    -0.466 NA 
HETATM   36  C   UNL     1     -10.881  11.234  68.840  1.00  0.00    -0.253 A  
HETATM   37  H1  UNL     1     -13.084  15.113  69.658  1.00  0.00     0.000 HD 
HETATM   38  H2  UNL     1     -12.001  14.509  70.752  1.00  0.00     0.000 HD 
HETATM   39  C   UNL     1     -11.196  12.775  66.998  1.00  0.00    -0.336 A  
HETATM   40  C   UNL     1     -11.831  13.670  67.845  1.00  0.00    -0.402 A  
HETATM   41  C   UNL     1     -11.515  12.147  69.686  1.00  0.00    -0.308 A  
HETATM   42  C   UNL     1     -12.075  13.325  69.176  1.00  0.00    -0.238 A  
ENDBRANCH  31  34
ENDBRANCH   5  31
ENDBRANCH   4   5
TORSDOF 12
ENDMDL
MODEL      349
REMARK 921   NORMALIZED FREE ENERGY PREDICTED BY IDOCK:    0.90 KCAL/MOL
REMARK 922        TOTAL FREE ENERGY PREDICTED BY IDOCK:   -1.26 KCAL/MOL
REMARK 923 INTER-LIGAND FREE ENERGY PREDICTED BY IDOCK:   -5.93 KCAL/MOL
REMARK 924 INTRA-LIGAND FREE ENERGY PREDICTED BY IDOCK:    4.67 KCAL/MOL
REMARK 927      BINDING AFFINITY PREDICTED BY RF-SCORE:    0.00 PKD
ROOT
HETATM    1  C   UNL     1     -11.847  19.289  67.393  1.00  0.00     1.749 C  
HETATM    2  C   UNL     1     -10.813  18.881  66.356  1.00  0.00    -0.231 C  
HETATM    3  C   UNL     1      -9.776  19.963  66.050  1.00  0.00    -0.469 C  
HETATM    4  C   UNL     1     -10.164  17.493  66.327  1.00  0.00    -0.355 C  
ENDROOT
BRANCH   4   5
HETATM    5  N   UNL     1      -9.826  16.604  67.477  1.00  0.00    -0.249 N  
BRANCH   5   6
HETATM    6  C   UNL     1      -9.270  15.283  66.868  1.00  0.00    -0.234 C  
BRANCH   6   7
HETATM    7  C   UNL     1      -9.159  14.038  67.861  1.00  0.00    -0.188 C  
BRANCH   7   8
HETATM    8  C   UNL     1     -10.553  13.771  68.618  1.00  0.00    -0.253 C  
BRANCH   8   9
HETATM    9  N   UNL     1     -11.198  12.513  68.202  1.00  0.00    -0.247 N  
HETATM   10  C   UNL     1     -10.619  11.693  67.266  1.00  0.00    -0.228 C  
HETATM   11  H   UNL     1     -12.091  12.247  68.617  1.00  0.00     0.000 HD 
HETATM   12  O   UNL     1      -9.532  11.865  66.740  1.00  0.00    -0.191 OA 
BRANCH  10  13
HETATM   13  O   UNL     1     -11.433  10.631  67.020  1.00  0.00    -0.304 OA 
BRANCH  13  14
HETATM   14  C   UNL     1     -11.002   9.389  67.605  1.00  0.00    -0.036 C  
HETATM   15  C   UNL     1     -10.319   8.458  66.629  1.00  0.00    -0.298 C  
HETATM   16  O   UNL     1      -8.977   8.546  68.570  1.00  0.00    -0.139 OA 
HETATM   17  C   UNL     1      -9.381   7.671  67.512  1.00  0.00    -0.139 C  
HETATM   18  C   UNL     1      -9.902   9.642  68.630  1.00  0.00    -0.161 C  
ENDBRANCH  13  14
ENDBRANCH  10  13
ENDBRANCH   8   9
BRANCH   8  19
HETATM   19  C   UNL     1     -10.568  13.915  70.158  1.00  0.00     0.811 C  
BRANCH  19  20
HETATM   20  C   UNL     1     -11.810  14.476  70.797  1.00  0.00    -0.367 A  
HETATM   21  C   UNL     1     -12.913  16.169  72.140  1.00  0.00    -0.171 A  
HETATM   22  C   UNL     1     -14.091  14.146  71.544  1.00  0.00    -0.343 A  
HETATM   23  C   UNL     1     -12.973  13.699  70.842  1.00  0.00    -0.256 A  
HETATM   24  C   UNL     1     -11.790  15.719  71.445  1.00  0.00    -0.503 A  
HETATM   25  C   UNL     1     -14.060  15.378  72.195  1.00  0.00    -0.651 A  
ENDBRANCH  19  20
ENDBRANCH   8  19
ENDBRANCH   7   8
BRANCH   7  26
HETATM   26  O   UNL     1      -7.952  14.095  68.707  1.00  0.00    -0.139 OA 
HETATM   27  O   UNL     1      -5.335  12.374  67.737  1.00  0.00    -0.074 OA 
HETATM   28  O   UNL     1      -6.096  14.526  67.396  1.00  0.00    -0.340 OA 
HETATM   29  O   UNL     1      -7.367  12.474  66.979  1.00  0.00    -0.099 OA 
HETATM   30  P   UNL     1      -6.571  13.187  68.195  1.00  0.00    -0.148 P  
ENDBRANCH   7  26
ENDBRANCH   6   7
ENDBRANCH   5   6
BRANCH   5  31
HETATM   31  S   UNL     1      -8.947  17.018  68.883  1.00  0.00    -0.153 S  
HETATM   32  O   UNL     1      -8.161  15.878  69.308  1.00  0.00    -0.226 OA 
HETATM   33  O   UNL     1      -9.875  17.607  69.828  1.00  0.00     0.275 OA 
BRANCH  31  34
HETATM   34  C   UNL     1      -7.780  18.269  68.491  1.00  0.00    -0.305 A  
HETATM   35  N   UNL     1      -5.200  21.362  67.368  1.00  0.00    -0.345 NA 
HETATM   36  C   UNL     1      -6.556  17.951  67.905  1.00  0.00    -0.188 A  
HETATM   37  H1  UNL     1      -5.454  22.335  67.540  1.00  0.00     0.000 HD 
HETATM   38  H2  UNL     1      -5.014  21.253  66.370  1.00  0.00     0.000 HD 
HETATM   39  C   UNL     1      -8.202  19.598  68.572  1.00  0.00    -0.332 A  
HETATM   40  C   UNL     1      -7.337  20.620  68.210  1.00  0.00    -0.003 A  
HETATM   41  C   UNL     1      -5.697  18.988  67.536  1.00  0.00    -0.176 A  
HETATM   42  C   UNL     1      -6.045  20.324  67.773  1.00  0.00    -0.228 A  
ENDBRANCH  31  34
ENDBRANCH   5  31
ENDBRANCH   4   5
TORSDOF 12
ENDMDL
MODEL      350
REMARK 921   NORMALIZED FREE ENERGY PREDICTED BY IDOCK:    1.41 KCAL/MOL
REMARK 922        TOTAL FREE ENERGY PREDICTED BY IDOCK:   -0.40 KCAL/MOL
REMARK 923 INTER-LIGAND FREE ENERGY PREDICTED BY IDOCK:   -1.53 KCAL/MOL
REMARK 924 INTRA-LIGAND FREE ENERGY PREDICTED BY IDOCK:    1.13 KCAL/MOL
REMARK 927      BINDING AFFINITY PREDICTED BY RF-SCORE:    0.00 PKD
ROOT
HETATM    1  C   UNL     1      -6.966  10.999  66.653  1.00  0.00    -0.140 C  
HETATM    2  C   UNL     1      -6.833  10.412  68.048  1.00  0.00    -0.069 C  
HETATM    3  C   UNL     1      -5.529  10.783  68.759  1.00  0.00    -0.040 C  
HETATM    4  C   UNL     1      -7.994  10.366  69.048  1.00  0.00    -0.131 C  
ENDROOT
BRANCH   4   5
HETATM    5  N   UNL     1      -9.105  11.346  69.223  1.00  0.00     0.210 N  
BRANCH   5   6
HETATM    6  C   UNL     1      -8.582  12.710  68.681  1.00  0.00     0.046 C  
BRANCH   6   7
HETATM    7  C   UNL     1      -8.067  13.754  69.774  1.00  0.00     1.203 C  
BRANCH   7   8
HETATM    8  C   UNL     1      -8.915  15.119  69.721  1.00  0.00     0.046 C  
BRANCH   8   9
HETATM    9  N   UNL     1      -8.165  16.236  69.120  1.00  0.00    -0.239 N  
HETATM   10  C   UNL     1      -8.562  17.537  69.299  1.00  0.00     0.252 C  
HETATM   11  H   UNL     1      -7.335  16.038  68.561  1.00  0.00     0.000 HD 
HETATM   12  O   UNL     1      -9.497  17.910  69.988  1.00  0.00     1.047 OA 
BRANCH  10  13
HETATM   13  O   UNL     1      -7.739  18.368  68.604  1.00  0.00    -0.297 OA 
BRANCH  13  14
HETATM   14  C   UNL     1      -8.412  19.336  67.778  1.00  0.00    -0.305 C  
HETATM   15  C   UNL     1      -8.070  19.231  66.310  1.00  0.00    -0.322 C  
HETATM   16  O   UNL     1     -10.420  19.393  66.472  1.00  0.00    -0.411 OA 
HETATM   17  C   UNL     1      -9.316  19.750  65.634  1.00  0.00     0.188 C  
HETATM   18  C   UNL     1      -9.914  19.075  67.777  1.00  0.00    -0.357 C  
ENDBRANCH  13  14
ENDBRANCH  10  13
ENDBRANCH   8   9
BRANCH   8  19
HETATM   19  C   UNL     1     -10.350  15.046  69.146  1.00  0.00    -0.249 C  
BRANCH  19  20
HETATM   20  C   UNL     1     -10.546  15.419  67.701  1.00  0.00    -0.280 A  
HETATM   21  C   UNL     1     -11.907  15.444  65.693  1.00  0.00     0.268 A  
HETATM   22  C   UNL     1      -9.585  16.099  65.583  1.00  0.00    -0.185 A  
HETATM   23  C   UNL     1      -9.455  15.876  66.953  1.00  0.00    -0.242 A  
HETATM   24  C   UNL     1     -11.776  15.211  67.063  1.00  0.00    -0.119 A  
HETATM   25  C   UNL     1     -10.809  15.880  64.954  1.00  0.00    -0.420 A  
ENDBRANCH  19  20
ENDBRANCH   8  19
ENDBRANCH   7   8
BRANCH   7  26
HETATM   26  O   UNL     1      -6.598  13.892  69.775  1.00  0.00    -0.117 OA 
HETATM   27  O   UNL     1      -5.154  14.722  72.600  1.00  0.00    -0.209 OA 
HETATM   28  O   UNL     1      -5.704  12.733  71.567  1.00  0.00    -0.388 OA 
HETATM   29  O   UNL     1      -7.244  14.583  72.025  1.00  0.00     1.840 OA 
HETATM   30  P   UNL     1      -5.836  14.330  71.266  1.00  0.00    -0.011 P  
ENDBRANCH   7  26
ENDBRANCH   6   7
ENDBRANCH   5   6
BRANCH   5  31
HETATM   31  S   UNL     1     -10.748  11.137  68.800  1.00  0.00    -0.212 S  
HETATM   32  O   UNL     1     -11.516  12.258  69.300  1.00  0.00    -0.264 OA 
HETATM   33  O   UNL     1     -11.140   9.800  69.196  1.00  0.00    -0.204 OA 
BRANCH  31  34
HETATM   34  C   UNL     1     -10.910  11.202  67.053  1.00  0.00    -0.284 A  
HETATM   35  N   UNL     1     -11.577  11.260  62.925  1.00  0.00    -0.684 NA 
HETATM   36  C   UNL     1     -10.126  10.397  66.229  1.00  0.00    -0.292 A  
HETATM   37  H1  UNL     1     -12.289  11.872  62.526  1.00  0.00     0.000 HD 
HETATM   38  H2  UNL     1     -11.782  10.302  62.640  1.00  0.00     0.000 HD 
HETATM   39  C   UNL     1     -11.994  11.909  66.528  1.00  0.00     0.037 A  
HETATM   40  C   UNL     1     -12.203  11.934  65.158  1.00  0.00     0.091 A  
HETATM   41  C   UNL     1     -10.350  10.423  64.851  1.00  0.00    -0.238 A  
HETATM   42  C   UNL     1     -11.328  11.263  64.302  1.00  0.00    -0.045 A  
ENDBRANCH  31  34
ENDBRANCH   5  31
ENDBRANCH   4   5
TORSDOF 12
ENDMDL
MODEL      351
REMARK 921   NORMALIZED FREE ENERGY PREDICTED BY IDOCK:    1.70 KCAL/MOL
REMARK 922        TOTAL FREE ENERGY PREDICTED BY IDOCK:    0.09 KCAL/MOL
REMARK 923 INTER-LIGAND FREE ENERGY PREDICTED BY IDOCK:   -4.05 KCAL/MOL
REMARK 924 INTRA-LIGAND FREE ENERGY PREDICTED BY IDOCK:    4.13 KCAL/MOL
REMARK 927      BINDING AFFINITY PREDICTED BY RF-SCORE:    0.00 PKD
ROOT
HETATM    1  C   UNL     1      -9.003  11.122  66.393  1.00  0.00    -0.190 C  
HETATM    2  C   UNL     1      -7.836  10.192  66.683  1.00  0.00    -0.110 C  
HETATM    3  C   UNL     1      -6.645  10.374  65.740  1.00  0.00    -0.126 C  
HETATM    4  C   UNL     1      -7.352   9.878  68.103  1.00  0.00    -0.080 C  
ENDROOT
BRANCH   4   5
HETATM    5  N   UNL     1      -7.349  10.771  69.299  1.00  0.00    -0.118 N  
BRANCH   5   6
HETATM    6  C   UNL     1      -7.267   9.841  70.546  1.00  0.00    -0.120 C  
BRANCH   6   7
HETATM    7  C   UNL     1      -7.903   8.385  70.386  1.00  0.00    -0.090 C  
BRANCH   7   8
HETATM    8  C   UNL     1      -6.821   7.336  69.825  1.00  0.00    -0.053 C  
BRANCH   8   9
HETATM    9  N   UNL     1      -6.540   6.242  70.772  1.00  0.00    -0.051 N  
HETATM   10  C   UNL     1      -7.367   5.997  71.839  1.00  0.00    -0.094 C  
HETATM   11  H   UNL     1      -5.717   5.657  70.632  1.00  0.00     0.000 HD 
HETATM   12  O   UNL     1      -8.408   6.582  72.086  1.00  0.00    -0.108 OA 
BRANCH  10  13
HETATM   13  O   UNL     1      -6.863   4.977  72.586  1.00  0.00    -0.065 OA 
BRANCH  13  14
HETATM   14  C   UNL     1      -6.284   3.899  71.828  1.00  0.00    -0.014 C  
HETATM   15  C   UNL     1      -7.303   2.977  71.199  1.00  0.00    -0.033 C  
HETATM   16  O   UNL     1      -5.720   3.514  69.531  1.00  0.00    -0.016 OA 
HETATM   17  C   UNL     1      -6.584   2.463  69.975  1.00  0.00    -0.033 C  
HETATM   18  C   UNL     1      -5.552   4.447  70.608  1.00  0.00    -0.012 C  
ENDBRANCH  13  14
ENDBRANCH  10  13
ENDBRANCH   8   9
BRANCH   8  19
HETATM   19  C   UNL     1      -7.035   6.785  68.395  1.00  0.00    -0.077 C  
BRANCH  19  20
HETATM   20  C   UNL     1      -8.070   5.708  68.206  1.00  0.00    -0.103 A  
HETATM   21  C   UNL     1      -8.911   3.776  67.004  1.00  0.00    -0.137 A  
HETATM   22  C   UNL     1     -10.299   4.870  68.650  1.00  0.00    -0.041 A  
HETATM   23  C   UNL     1      -9.277   5.781  68.910  1.00  0.00    -0.127 A  
HETATM   24  C   UNL     1      -7.890   4.693  67.256  1.00  0.00    -0.090 A  
HETATM   25  C   UNL     1     -10.117   3.870  67.696  1.00  0.00     0.248 A  
ENDBRANCH  19  20
ENDBRANCH   8  19
ENDBRANCH   7   8
BRANCH   7  26
HETATM   26  O   UNL     1      -9.210   8.411  69.702  1.00  0.00    -0.158 OA 
HETATM   27  O   UNL     1     -11.889   8.759  71.559  1.00  0.00    -0.275 OA 
HETATM   28  O   UNL     1     -10.458  10.203  70.466  1.00  0.00    -0.261 OA 
HETATM   29  O   UNL     1      -9.798   8.472  72.070  1.00  0.00    -0.254 OA 
HETATM   30  P   UNL     1     -10.624   8.595  70.682  1.00  0.00    -0.233 P  
ENDBRANCH   7  26
ENDBRANCH   6   7
ENDBRANCH   5   6
BRANCH   5  31
HETATM   31  S   UNL     1      -6.400  12.170  69.546  1.00  0.00    -0.106 S  
HETATM   32  O   UNL     1      -5.194  12.076  68.750  1.00  0.00    -0.050 OA 
HETATM   33  O   UNL     1      -6.269  12.369  70.976  1.00  0.00    -0.064 OA 
BRANCH  31  34
HETATM   34  C   UNL     1      -7.259  13.571  68.929  1.00  0.00    -0.070 A  
HETATM   35  N   UNL     1      -9.272  17.033  67.726  1.00  0.00    -0.233 NA 
HETATM   36  C   UNL     1      -8.584  13.472  68.507  1.00  0.00    -0.088 A  
HETATM   37  H1  UNL     1      -8.793  17.933  67.720  1.00  0.00     0.000 HD 
HETATM   38  H2  UNL     1     -10.103  17.117  68.312  1.00  0.00     0.000 HD 
HETATM   39  C   UNL     1      -6.657  14.821  69.083  1.00  0.00    -0.114 A  
HETATM   40  C   UNL     1      -7.324  15.964  68.671  1.00  0.00    -0.141 A  
HETATM   41  C   UNL     1      -9.250  14.631  68.103  1.00  0.00    -0.192 A  
HETATM   42  C   UNL     1      -8.592  15.868  68.095  1.00  0.00    -0.169 A  
ENDBRANCH  31  34
ENDBRANCH   5  31
ENDBRANCH   4   5
TORSDOF 12
ENDMDL
MODEL      352
REMARK 921   NORMALIZED FREE ENERGY PREDICTED BY IDOCK:    1.75 KCAL/MOL
REMARK 922        TOTAL FREE ENERGY PREDICTED BY IDOCK:    0.18 KCAL/MOL
REMARK 923 INTER-LIGAND FREE ENERGY PREDICTED BY IDOCK:   -3.89 KCAL/MOL
REMARK 924 INTRA-LIGAND FREE ENERGY PREDICTED BY IDOCK:    4.07 KCAL/MOL
REMARK 927      BINDING AFFINITY PREDICTED BY RF-SCORE:    0.00 PKD
ROOT
HETATM    1  C   UNL     1     -12.748  13.682  70.977  1.00  0.00    -0.408 C  
HETATM    2  C   UNL     1     -12.497  15.168  70.776  1.00  0.00    -0.429 C  
HETATM    3  C   UNL     1     -11.903  15.871  71.999  1.00  0.00    -0.609 C  
HETATM    4  C   UNL     1     -11.907  15.748  69.486  1.00  0.00    -0.347 C  
ENDROOT
BRANCH   4   5
HETATM    5  N   UNL     1     -10.906  15.132  68.567  1.00  0.00    -0.239 N  
BRANCH   5   6
HETATM    6  C   UNL     1     -10.993  13.592  68.786  1.00  0.00    -0.261 C  
BRANCH   6   7
HETATM    7  C   UNL     1      -9.630  12.776  68.618  1.00  0.00    -0.021 C  
BRANCH   7   8
HETATM    8  C   UNL     1      -9.895  11.190  68.645  1.00  0.00    -0.202 C  
BRANCH   8   9
HETATM    9  N   UNL     1     -10.686  10.723  67.492  1.00  0.00    -0.244 N  
HETATM   10  C   UNL     1     -10.595  11.341  66.271  1.00  0.00    -0.263 C  
HETATM   11  H   UNL     1     -11.312   9.925  67.605  1.00  0.00     0.000 HD 
HETATM   12  O   UNL     1      -9.847  12.262  65.990  1.00  0.00    -0.241 OA 
BRANCH  10  13
HETATM   13  O   UNL     1     -11.459  10.758  65.396  1.00  0.00     0.399 OA 
BRANCH  13  14
HETATM   14  C   UNL     1     -11.952  11.626  64.360  1.00  0.00    -0.050 C  
HETATM   15  C   UNL     1     -13.344  12.156  64.617  1.00  0.00     0.975 C  
HETATM   16  O   UNL     1     -12.005  13.990  63.971  1.00  0.00    -0.426 OA 
HETATM   17  C   UNL     1     -13.340  13.482  63.895  1.00  0.00     1.891 C  
HETATM   18  C   UNL     1     -11.126  12.907  64.309  1.00  0.00    -0.378 C  
ENDBRANCH  13  14
ENDBRANCH  10  13
ENDBRANCH   8   9
BRANCH   8  19
HETATM   19  C   UNL     1      -8.677  10.267  68.888  1.00  0.00    -0.152 C  
BRANCH  19  20
HETATM   20  C   UNL     1      -8.196   9.424  67.738  1.00  0.00    -0.114 A  
HETATM   21  C   UNL     1      -8.135   7.309  66.552  1.00  0.00    -0.114 A  
HETATM   22  C   UNL     1      -6.621   9.085  65.929  1.00  0.00    -0.064 A  
HETATM   23  C   UNL     1      -7.171   9.902  66.915  1.00  0.00    -0.090 A  
HETATM   24  C   UNL     1      -8.680   8.123  67.545  1.00  0.00    -0.129 A  
HETATM   25  C   UNL     1      -7.100   7.789  65.750  1.00  0.00    -0.061 A  
ENDBRANCH  19  20
ENDBRANCH   8  19
ENDBRANCH   7   8
BRANCH   7  26
HETATM   26  O   UNL     1      -8.558  13.279  69.498  1.00  0.00     0.924 OA 
HETATM   27  O   UNL     1      -5.818  14.381  68.075  1.00  0.00    -0.127 OA 
HETATM   28  O   UNL     1      -7.815  15.332  68.733  1.00  0.00    -0.133 OA 
HETATM   29  O   UNL     1      -7.570  13.383  67.269  1.00  0.00    -0.147 OA 
HETATM   30  P   UNL     1      -7.112  13.861  68.747  1.00  0.00    -0.099 P  
ENDBRANCH   7  26
ENDBRANCH   6   7
ENDBRANCH   5   6
BRANCH   5  31
HETATM   31  S   UNL     1     -10.668  15.478  66.911  1.00  0.00    -0.303 S  
HETATM   32  O   UNL     1     -11.954  15.572  66.253  1.00  0.00     0.309 OA 
HETATM   33  O   UNL     1      -9.697  14.533  66.396  1.00  0.00    -0.269 OA 
BRANCH  31  34
HETATM   34  C   UNL     1      -9.943  17.069  66.749  1.00  0.00    -0.295 A  
HETATM   35  N   UNL     1      -7.977  20.751  66.500  1.00  0.00    -0.527 NA 
HETATM   36  C   UNL     1     -10.507  18.181  67.373  1.00  0.00    -0.414 A  
HETATM   37  H1  UNL     1      -7.109  20.838  65.971  1.00  0.00     0.000 HD 
HETATM   38  H2  UNL     1      -7.802  21.065  67.455  1.00  0.00     0.000 HD 
HETATM   39  C   UNL     1      -8.674  17.148  66.171  1.00  0.00    -0.223 A  
HETATM   40  C   UNL     1      -8.033  18.374  66.081  1.00  0.00    -0.217 A  
HETATM   41  C   UNL     1      -9.847  19.409  67.283  1.00  0.00    -0.445 A  
HETATM   42  C   UNL     1      -8.655  19.529  66.557  1.00  0.00    -0.348 A  
ENDBRANCH  31  34
ENDBRANCH   5  31
ENDBRANCH   4   5
TORSDOF 12
ENDMDL
MODEL      353
REMARK 921   NORMALIZED FREE ENERGY PREDICTED BY IDOCK:    1.97 KCAL/MOL
REMARK 922        TOTAL FREE ENERGY PREDICTED BY IDOCK:    0.54 KCAL/MOL
REMARK 923 INTER-LIGAND FREE ENERGY PREDICTED BY IDOCK:   -6.06 KCAL/MOL
REMARK 924 INTRA-LIGAND FREE ENERGY PREDICTED BY IDOCK:    6.60 KCAL/MOL
REMARK 927      BINDING AFFINITY PREDICTED BY RF-SCORE:    0.00 PKD
ROOT
HETATM    1  C   UNL     1      -8.229  12.603  68.846  1.00  0.00     0.241 C  
HETATM    2  C   UNL     1      -9.508  11.782  68.816  1.00  0.00    -0.037 C  
HETATM    3  C   UNL     1     -10.762  12.593  68.482  1.00  0.00    -0.271 C  
HETATM    4  C   UNL     1      -9.589  10.387  68.185  1.00  0.00    -0.144 C  
ENDROOT
BRANCH   4   5
HETATM    5  N   UNL     1      -8.848   9.861  67.002  1.00  0.00    -0.134 N  
BRANCH   5   6
HETATM    6  C   UNL     1      -7.544   9.208  67.550  1.00  0.00    -0.088 C  
BRANCH   6   7
HETATM    7  C   UNL     1      -7.723   7.850  68.369  1.00  0.00    -0.114 C  
BRANCH   7   8
HETATM    8  C   UNL     1      -9.060   7.881  69.262  1.00  0.00    -0.148 C  
BRANCH   8   9
HETATM    9  N   UNL     1      -9.395   6.566  69.837  1.00  0.00    -0.152 N  
HETATM   10  C   UNL     1     -10.606   5.970  69.590  1.00  0.00    -0.300 C  
HETATM   11  H   UNL     1      -8.714   6.090  70.429  1.00  0.00     0.000 HD 
HETATM   12  O   UNL     1     -11.479   6.403  68.857  1.00  0.00    -0.314 OA 
BRANCH  10  13
HETATM   13  O   UNL     1     -10.688   4.796  70.273  1.00  0.00     0.015 OA 
BRANCH  13  14
HETATM   14  C   UNL     1     -10.018   4.787  71.546  1.00  0.00    -0.194 C  
HETATM   15  C   UNL     1     -10.341   5.980  72.416  1.00  0.00    -0.224 C  
HETATM   16  O   UNL     1     -10.541   4.053  73.766  1.00  0.00    -0.171 OA 
HETATM   17  C   UNL     1     -10.172   5.436  73.814  1.00  0.00    -0.223 C  
HETATM   18  C   UNL     1     -10.519   3.625  72.397  1.00  0.00    -0.042 C  
ENDBRANCH  13  14
ENDBRANCH  10  13
ENDBRANCH   8   9
BRANCH   8  19
HETATM   19  C   UNL     1      -9.181   8.996  70.328  1.00  0.00    -0.229 C  
BRANCH  19  20
HETATM   20  C   UNL     1     -10.562   9.389  70.778  1.00  0.00    -0.371 A  
HETATM   21  C   UNL     1     -12.470  10.884  70.676  1.00  0.00    -0.460 A  
HETATM   22  C   UNL     1     -12.349   9.200  72.404  1.00  0.00    -0.310 A  
HETATM   23  C   UNL     1     -11.130   8.760  71.892  1.00  0.00    -0.434 A  
HETATM   24  C   UNL     1     -11.245  10.450  70.168  1.00  0.00    -0.393 A  
HETATM   25  C   UNL     1     -13.017  10.263  71.798  1.00  0.00    -0.574 A  
ENDBRANCH  19  20
ENDBRANCH   8  19
ENDBRANCH   7   8
BRANCH   7  26
HETATM   26  O   UNL     1      -6.485   7.434  69.054  1.00  0.00    -0.038 OA 
HETATM   27  O   UNL     1      -5.790   4.230  69.122  1.00  0.00    -0.020 OA 
HETATM   28  O   UNL     1      -5.293   5.982  67.703  1.00  0.00    -0.004 OA 
HETATM   29  O   UNL     1      -7.536   5.321  68.433  1.00  0.00    -0.078 OA 
HETATM   30  P   UNL     1      -6.118   5.743  69.089  1.00  0.00    -0.027 P  
ENDBRANCH   7  26
ENDBRANCH   6   7
ENDBRANCH   5   6
BRANCH   5  31
HETATM   31  S   UNL     1      -9.476   8.928  65.716  1.00  0.00    -0.148 S  
HETATM   32  O   UNL     1     -10.193   9.794  64.803  1.00  0.00    -0.007 OA 
HETATM   33  O   UNL     1     -10.179   7.798  66.290  1.00  0.00    -0.082 OA 
BRANCH  31  34
HETATM   34  C   UNL     1      -8.149   8.261  64.780  1.00  0.00    -0.151 A  
HETATM   35  N   UNL     1      -5.190   6.559  62.364  1.00  0.00    -0.022 NA 
HETATM   36  C   UNL     1      -7.295   7.304  65.327  1.00  0.00    -0.080 A  
HETATM   37  H1  UNL     1      -5.082   6.856  61.395  1.00  0.00     0.000 HD 
HETATM   38  H2  UNL     1      -5.337   5.549  62.374  1.00  0.00     0.000 HD 
HETATM   39  C   UNL     1      -8.112   8.543  63.413  1.00  0.00    -0.160 A  
HETATM   40  C   UNL     1      -7.121   7.986  62.620  1.00  0.00    -0.087 A  
HETATM   41  C   UNL     1      -6.307   6.743  64.517  1.00  0.00    -0.039 A  
HETATM   42  C   UNL     1      -6.157   7.150  63.185  1.00  0.00    -0.045 A  
ENDBRANCH  31  34
ENDBRANCH   5  31
ENDBRANCH   4   5
TORSDOF 12
ENDMDL
MODEL      354
REMARK 921   NORMALIZED FREE ENERGY PREDICTED BY IDOCK:    2.04 KCAL/MOL
REMARK 922        TOTAL FREE ENERGY PREDICTED BY IDOCK:    0.67 KCAL/MOL
REMARK 923 INTER-LIGAND FREE ENERGY PREDICTED BY IDOCK:   -3.46 KCAL/MOL
REMARK 924 INTRA-LIGAND FREE ENERGY PREDICTED BY IDOCK:    4.13 KCAL/MOL
REMARK 927      BINDING AFFINITY PREDICTED BY RF-SCORE:    0.00 PKD
ROOT
HETATM    1  C   UNL     1      -5.525   9.312  68.074  1.00  0.00    -0.037 C  
HETATM    2  C   UNL     1      -5.759  10.257  66.906  1.00  0.00    -0.046 C  
HETATM    3  C   UNL     1      -5.475   9.636  65.536  1.00  0.00    -0.045 C  
HETATM    4  C   UNL     1      -6.961  11.204  66.826  1.00  0.00    -0.137 C  
ENDROOT
BRANCH   4   5
HETATM    5  N   UNL     1      -8.346  10.988  67.339  1.00  0.00    -0.124 N  
BRANCH   5   6
HETATM    6  C   UNL     1      -8.201  10.465  68.799  1.00  0.00    -0.128 C  
BRANCH   6   7
HETATM    7  C   UNL     1      -8.519   8.918  69.031  1.00  0.00    -0.133 C  
BRANCH   7   8
HETATM    8  C   UNL     1      -7.676   8.329  70.268  1.00  0.00    -0.084 C  
BRANCH   8   9
HETATM    9  N   UNL     1      -6.464   9.115  70.559  1.00  0.00    -0.049 N  
HETATM   10  C   UNL     1      -6.530  10.466  70.787  1.00  0.00     0.046 C  
HETATM   11  H   UNL     1      -5.559   8.646  70.592  1.00  0.00     0.000 HD 
HETATM   12  O   UNL     1      -7.550  11.133  70.834  1.00  0.00     1.852 OA 
BRANCH  10  13
HETATM   13  O   UNL     1      -5.278  10.962  70.978  1.00  0.00    -0.096 OA 
BRANCH  13  14
HETATM   14  C   UNL     1      -5.129  12.364  70.688  1.00  0.00    -0.124 C  
HETATM   15  C   UNL     1      -6.248  12.936  69.847  1.00  0.00    -0.086 C  
HETATM   16  O   UNL     1      -5.901  14.417  71.653  1.00  0.00    -0.155 OA 
HETATM   17  C   UNL     1      -6.287  14.383  70.275  1.00  0.00    -0.158 C  
HETATM   18  C   UNL     1      -5.242  13.182  71.970  1.00  0.00    -0.048 C  
ENDBRANCH  13  14
ENDBRANCH  10  13
ENDBRANCH   8   9
BRANCH   8  19
HETATM   19  C   UNL     1      -8.449   8.005  71.569  1.00  0.00    -0.147 C  
BRANCH  19  20
HETATM   20  C   UNL     1      -9.292   6.759  71.591  1.00  0.00    -0.151 A  
HETATM   21  C   UNL     1     -11.228   5.534  72.388  1.00  0.00    -0.305 A  
HETATM   22  C   UNL     1      -9.502   4.386  71.149  1.00  0.00    -0.228 A  
HETATM   23  C   UNL     1      -8.796   5.581  71.022  1.00  0.00    -0.148 A  
HETATM   24  C   UNL     1     -10.518   6.729  72.270  1.00  0.00    -0.233 A  
HETATM   25  C   UNL     1     -10.715   4.362  71.834  1.00  0.00     0.084 A  
ENDBRANCH  19  20
ENDBRANCH   8  19
ENDBRANCH   7   8
BRANCH   7  26
HETATM   26  O   UNL     1      -8.480   8.138  67.779  1.00  0.00    -0.129 OA 
HETATM   27  O   UNL     1     -11.107   6.321  67.039  1.00  0.00    -0.362 OA 
HETATM   28  O   UNL     1     -10.430   8.480  66.583  1.00  0.00    -0.289 OA 
HETATM   29  O   UNL     1     -10.589   7.469  68.809  1.00  0.00    -0.206 OA 
HETATM   30  P   UNL     1      -9.866   7.180  67.389  1.00  0.00    -0.188 P  
ENDBRANCH   7  26
ENDBRANCH   6   7
ENDBRANCH   5   6
BRANCH   5  31
HETATM   31  S   UNL     1      -9.672  12.060  67.228  1.00  0.00    -0.187 S  
HETATM   32  O   UNL     1     -10.493  11.688  66.095  1.00  0.00    -0.232 OA 
HETATM   33  O   UNL     1      -9.154  13.412  67.290  1.00  0.00    -0.203 OA 
BRANCH  31  34
HETATM   34  C   UNL     1     -10.700  11.860  68.636  1.00  0.00    -0.235 A  
HETATM   35  N   UNL     1     -13.382  11.370  71.807  1.00  0.00    -0.354 NA 
HETATM   36  C   UNL     1     -10.800  12.863  69.599  1.00  0.00     0.281 A  
HETATM   37  H1  UNL     1     -13.938  10.519  71.886  1.00  0.00     0.000 HD 
HETATM   38  H2  UNL     1     -14.019  12.167  71.789  1.00  0.00     0.000 HD 
HETATM   39  C   UNL     1     -11.579  10.776  68.649  1.00  0.00    -0.342 A  
HETATM   40  C   UNL     1     -12.457  10.612  69.709  1.00  0.00    -0.187 A  
HETATM   41  C   UNL     1     -11.695  12.692  70.658  1.00  0.00     0.204 A  
HETATM   42  C   UNL     1     -12.459  11.523  70.767  1.00  0.00    -0.349 A  
ENDBRANCH  31  34
ENDBRANCH   5  31
ENDBRANCH   4   5
TORSDOF 12
ENDMDL
MODEL      355
REMARK 921   NORMALIZED FREE ENERGY PREDICTED BY IDOCK:    2.25 KCAL/MOL
REMARK 922        TOTAL FREE ENERGY PREDICTED BY IDOCK:    1.03 KCAL/MOL
REMARK 923 INTER-LIGAND FREE ENERGY PREDICTED BY IDOCK:   -6.58 KCAL/MOL
REMARK 924 INTRA-LIGAND FREE ENERGY PREDICTED BY IDOCK:    7.61 KCAL/MOL
REMARK 927      BINDING AFFINITY PREDICTED BY RF-SCORE:    0.00 PKD
ROOT
HETATM    1  C   UNL     1     -11.079  10.633  64.479  1.00  0.00     0.620 C  
HETATM    2  C   UNL     1     -10.815  12.088  64.127  1.00  0.00    -0.405 C  
HETATM    3  C   UNL     1     -12.083  12.907  63.876  1.00  0.00    -0.553 C  
HETATM    4  C   UNL     1      -9.758  12.941  64.837  1.00  0.00     0.096 C  
ENDROOT
BRANCH   4   5
HETATM    5  N   UNL     1      -9.323  12.878  66.263  1.00  0.00    -0.192 N  
BRANCH   5   6
HETATM    6  C   UNL     1      -8.405  11.625  66.391  1.00  0.00    -0.084 C  
BRANCH   6   7
HETATM    7  C   UNL     1      -9.003  10.251  65.838  1.00  0.00    -0.158 C  
BRANCH   7   8
HETATM    8  C   UNL     1     -10.271   9.777  66.707  1.00  0.00    -0.233 C  
BRANCH   8   9
HETATM    9  N   UNL     1     -10.739   8.427  66.345  1.00  0.00    -0.021 N  
HETATM   10  C   UNL     1     -10.515   7.353  67.168  1.00  0.00    -0.333 C  
HETATM   11  H   UNL     1     -11.238   8.289  65.466  1.00  0.00     0.000 HD 
HETATM   12  O   UNL     1      -9.984   7.392  68.266  1.00  0.00    -0.154 OA 
BRANCH  10  13
HETATM   13  O   UNL     1     -10.995   6.220  66.586  1.00  0.00    -0.306 OA 
BRANCH  13  14
HETATM   14  C   UNL     1     -10.265   5.021  66.900  1.00  0.00    -0.229 C  
HETATM   15  C   UNL     1      -9.610   4.373  65.701  1.00  0.00    -0.189 C  
HETATM   16  O   UNL     1      -7.990   4.471  67.417  1.00  0.00    -0.099 OA 
HETATM   17  C   UNL     1      -8.414   3.676  66.304  1.00  0.00    -0.111 C  
HETATM   18  C   UNL     1      -9.065   5.350  67.781  1.00  0.00    -0.108 C  
ENDBRANCH  13  14
ENDBRANCH  10  13
ENDBRANCH   8   9
BRANCH   8  19
HETATM   19  C   UNL     1     -10.184   9.937  68.243  1.00  0.00    -0.204 C  
BRANCH  19  20
HETATM   20  C   UNL     1     -10.952  11.067  68.874  1.00  0.00    -0.277 A  
HETATM   21  C   UNL     1     -12.149  12.010  70.762  1.00  0.00    -0.297 A  
HETATM   22  C   UNL     1     -12.212  13.120  68.617  1.00  0.00    -0.078 A  
HETATM   23  C   UNL     1     -11.389  12.132  68.080  1.00  0.00    -0.353 A  
HETATM   24  C   UNL     1     -11.332  11.016  70.223  1.00  0.00    -0.291 A  
HETATM   25  C   UNL     1     -12.595  13.057  69.956  1.00  0.00     0.024 A  
ENDBRANCH  19  20
ENDBRANCH   8  19
ENDBRANCH   7   8
BRANCH   7  26
HETATM   26  O   UNL     1      -7.959   9.239  65.592  1.00  0.00    -0.100 OA 
HETATM   27  O   UNL     1      -5.125   9.553  67.211  1.00  0.00    -0.035 OA 
HETATM   28  O   UNL     1      -7.124   8.468  67.606  1.00  0.00    -0.077 OA 
HETATM   29  O   UNL     1      -6.866  10.844  67.069  1.00  0.00    -0.086 OA 
HETATM   30  P   UNL     1      -6.464   9.405  66.447  1.00  0.00    -0.067 P  
ENDBRANCH   7  26
ENDBRANCH   6   7
ENDBRANCH   5   6
BRANCH   5  31
HETATM   31  S   UNL     1      -8.709  14.156  67.217  1.00  0.00    -0.224 S  
HETATM   32  O   UNL     1      -7.274  14.237  67.040  1.00  0.00    -0.032 OA 
HETATM   33  O   UNL     1      -9.231  13.996  68.560  1.00  0.00    -0.198 OA 
BRANCH  31  34
HETATM   34  C   UNL     1      -9.340  15.681  66.620  1.00  0.00    -0.265 A  
HETATM   35  N   UNL     1     -10.947  19.367  65.472  1.00  0.00    -0.358 NA 
HETATM   36  C   UNL     1     -10.324  15.713  65.632  1.00  0.00    -0.408 A  
HETATM   37  H1  UNL     1     -10.608  20.232  65.894  1.00  0.00     0.000 HD 
HETATM   38  H2  UNL     1     -11.955  19.315  65.618  1.00  0.00     0.000 HD 
HETATM   39  C   UNL     1      -8.998  16.842  67.316  1.00  0.00    -0.222 A  
HETATM   40  C   UNL     1      -9.524  18.063  66.923  1.00  0.00    -0.288 A  
HETATM   41  C   UNL     1     -10.854  16.947  65.250  1.00  0.00    -0.113 A  
HETATM   42  C   UNL     1     -10.388  18.135  65.829  1.00  0.00    -0.172 A  
ENDBRANCH  31  34
ENDBRANCH   5  31
ENDBRANCH   4   5
TORSDOF 12
ENDMDL
MODEL      356
REMARK 921   NORMALIZED FREE ENERGY PREDICTED BY IDOCK:    2.67 KCAL/MOL
REMARK 922        TOTAL FREE ENERGY PREDICTED BY IDOCK:    1.75 KCAL/MOL
REMARK 923 INTER-LIGAND FREE ENERGY PREDICTED BY IDOCK:   -0.12 KCAL/MOL
REMARK 924 INTRA-LIGAND FREE ENERGY PREDICTED BY IDOCK:    1.87 KCAL/MOL
REMARK 927      BINDING AFFINITY PREDICTED BY RF-SCORE:    0.00 PKD
ROOT
HETATM    1  C   UNL     1     -10.675   4.991  71.486  1.00  0.00    -0.114 C  
HETATM    2  C   UNL     1      -9.919   3.681  71.638  1.00  0.00    -0.196 C  
HETATM    3  C   UNL     1     -10.718   2.447  71.212  1.00  0.00     1.424 C  
HETATM    4  C   UNL     1      -8.443   3.520  71.258  1.00  0.00    -0.068 C  
ENDROOT
BRANCH   4   5
HETATM    5  N   UNL     1      -7.691   4.192  70.158  1.00  0.00    -0.049 N  
BRANCH   5   6
HETATM    6  C   UNL     1      -7.386   5.639  70.650  1.00  0.00    -0.083 C  
BRANCH   6   7
HETATM    7  C   UNL     1      -8.033   6.825  69.800  1.00  0.00    -0.124 C  
BRANCH   7   8
HETATM    8  C   UNL     1      -9.547   7.112  70.261  1.00  0.00    -0.169 C  
BRANCH   8   9
HETATM    9  N   UNL     1      -9.848   8.551  70.371  1.00  0.00    -0.176 N  
HETATM   10  C   UNL     1     -10.011   9.150  71.594  1.00  0.00    -0.249 C  
HETATM   11  H   UNL     1      -9.937   9.111  69.523  1.00  0.00     0.000 HD 
HETATM   12  O   UNL     1      -9.875   8.610  72.679  1.00  0.00    -0.250 OA 
BRANCH  10  13
HETATM   13  O   UNL     1     -10.332  10.462  71.424  1.00  0.00     1.044 OA 
BRANCH  13  14
HETATM   14  C   UNL     1     -11.503  10.701  70.623  1.00  0.00    -0.281 C  
HETATM   15  C   UNL     1     -12.164  12.035  70.888  1.00  0.00    -0.325 C  
HETATM   16  O   UNL     1     -11.979  11.798  68.546  1.00  0.00    -0.406 OA 
HETATM   17  C   UNL     1     -12.812  12.360  69.565  1.00  0.00     0.996 C  
HETATM   18  C   UNL     1     -11.120  10.820  69.152  1.00  0.00    -0.249 C  
ENDBRANCH  13  14
ENDBRANCH  10  13
ENDBRANCH   8   9
BRANCH   8  19
HETATM   19  C   UNL     1     -10.675   6.369  69.507  1.00  0.00    -0.347 C  
BRANCH  19  20
HETATM   20  C   UNL     1     -10.412   5.952  68.085  1.00  0.00    -0.291 A  
HETATM   21  C   UNL     1     -10.453   6.420  65.705  1.00  0.00     1.133 A  
HETATM   22  C   UNL     1      -9.987   4.183  66.485  1.00  0.00    -0.165 A  
HETATM   23  C   UNL     1     -10.103   4.616  67.805  1.00  0.00    -0.097 A  
HETATM   24  C   UNL     1     -10.579   6.854  67.026  1.00  0.00    -0.403 A  
HETATM   25  C   UNL     1     -10.165   5.083  65.437  1.00  0.00     0.065 A  
ENDBRANCH  19  20
ENDBRANCH   8  19
ENDBRANCH   7   8
BRANCH   7  26
HETATM   26  O   UNL     1      -7.804   6.674  68.351  1.00  0.00    -0.103 OA 
HETATM   27  O   UNL     1      -5.895   8.894  66.875  1.00  0.00    -0.047 OA 
HETATM   28  O   UNL     1      -5.543   6.852  67.892  1.00  0.00    -0.015 OA 
HETATM   29  O   UNL     1      -6.686   8.774  68.894  1.00  0.00    -0.052 OA 
HETATM   30  P   UNL     1      -6.796   7.845  67.572  1.00  0.00    -0.072 P  
ENDBRANCH   7  26
ENDBRANCH   6   7
ENDBRANCH   5   6
BRANCH   5  31
HETATM   31  S   UNL     1      -6.358   3.575  69.285  1.00  0.00    -0.029 S  
HETATM   32  O   UNL     1      -5.866   2.383  69.945  1.00  0.00    -0.021 OA 
HETATM   33  O   UNL     1      -5.434   4.668  69.056  1.00  0.00    -0.010 OA 
BRANCH  31  34
HETATM   34  C   UNL     1      -6.897   3.043  67.702  1.00  0.00    -0.049 A  
HETATM   35  N   UNL     1      -8.099   1.500  64.006  1.00  0.00    -0.064 NA 
HETATM   36  C   UNL     1      -6.285   3.512  66.540  1.00  0.00    -0.028 A  
HETATM   37  H1  UNL     1      -8.845   0.806  63.954  1.00  0.00     0.000 HD 
HETATM   38  H2  UNL     1      -7.270   1.111  63.557  1.00  0.00     0.000 HD 
HETATM   39  C   UNL     1      -7.795   1.975  67.647  1.00  0.00    -0.060 A  
HETATM   40  C   UNL     1      -8.199   1.476  66.418  1.00  0.00    -0.080 A  
HETATM   41  C   UNL     1      -6.694   2.996  65.309  1.00  0.00    -0.040 A  
HETATM   42  C   UNL     1      -7.718   2.043  65.237  1.00  0.00    -0.072 A  
ENDBRANCH  31  34
ENDBRANCH   5  31
ENDBRANCH   4   5
TORSDOF 12
ENDMDL
MODEL      357
REMARK 921   NORMALIZED FREE ENERGY PREDICTED BY IDOCK:    2.87 KCAL/MOL
REMARK 922        TOTAL FREE ENERGY PREDICTED BY IDOCK:    2.07 KCAL/MOL
REMARK 923 INTER-LIGAND FREE ENERGY PREDICTED BY IDOCK:   -4.13 KCAL/MOL
REMARK 924 INTRA-LIGAND FREE ENERGY PREDICTED BY IDOCK:    6.20 KCAL/MOL
REMARK 927      BINDING AFFINITY PREDICTED BY RF-SCORE:    0.00 PKD
ROOT
HETATM    1  C   UNL     1      -8.358  13.727  66.797  1.00  0.00     0.086 C  
HETATM    2  C   UNL     1      -7.113  12.856  66.843  1.00  0.00     0.400 C  
HETATM    3  C   UNL     1      -6.250  13.069  68.088  1.00  0.00    -0.102 C  
HETATM    4  C   UNL     1      -7.114  11.378  66.437  1.00  0.00     0.000 C  
ENDROOT
BRANCH   4   5
HETATM    5  N   UNL     1      -8.207  10.375  66.594  1.00  0.00    -0.125 N  
BRANCH   5   6
HETATM    6  C   UNL     1      -8.152   9.888  68.074  1.00  0.00    -0.108 C  
BRANCH   6   7
HETATM    7  C   UNL     1      -8.945   8.543  68.405  1.00  0.00    -0.139 C  
BRANCH   7   8
HETATM    8  C   UNL     1      -8.630   8.035  69.898  1.00  0.00    -0.135 C  
BRANCH   8   9
HETATM    9  N   UNL     1      -9.701   7.186  70.451  1.00  0.00    -0.176 N  
HETATM   10  C   UNL     1     -10.999   7.312  70.025  1.00  0.00    -0.253 C  
HETATM   11  H   UNL     1      -9.473   6.493  71.163  1.00  0.00     0.000 HD 
HETATM   12  O   UNL     1     -11.392   8.057  69.143  1.00  0.00     0.234 OA 
BRANCH  10  13
HETATM   13  O   UNL     1     -11.796   6.458  70.722  1.00  0.00    -0.361 OA 
BRANCH  13  14
HETATM   14  C   UNL     1     -13.087   6.987  71.078  1.00  0.00    -0.092 C  
HETATM   15  C   UNL     1     -13.468   6.749  72.521  1.00  0.00     0.532 C  
HETATM   16  O   UNL     1     -13.913   9.019  72.043  1.00  0.00    -0.414 OA 
HETATM   17  C   UNL     1     -14.377   7.915  72.827  1.00  0.00     0.376 C  
HETATM   18  C   UNL     1     -13.073   8.509  70.996  1.00  0.00     0.097 C  
ENDBRANCH  13  14
ENDBRANCH  10  13
ENDBRANCH   8   9
BRANCH   8  19
HETATM   19  C   UNL     1      -7.240   7.409  70.161  1.00  0.00    -0.070 C  
BRANCH  19  20
HETATM   20  C   UNL     1      -6.925   6.967  71.565  1.00  0.00    -0.066 A  
HETATM   21  C   UNL     1      -7.190   7.209  73.964  1.00  0.00    -0.099 A  
HETATM   22  C   UNL     1      -5.492   5.735  73.082  1.00  0.00    -0.027 A  
HETATM   23  C   UNL     1      -5.886   6.055  71.784  1.00  0.00    -0.031 A  
HETATM   24  C   UNL     1      -7.580   7.537  72.665  1.00  0.00    -0.096 A  
HETATM   25  C   UNL     1      -6.141   6.314  74.170  1.00  0.00    -0.065 A  
ENDBRANCH  19  20
ENDBRANCH   8  19
ENDBRANCH   7   8
BRANCH   7  26
HETATM   26  O   UNL     1      -8.830   7.539  67.331  1.00  0.00    -0.126 OA 
HETATM   27  O   UNL     1      -5.836   6.400  66.631  1.00  0.00    -0.019 OA 
HETATM   28  O   UNL     1      -7.537   5.762  68.054  1.00  0.00    -0.083 OA 
HETATM   29  O   UNL     1      -6.513   7.985  67.952  1.00  0.00    -0.050 OA 
HETATM   30  P   UNL     1      -7.250   6.938  66.962  1.00  0.00    -0.088 P  
ENDBRANCH   7  26
ENDBRANCH   6   7
ENDBRANCH   5   6
BRANCH   5  31
HETATM   31  S   UNL     1      -9.831  10.523  66.084  1.00  0.00    -0.228 S  
HETATM   32  O   UNL     1     -10.535   9.290  66.370  1.00  0.00    -0.208 OA 
HETATM   33  O   UNL     1      -9.824  11.014  64.721  1.00  0.00    -0.235 OA 
BRANCH  31  34
HETATM   34  C   UNL     1     -10.633  11.752  67.047  1.00  0.00    -0.232 A  
HETATM   35  N   UNL     1     -12.731  14.470  69.435  1.00  0.00    -0.507 NA 
HETATM   36  C   UNL     1     -11.255  12.843  66.444  1.00  0.00    -0.337 A  
HETATM   37  H1  UNL     1     -12.768  14.347  70.447  1.00  0.00     0.000 HD 
HETATM   38  H2  UNL     1     -13.688  14.504  69.082  1.00  0.00     0.000 HD 
HETATM   39  C   UNL     1     -10.824  11.490  68.406  1.00  0.00    -0.250 A  
HETATM   40  C   UNL     1     -11.510  12.401  69.194  1.00  0.00    -0.358 A  
HETATM   41  C   UNL     1     -11.951  13.750  67.247  1.00  0.00    -0.436 A  
HETATM   42  C   UNL     1     -12.002  13.582  68.637  1.00  0.00    -0.343 A  
ENDBRANCH  31  34
ENDBRANCH   5  31
ENDBRANCH   4   5
TORSDOF 12
ENDMDL
MODEL      358
REMARK 921   NORMALIZED FREE ENERGY PREDICTED BY IDOCK:   12.98 KCAL/MOL
REMARK 922        TOTAL FREE ENERGY PREDICTED BY IDOCK:   19.28 KCAL/MOL
REMARK 923 INTER-LIGAND FREE ENERGY PREDICTED BY IDOCK:   12.43 KCAL/MOL
REMARK 924 INTRA-LIGAND FREE ENERGY PREDICTED BY IDOCK:    6.85 KCAL/MOL
REMARK 927      BINDING AFFINITY PREDICTED BY RF-SCORE:    0.00 PKD
ROOT
HETATM    1  C   UNL     1     -12.729  12.360  71.062  1.00  0.00    -0.315 C  
HETATM    2  C   UNL     1     -12.791  13.879  71.071  1.00  0.00    -0.394 C  
HETATM    3  C   UNL     1     -12.455  14.508  72.426  1.00  0.00    -0.351 C  
HETATM    4  C   UNL     1     -12.246  14.744  69.930  1.00  0.00    -0.311 C  
ENDROOT
BRANCH   4   5
HETATM    5  N   UNL     1     -11.069  14.482  69.050  1.00  0.00    -0.251 N  
BRANCH   5   6
HETATM    6  C   UNL     1     -10.554  15.872  68.573  1.00  0.00    -0.263 C  
BRANCH   6   7
HETATM    7  C   UNL     1      -9.949  15.934  67.096  1.00  0.00    -0.240 C  
BRANCH   7   8
HETATM    8  C   UNL     1     -10.369  17.296  66.352  1.00  0.00    -0.316 C  
BRANCH   8   9
HETATM    9  N   UNL     1     -10.918  18.306  67.274  1.00  0.00    -0.222 N  
HETATM   10  C   UNL     1     -10.526  18.356  68.588  1.00  0.00    -0.125 C  
HETATM   11  H   UNL     1     -11.602  18.980  66.929  1.00  0.00     0.000 HD 
HETATM   12  O   UNL     1      -9.679  17.650  69.108  1.00  0.00    -0.214 OA 
BRANCH  10  13
HETATM   13  O   UNL     1     -11.213  19.336  69.235  1.00  0.00     1.826 OA 
BRANCH  13  14
HETATM   14  C   UNL     1     -10.394  20.318  69.895  1.00  0.00     0.529 C  
HETATM   15  C   UNL     1     -10.390  20.199  71.402  1.00  0.00     2.930 C  
HETATM   16  O   UNL     1      -8.143  20.419  70.711  1.00  0.00     0.952 OA 
HETATM   17  C   UNL     1      -9.035  20.746  71.781  1.00  0.00     2.611 C  
HETATM   18  C   UNL     1      -8.925  20.093  69.552  1.00  0.00     0.719 C  
ENDBRANCH  13  14
ENDBRANCH  10  13
ENDBRANCH   8   9
BRANCH   8  19
HETATM   19  C   UNL     1      -9.337  17.932  65.390  1.00  0.00     1.251 C  
BRANCH  19  20
HETATM   20  C   UNL     1      -7.902  17.989  65.840  1.00  0.00    -0.093 A  
HETATM   21  C   UNL     1      -5.533  18.111  65.330  1.00  0.00    -0.188 A  
HETATM   22  C   UNL     1      -6.259  17.653  67.588  1.00  0.00    -0.172 A  
HETATM   23  C   UNL     1      -7.589  17.735  67.180  1.00  0.00    -0.223 A  
HETATM   24  C   UNL     1      -6.864  18.185  64.918  1.00  0.00     1.176 A  
HETATM   25  C   UNL     1      -5.232  17.837  66.664  1.00  0.00    -0.188 A  
ENDBRANCH  19  20
ENDBRANCH   8  19
ENDBRANCH   7   8
BRANCH   7  26
HETATM   26  O   UNL     1     -10.161  14.682  66.346  1.00  0.00    -0.260 OA 
HETATM   27  O   UNL     1     -13.211  14.006  65.349  1.00  0.00    -0.761 OA 
HETATM   28  O   UNL     1     -11.400  15.112  64.440  1.00  0.00    -0.304 OA 
HETATM   29  O   UNL     1     -12.415  15.576  66.621  1.00  0.00     0.913 OA 
HETATM   30  P   UNL     1     -11.770  14.326  65.820  1.00  0.00    -0.359 P  
ENDBRANCH   7  26
ENDBRANCH   6   7
ENDBRANCH   5   6
BRANCH   5  31
HETATM   31  S   UNL     1      -9.749  13.443  69.366  1.00  0.00     1.045 S  
HETATM   32  O   UNL     1      -9.441  13.479  70.780  1.00  0.00     4.751 OA 
HETATM   33  O   UNL     1      -8.698  13.764  68.422  1.00  0.00    -0.175 OA 
BRANCH  31  34
HETATM   34  C   UNL     1     -10.222  11.786  69.034  1.00  0.00    -0.021 A  
HETATM   35  N   UNL     1     -11.080   7.795  68.124  1.00  0.00    -0.392 NA 
HETATM   36  C   UNL     1     -11.276  11.500  68.167  1.00  0.00    -0.335 A  
HETATM   37  H1  UNL     1     -10.540   7.041  68.548  1.00  0.00     0.000 HD 
HETATM   38  H2  UNL     1     -11.023   7.698  67.110  1.00  0.00     0.000 HD 
HETATM   39  C   UNL     1      -9.377  10.768  69.479  1.00  0.00     0.085 A  
HETATM   40  C   UNL     1      -9.674   9.446  69.185  1.00  0.00    -0.165 A  
HETATM   41  C   UNL     1     -11.561  10.165  67.870  1.00  0.00     0.329 A  
HETATM   42  C   UNL     1     -10.818   9.129  68.452  1.00  0.00    -0.048 A  
ENDBRANCH  31  34
ENDBRANCH   5  31
ENDBRANCH   4   5
TORSDOF 12
ENDMDL
MODEL      359
REMARK 921   NORMALIZED FREE ENERGY PREDICTED BY IDOCK:   17.08 KCAL/MOL
REMARK 922        TOTAL FREE ENERGY PREDICTED BY IDOCK:   26.26 KCAL/MOL
REMARK 923 INTER-LIGAND FREE ENERGY PREDICTED BY IDOCK:   23.63 KCAL/MOL
REMARK 924 INTRA-LIGAND FREE ENERGY PREDICTED BY IDOCK:    2.63 KCAL/MOL
REMARK 927      BINDING AFFINITY PREDICTED BY RF-SCORE:    0.00 PKD
ROOT
HETATM    1  C   UNL     1      -9.598  12.744  70.690  1.00  0.00     6.813 C  
HETATM    2  C   UNL     1      -8.559  13.849  70.596  1.00  0.00     4.141 C  
HETATM    3  C   UNL     1      -7.572  13.879  71.766  1.00  0.00     5.664 C  
HETATM    4  C   UNL     1      -7.850  14.219  69.288  1.00  0.00     0.085 C  
ENDROOT
BRANCH   4   5
HETATM    5  N   UNL     1      -7.461  13.322  68.161  1.00  0.00    -0.115 N  
BRANCH   5   6
HETATM    6  C   UNL     1      -7.742  14.113  66.848  1.00  0.00     0.363 C  
BRANCH   6   7
HETATM    7  C   UNL     1      -9.203  14.740  66.700  1.00  0.00    -0.275 C  
BRANCH   7   8
HETATM    8  C   UNL     1      -9.481  15.842  67.837  1.00  0.00    -0.213 C  
BRANCH   8   9
HETATM    9  N   UNL     1      -8.464  16.909  67.862  1.00  0.00    -0.200 N  
HETATM   10  C   UNL     1      -7.606  17.096  66.808  1.00  0.00    -0.239 C  
HETATM   11  H   UNL     1      -8.398  17.520  68.676  1.00  0.00     0.000 HD 
HETATM   12  O   UNL     1      -7.618  16.476  65.758  1.00  0.00     0.211 OA 
BRANCH  10  13
HETATM   13  O   UNL     1      -6.736  18.102  67.097  1.00  0.00    -0.182 OA 
BRANCH  13  14
HETATM   14  C   UNL     1      -6.708  19.174  66.138  1.00  0.00    -0.220 C  
HETATM   15  C   UNL     1      -5.325  19.495  65.620  1.00  0.00    -0.174 C  
HETATM   16  O   UNL     1      -6.759  19.353  63.749  1.00  0.00     0.374 OA 
HETATM   17  C   UNL     1      -5.599  20.035  64.237  1.00  0.00    -0.217 C  
HETATM   18  C   UNL     1      -7.439  18.761  64.865  1.00  0.00     1.661 C  
ENDBRANCH  13  14
ENDBRANCH  10  13
ENDBRANCH   8   9
BRANCH   8  19
HETATM   19  C   UNL     1     -10.907  16.438  67.921  1.00  0.00    -0.328 C  
BRANCH  19  20
HETATM   20  C   UNL     1     -11.036  17.932  68.041  1.00  0.00     0.119 A  
HETATM   21  C   UNL     1     -10.812  19.974  69.333  1.00  0.00     0.935 A  
HETATM   22  C   UNL     1     -11.971  20.009  67.215  1.00  0.00     2.267 A  
HETATM   23  C   UNL     1     -11.726  18.646  67.055  1.00  0.00     1.795 A  
HETATM   24  C   UNL     1     -10.573  18.607  69.180  1.00  0.00     0.472 A  
HETATM   25  C   UNL     1     -11.517  20.671  68.354  1.00  0.00     2.336 A  
ENDBRANCH  19  20
ENDBRANCH   8  19
ENDBRANCH   7   8
BRANCH   7  26
HETATM   26  O   UNL     1     -10.243  13.712  66.511  1.00  0.00    -0.272 OA 
HETATM   27  O   UNL     1     -11.231  13.093  63.447  1.00  0.00    -0.228 OA 
HETATM   28  O   UNL     1      -9.601  12.243  64.843  1.00  0.00    -0.094 OA 
HETATM   29  O   UNL     1      -9.904  14.605  64.266  1.00  0.00     0.502 OA 
HETATM   30  P   UNL     1     -10.764  13.385  64.894  1.00  0.00    -0.410 P  
ENDBRANCH   7  26
ENDBRANCH   6   7
ENDBRANCH   5   6
BRANCH   5  31
HETATM   31  S   UNL     1      -6.019  12.419  68.004  1.00  0.00    -0.084 S  
HETATM   32  O   UNL     1      -5.345  12.368  69.285  1.00  0.00    -0.067 OA 
HETATM   33  O   UNL     1      -5.292  12.938  66.863  1.00  0.00    -0.291 OA 
BRANCH  31  34
HETATM   34  C   UNL     1      -6.416  10.753  67.620  1.00  0.00    -0.056 A  
HETATM   35  N   UNL     1      -7.454   6.752  66.987  1.00  0.00    -0.086 NA 
HETATM   36  C   UNL     1      -5.425   9.848  67.242  1.00  0.00    -0.042 A  
HETATM   37  H1  UNL     1      -8.422   6.447  67.086  1.00  0.00     0.000 HD 
HETATM   38  H2  UNL     1      -6.877   6.188  67.611  1.00  0.00     0.000 HD 
HETATM   39  C   UNL     1      -7.705  10.307  67.922  1.00  0.00    -0.089 A  
HETATM   40  C   UNL     1      -8.046   8.982  67.697  1.00  0.00    -0.109 A  
HETATM   41  C   UNL     1      -5.779   8.514  67.028  1.00  0.00    -0.042 A  
HETATM   42  C   UNL     1      -7.109   8.095  67.165  1.00  0.00    -0.079 A  
ENDBRANCH  31  34
ENDBRANCH   5  31
ENDBRANCH   4   5
TORSDOF 12
ENDMDL
MODEL      360
REMARK 921   NORMALIZED FREE ENERGY PREDICTED BY IDOCK:   20.66 KCAL/MOL
REMARK 922        TOTAL FREE ENERGY PREDICTED BY IDOCK:   32.35 KCAL/MOL
REMARK 923 INTER-LIGAND FREE ENERGY PREDICTED BY IDOCK:   15.30 KCAL/MOL
REMARK 924 INTRA-LIGAND FREE ENERGY PREDICTED BY IDOCK:   17.06 KCAL/MOL
REMARK 927      BINDING AFFINITY PREDICTED BY RF-SCORE:    0.00 PKD
ROOT
HETATM    1  C   UNL     1      -6.795  11.434  65.839  1.00  0.00     0.344 C  
HETATM    2  C   UNL     1      -6.859  10.864  67.247  1.00  0.00    -0.084 C  
HETATM    3  C   UNL     1      -5.533  10.934  68.008  1.00  0.00    -0.039 C  
HETATM    4  C   UNL     1      -8.036  11.115  68.196  1.00  0.00    -0.125 C  
ENDROOT
BRANCH   4   5
HETATM    5  N   UNL     1      -8.891  12.332  68.310  1.00  0.00    -0.188 N  
BRANCH   5   6
HETATM    6  C   UNL     1      -8.131  13.477  67.575  1.00  0.00    -0.186 C  
BRANCH   6   7
HETATM    7  C   UNL     1      -6.947  14.174  68.386  1.00  0.00    -0.099 C  
BRANCH   7   8
HETATM    8  C   UNL     1      -7.512  15.009  69.639  1.00  0.00    -0.161 C  
BRANCH   8   9
HETATM    9  N   UNL     1      -6.808  16.289  69.838  1.00  0.00    -0.023 N  
HETATM   10  C   UNL     1      -7.225  17.189  70.785  1.00  0.00     3.434 C  
HETATM   11  H   UNL     1      -5.996  16.509  69.261  1.00  0.00     0.000 HD 
HETATM   12  O   UNL     1      -8.140  17.024  71.575  1.00  0.00     7.729 OA 
BRANCH  10  13
HETATM   13  O   UNL     1      -6.447  18.304  70.733  1.00  0.00     0.701 OA 
BRANCH  13  14
HETATM   14  C   UNL     1      -7.123  19.496  70.295  1.00  0.00     0.358 C  
HETATM   15  C   UNL     1      -6.516  20.126  69.062  1.00  0.00    -0.343 C  
HETATM   16  O   UNL     1      -8.850  20.020  68.718  1.00  0.00    -0.110 OA 
HETATM   17  C   UNL     1      -7.696  20.811  68.416  1.00  0.00     0.430 C  
HETATM   18  C   UNL     1      -8.533  19.159  69.821  1.00  0.00     0.725 C  
ENDBRANCH  13  14
ENDBRANCH  10  13
ENDBRANCH   8   9
BRANCH   8  19
HETATM   19  C   UNL     1      -9.044  15.202  69.736  1.00  0.00     0.025 C  
BRANCH  19  20
HETATM   20  C   UNL     1      -9.685  16.201  68.811  1.00  0.00    -0.233 A  
HETATM   21  C   UNL     1     -11.650  17.102  67.711  1.00  0.00     0.706 A  
HETATM   22  C   UNL     1      -9.451  17.846  67.048  1.00  0.00    -0.272 A  
HETATM   23  C   UNL     1      -8.877  17.011  68.004  1.00  0.00    -0.223 A  
HETATM   24  C   UNL     1     -11.078  16.258  68.663  1.00  0.00    -0.356 A  
HETATM   25  C   UNL     1     -10.835  17.889  66.899  1.00  0.00    -0.063 A  
ENDBRANCH  19  20
ENDBRANCH   8  19
ENDBRANCH   7   8
BRANCH   7  26
HETATM   26  O   UNL     1      -5.993  14.875  67.506  1.00  0.00    -0.320 OA 
HETATM   27  O   UNL     1      -7.077  17.513  65.887  1.00  0.00    -0.320 OA 
HETATM   28  O   UNL     1      -6.062  17.148  67.928  1.00  0.00    -0.131 OA 
HETATM   29  O   UNL     1      -8.098  16.049  67.124  1.00  0.00    -0.164 OA 
HETATM   30  P   UNL     1      -6.565  16.267  66.652  1.00  0.00     0.662 P  
ENDBRANCH   7  26
ENDBRANCH   6   7
ENDBRANCH   5   6
BRANCH   5  31
HETATM   31  S   UNL     1     -10.569  12.453  68.009  1.00  0.00    -0.229 S  
HETATM   32  O   UNL     1     -11.159  13.376  68.956  1.00  0.00    -0.255 OA 
HETATM   33  O   UNL     1     -11.103  11.107  67.932  1.00  0.00    -0.230 OA 
BRANCH  31  34
HETATM   34  C   UNL     1     -10.825  13.176  66.430  1.00  0.00    -0.287 A  
HETATM   35  N   UNL     1     -11.158  15.004  62.684  1.00  0.00     4.265 NA 
HETATM   36  C   UNL     1     -11.792  14.163  66.241  1.00  0.00    -0.427 A  
HETATM   37  H1  UNL     1     -10.554  14.716  61.913  1.00  0.00     0.000 HD 
HETATM   38  H2  UNL     1     -11.037  16.007  62.826  1.00  0.00     0.000 HD 
HETATM   39  C   UNL     1      -9.889  12.901  65.431  1.00  0.00    -0.133 A  
HETATM   40  C   UNL     1     -10.012  13.501  64.187  1.00  0.00     0.611 A  
HETATM   41  C   UNL     1     -11.901  14.767  64.987  1.00  0.00    -0.343 A  
HETATM   42  C   UNL     1     -11.072  14.371  63.928  1.00  0.00     0.648 A  
ENDBRANCH  31  34
ENDBRANCH   5  31
ENDBRANCH   4   5
TORSDOF 12
ENDMDL
MODEL      361
REMARK 921   NORMALIZED FREE ENERGY PREDICTED BY IDOCK:   25.62 KCAL/MOL
REMARK 922        TOTAL FREE ENERGY PREDICTED BY IDOCK:   40.79 KCAL/MOL
REMARK 923 INTER-LIGAND FREE ENERGY PREDICTED BY IDOCK:   12.33 KCAL/MOL
REMARK 924 INTRA-LIGAND FREE ENERGY PREDICTED BY IDOCK:   28.46 KCAL/MOL
REMARK 927      BINDING AFFINITY PREDICTED BY RF-SCORE:    0.00 PKD
ROOT
HETATM    1  C   UNL     1      -9.211   8.613  70.149  1.00  0.00    -0.165 C  
HETATM    2  C   UNL     1      -8.484   7.657  71.082  1.00  0.00    -0.116 C  
HETATM    3  C   UNL     1      -9.396   6.628  71.754  1.00  0.00    -0.148 C  
HETATM    4  C   UNL     1      -7.128   7.029  70.741  1.00  0.00    -0.067 C  
ENDROOT
BRANCH   4   5
HETATM    5  N   UNL     1      -6.604   6.625  69.404  1.00  0.00    -0.047 N  
BRANCH   5   6
HETATM    6  C   UNL     1      -7.267   5.257  69.063  1.00  0.00    -0.061 C  
BRANCH   6   7
HETATM    7  C   UNL     1      -8.680   4.966  69.748  1.00  0.00    -0.086 C  
BRANCH   7   8
HETATM    8  C   UNL     1      -9.745   6.119  69.398  1.00  0.00    -0.145 C  
BRANCH   8   9
HETATM    9  N   UNL     1      -9.781   6.447  67.961  1.00  0.00    -0.121 N  
HETATM   10  C   UNL     1      -9.004   5.767  67.058  1.00  0.00    -0.114 C  
HETATM   11  H   UNL     1     -10.395   7.192  67.633  1.00  0.00     0.000 HD 
HETATM   12  O   UNL     1      -8.275   4.823  67.310  1.00  0.00    -0.105 OA 
BRANCH  10  13
HETATM   13  O   UNL     1      -9.181   6.292  65.815  1.00  0.00    -0.090 OA 
BRANCH  13  14
HETATM   14  C   UNL     1     -10.382   7.066  65.648  1.00  0.00     1.922 C  
HETATM   15  C   UNL     1     -11.647   6.317  66.000  1.00  0.00     2.306 C  
HETATM   16  O   UNL     1     -11.766   8.427  67.053  1.00  0.00     2.066 OA 
HETATM   17  C   UNL     1     -12.579   7.418  66.445  1.00  0.00    10.034 C  
HETATM   18  C   UNL     1     -10.406   8.221  66.643  1.00  0.00    -0.223 C  
ENDBRANCH  13  14
ENDBRANCH  10  13
ENDBRANCH   8   9
BRANCH   8  19
HETATM   19  C   UNL     1     -11.176   5.966  69.965  1.00  0.00    -0.341 C  
BRANCH  19  20
HETATM   20  C   UNL     1     -11.744   7.114  70.755  1.00  0.00    -0.363 A  
HETATM   21  C   UNL     1     -11.519   8.807  72.477  1.00  0.00    -0.183 A  
HETATM   22  C   UNL     1     -13.679   8.374  71.487  1.00  0.00    -0.356 A  
HETATM   23  C   UNL     1     -13.110   7.403  70.666  1.00  0.00     0.228 A  
HETATM   24  C   UNL     1     -10.949   7.829  71.662  1.00  0.00    -0.272 A  
HETATM   25  C   UNL     1     -12.885   9.073  72.394  1.00  0.00    -0.454 A  
ENDBRANCH  19  20
ENDBRANCH   8  19
ENDBRANCH   7   8
BRANCH   7  26
HETATM   26  O   UNL     1      -8.554   4.598  71.171  1.00  0.00    -0.107 OA 
HETATM   27  O   UNL     1     -10.384   2.106  72.263  1.00  0.00    -0.159 OA 
HETATM   28  O   UNL     1      -8.268   2.310  71.365  1.00  0.00    -0.053 OA 
HETATM   29  O   UNL     1     -10.338   3.146  70.357  1.00  0.00     0.656 OA 
HETATM   30  P   UNL     1      -9.519   3.283  71.747  1.00  0.00    -0.164 P  
ENDBRANCH   7  26
ENDBRANCH   6   7
ENDBRANCH   5   6
BRANCH   5  31
HETATM   31  S   UNL     1      -6.494   7.591  67.998  1.00  0.00    -0.051 S  
HETATM   32  O   UNL     1      -7.576   7.249  67.099  1.00  0.00    -0.099 OA 
HETATM   33  O   UNL     1      -5.134   7.503  67.506  1.00  0.00    -0.023 OA 
BRANCH  31  34
HETATM   34  C   UNL     1      -6.757   9.272  68.427  1.00  0.00    -0.059 A  
HETATM   35  N   UNL     1      -7.488  13.321  69.174  1.00  0.00    -0.310 NA 
HETATM   36  C   UNL     1      -5.687  10.104  68.755  1.00  0.00    -0.038 A  
HETATM   37  H1  UNL     1      -8.438  13.690  69.138  1.00  0.00     0.000 HD 
HETATM   38  H2  UNL     1      -6.913  13.857  68.523  1.00  0.00     0.000 HD 
HETATM   39  C   UNL     1      -8.029   9.806  68.211  1.00  0.00    -0.096 A  
HETATM   40  C   UNL     1      -8.268  11.147  68.472  1.00  0.00    -0.149 A  
HETATM   41  C   UNL     1      -5.938  11.455  69.008  1.00  0.00    -0.051 A  
HETATM   42  C   UNL     1      -7.244  11.961  68.958  1.00  0.00    -0.068 A  
ENDBRANCH  31  34
ENDBRANCH   5  31
ENDBRANCH   4   5
TORSDOF 12
ENDMDL
MODEL      362
REMARK 921   NORMALIZED FREE ENERGY PREDICTED BY IDOCK:   46.01 KCAL/MOL
REMARK 922        TOTAL FREE ENERGY PREDICTED BY IDOCK:   75.48 KCAL/MOL
REMARK 923 INTER-LIGAND FREE ENERGY PREDICTED BY IDOCK:   33.21 KCAL/MOL
REMARK 924 INTRA-LIGAND FREE ENERGY PREDICTED BY IDOCK:   42.27 KCAL/MOL
REMARK 927      BINDING AFFINITY PREDICTED BY RF-SCORE:    0.00 PKD
ROOT
HETATM    1  C   UNL     1     -13.726  18.823  67.617  1.00  0.00     9.336 C  
HETATM    2  C   UNL     1     -12.598  18.688  66.607  1.00  0.00     6.560 C  
HETATM    3  C   UNL     1     -11.314  19.418  67.007  1.00  0.00     0.224 C  
HETATM    4  C   UNL     1     -12.267  17.371  65.898  1.00  0.00     4.752 C  
ENDROOT
BRANCH   4   5
HETATM    5  N   UNL     1     -12.388  15.979  66.423  1.00  0.00     1.757 N  
BRANCH   5   6
HETATM    6  C   UNL     1     -11.369  15.113  65.625  1.00  0.00    -0.255 C  
BRANCH   6   7
HETATM    7  C   UNL     1     -10.272  14.337  66.488  1.00  0.00    -0.276 C  
BRANCH   7   8
HETATM    8  C   UNL     1     -10.884  12.998  67.137  1.00  0.00    -0.260 C  
BRANCH   8   9
HETATM    9  N   UNL     1     -10.781  11.830  66.244  1.00  0.00    -0.260 N  
HETATM   10  C   UNL     1     -10.581  11.983  64.895  1.00  0.00    -0.291 C  
HETATM   11  H   UNL     1     -10.859  10.892  66.636  1.00  0.00     0.000 HD 
HETATM   12  O   UNL     1     -10.413  13.041  64.313  1.00  0.00    -0.395 OA 
BRANCH  10  13
HETATM   13  O   UNL     1     -10.575  10.764  64.291  1.00  0.00    -0.350 OA 
BRANCH  13  14
HETATM   14  C   UNL     1      -9.703  10.655  63.152  1.00  0.00    -0.333 C  
HETATM   15  C   UNL     1      -8.502  11.572  63.212  1.00  0.00     0.496 C  
HETATM   16  O   UNL     1      -7.718   9.428  62.610  1.00  0.00    -0.113 OA 
HETATM   17  C   UNL     1      -7.464  10.822  62.412  1.00  0.00    -0.096 C  
HETATM   18  C   UNL     1      -9.052   9.277  63.117  1.00  0.00     0.070 C  
ENDBRANCH  13  14
ENDBRANCH  10  13
ENDBRANCH   8   9
BRANCH   8  19
HETATM   19  C   UNL     1     -10.441  12.634  68.574  1.00  0.00    -0.249 C  
BRANCH  19  20
HETATM   20  C   UNL     1     -11.377  12.971  69.703  1.00  0.00    -0.176 A  
HETATM   21  C   UNL     1     -13.611  13.026  70.647  1.00  0.00     1.064 A  
HETATM   22  C   UNL     1     -11.807  14.192  71.751  1.00  0.00     0.185 A  
HETATM   23  C   UNL     1     -10.922  13.760  70.765  1.00  0.00     1.363 A  
HETATM   24  C   UNL     1     -12.728  12.600  69.654  1.00  0.00     0.554 A  
HETATM   25  C   UNL     1     -13.151  13.828  71.690  1.00  0.00    -0.456 A  
ENDBRANCH  19  20
ENDBRANCH   8  19
ENDBRANCH   7   8
BRANCH   7  26
HETATM   26  O   UNL     1      -9.532  15.230  67.398  1.00  0.00    -0.197 OA 
HETATM   27  O   UNL     1      -8.429  18.067  66.178  1.00  0.00    -0.448 OA 
HETATM   28  O   UNL     1     -10.365  17.382  67.233  1.00  0.00    -0.322 OA 
HETATM   29  O   UNL     1      -9.380  16.356  65.238  1.00  0.00    -0.237 OA 
HETATM   30  P   UNL     1      -8.951  16.727  66.754  1.00  0.00    -0.277 P  
ENDBRANCH   7  26
ENDBRANCH   6   7
ENDBRANCH   5   6
BRANCH   5  31
HETATM   31  S   UNL     1     -12.421  15.489  68.060  1.00  0.00     1.270 S  
HETATM   32  O   UNL     1     -12.343  14.044  68.127  1.00  0.00    -0.248 OA 
HETATM   33  O   UNL     1     -13.542  16.149  68.698  1.00  0.00     3.036 OA 
BRANCH  31  34
HETATM   34  C   UNL     1     -10.978  16.072  68.870  1.00  0.00    -0.309 A  
HETATM   35  N   UNL     1      -7.439  17.183  70.802  1.00  0.00     3.509 NA 
HETATM   36  C   UNL     1     -11.050  16.653  70.136  1.00  0.00    -0.077 A  
HETATM   37  H1  UNL     1      -6.537  17.050  70.344  1.00  0.00     0.000 HD 
HETATM   38  H2  UNL     1      -7.417  16.693  71.697  1.00  0.00     0.000 HD 
HETATM   39  C   UNL     1      -9.741  15.736  68.316  1.00  0.00    -0.201 A  
HETATM   40  C   UNL     1      -8.571  16.118  68.955  1.00  0.00    -0.245 A  
HETATM   41  C   UNL     1      -9.865  17.025  70.774  1.00  0.00     2.900 A  
HETATM   42  C   UNL     1      -8.627  16.844  70.145  1.00  0.00     2.205 A  
ENDBRANCH  31  34
ENDBRANCH   5  31
ENDBRANCH   4   5
TORSDOF 12
ENDMDL
MODEL      363
REMARK 921   NORMALIZED FREE ENERGY PREDICTED BY IDOCK:   57.32 KCAL/MOL
REMARK 922        TOTAL FREE ENERGY PREDICTED BY IDOCK:   94.73 KCAL/MOL
REMARK 923 INTER-LIGAND FREE ENERGY PREDICTED BY IDOCK:   53.87 KCAL/MOL
REMARK 924 INTRA-LIGAND FREE ENERGY PREDICTED BY IDOCK:   40.86 KCAL/MOL
REMARK 927      BINDING AFFINITY PREDICTED BY RF-SCORE:    0.00 PKD
ROOT
HETATM    1  C   UNL     1      -7.537  12.085  69.047  1.00  0.00     0.056 C  
HETATM    2  C   UNL     1      -6.739  10.973  69.709  1.00  0.00    -0.136 C  
HETATM    3  C   UNL     1      -5.234  11.039  69.437  1.00  0.00    -0.041 C  
HETATM    4  C   UNL     1      -7.004  10.494  71.140  1.00  0.00     1.334 C  
ENDROOT
BRANCH   4   5
HETATM    5  N   UNL     1      -7.466  11.292  72.314  1.00  0.00     8.721 N  
BRANCH   5   6
HETATM    6  C   UNL     1      -7.707  10.279  73.472  1.00  0.00     6.490 C  
BRANCH   6   7
HETATM    7  C   UNL     1      -8.456   8.924  73.082  1.00  0.00     0.658 C  
BRANCH   7   8
HETATM    8  C   UNL     1      -7.454   7.890  72.365  1.00  0.00    -0.092 C  
BRANCH   8   9
HETATM    9  N   UNL     1      -7.338   6.611  73.088  1.00  0.00    -0.084 N  
HETATM   10  C   UNL     1      -8.394   6.097  73.796  1.00  0.00    -0.113 C  
HETATM   11  H   UNL     1      -6.456   6.099  73.061  1.00  0.00     0.000 HD 
HETATM   12  O   UNL     1      -9.513   6.578  73.861  1.00  0.00    -0.149 OA 
BRANCH  10  13
HETATM   13  O   UNL     1      -8.017   4.943  74.411  1.00  0.00    -0.095 OA 
BRANCH  13  14
HETATM   14  C   UNL     1      -7.013   4.184  73.713  1.00  0.00    -0.060 C  
HETATM   15  C   UNL     1      -7.560   3.334  72.589  1.00  0.00    -0.051 C  
HETATM   16  O   UNL     1      -5.680   4.486  71.745  1.00  0.00    -0.011 OA 
HETATM   17  C   UNL     1      -6.398   3.253  71.629  1.00  0.00    -0.015 C  
HETATM   18  C   UNL     1      -6.064   5.121  72.973  1.00  0.00    -0.031 C  
ENDBRANCH  13  14
ENDBRANCH  10  13
ENDBRANCH   8   9
BRANCH   8  19
HETATM   19  C   UNL     1      -7.640   7.651  70.848  1.00  0.00    -0.080 C  
BRANCH  19  20
HETATM   20  C   UNL     1      -8.852   6.877  70.404  1.00  0.00    -0.152 A  
HETATM   21  C   UNL     1     -11.212   6.352  70.606  1.00  0.00    -0.400 A  
HETATM   22  C   UNL     1      -9.786   4.982  69.219  1.00  0.00    -0.266 A  
HETATM   23  C   UNL     1      -8.697   5.790  69.536  1.00  0.00    -0.111 A  
HETATM   24  C   UNL     1     -10.120   7.158  70.932  1.00  0.00    -0.200 A  
HETATM   25  C   UNL     1     -11.042   5.260  69.756  1.00  0.00     0.522 A  
ENDBRANCH  19  20
ENDBRANCH   8  19
ENDBRANCH   7   8
BRANCH   7  26
HETATM   26  O   UNL     1      -9.746   9.164  72.408  1.00  0.00    -0.108 OA 
HETATM   27  O   UNL     1     -11.596   6.554  71.694  1.00  0.00    -0.279 OA 
HETATM   28  O   UNL     1     -11.424   7.995  73.488  1.00  0.00     0.021 OA 
HETATM   29  O   UNL     1      -9.581   6.731  72.484  1.00  0.00    -0.153 OA 
HETATM   30  P   UNL     1     -10.722   7.786  72.032  1.00  0.00    -0.268 P  
ENDBRANCH   7  26
ENDBRANCH   6   7
ENDBRANCH   5   6
BRANCH   5  31
HETATM   31  S   UNL     1      -6.776  12.731  72.925  1.00  0.00     6.916 S  
HETATM   32  O   UNL     1      -5.405  12.834  72.471  1.00  0.00    -0.371 OA 
HETATM   33  O   UNL     1      -7.036  12.775  74.351  1.00  0.00     2.571 OA 
BRANCH  31  34
HETATM   34  C   UNL     1      -7.604  14.113  72.230  1.00  0.00     5.822 A  
HETATM   35  N   UNL     1      -9.703  17.221  70.379  1.00  0.00     1.852 NA 
HETATM   36  C   UNL     1      -6.890  15.150  71.630  1.00  0.00     1.835 A  
HETATM   37  H1  UNL     1     -10.723  17.230  70.385  1.00  0.00     0.000 HD 
HETATM   38  H2  UNL     1      -9.390  17.260  69.408  1.00  0.00     0.000 HD 
HETATM   39  C   UNL     1      -8.991  14.037  72.092  1.00  0.00     9.860 A  
HETATM   40  C   UNL     1      -9.683  15.077  71.489  1.00  0.00     2.762 A  
HETATM   41  C   UNL     1      -7.596  16.187  71.017  1.00  0.00     3.728 A  
HETATM   42  C   UNL     1      -8.997  16.201  71.026  1.00  0.00     3.986 A  
ENDBRANCH  31  34
ENDBRANCH   5  31
ENDBRANCH   4   5
TORSDOF 12
ENDMDL
