MODEL        1
REMARK 921   NORMALIZED FREE ENERGY PREDICTED BY IDOCK:   -7.37 KCAL/MOL
REMARK 922        TOTAL FREE ENERGY PREDICTED BY IDOCK:  -15.44 KCAL/MOL
REMARK 923 INTER-LIGAND FREE ENERGY PREDICTED BY IDOCK:  -12.98 KCAL/MOL
REMARK 924 INTRA-LIGAND FREE ENERGY PREDICTED BY IDOCK:   -2.46 KCAL/MOL
REMARK 927      BINDING AFFINITY PREDICTED BY RF-SCORE:    0.00 PKD
ROOT
HETATM    1  C   UNL     1      -6.311  19.017  65.117  1.00  0.00    -0.309 C  
HETATM    2  C   UNL     1      -7.096  20.193  65.668  1.00  0.00    -0.316 C  
ENDROOT
BRANCH   2   3
HETATM    3  C   UNL     1      -8.497  19.923  66.212  1.00  0.00    -0.338 C  
HETATM    4  O   UNL     1      -9.457  19.708  65.480  1.00  0.00    -0.242 OA 
BRANCH   3   5
HETATM    5  O   UNL     1      -8.525  19.836  67.565  1.00  0.00    -0.303 OA 
BRANCH   5   6
HETATM    6  C   UNL     1      -8.319  18.524  68.179  1.00  0.00    -0.296 C  
HETATM    7  C   UNL     1      -6.845  18.490  68.723  1.00  0.00    -0.287 C  
HETATM    8  C   UNL     1      -6.456  17.168  69.382  1.00  0.00    -0.233 C  
HETATM    9  C   UNL     1      -6.536  19.635  69.689  1.00  0.00    -0.371 C  
BRANCH   6  10
HETATM   10  O   UNL     1      -8.596  17.373  67.324  1.00  0.00    -0.207 OA 
BRANCH  10  11
HETATM   11  P   UNL     1     -10.050  16.588  67.536  1.00  0.00    -0.279 P  
HETATM   12  O   UNL     1     -10.721  17.876  68.073  1.00  0.00    -0.378 OA 
BRANCH  11  13
HETATM   13  C   UNL     1      -9.940  15.856  69.357  1.00  0.00    -0.274 C  
BRANCH  13  14
HETATM   14  C   UNL     1     -11.127  16.282  70.228  1.00  0.00    -0.340 C  
BRANCH  14  15
HETATM   15  C   UNL     1     -11.430  15.331  71.371  1.00  0.00    -0.444 C  
BRANCH  15  16
HETATM   16  C   UNL     1     -12.789  14.657  71.122  1.00  0.00    -0.411 C  
BRANCH  16  17
HETATM   17  C   UNL     1     -12.631  13.166  71.034  1.00  0.00    -0.397 A  
HETATM   18  C   UNL     1     -13.250  12.327  71.970  1.00  0.00    -0.508 A  
HETATM   19  C   UNL     1     -11.909  12.602  69.975  1.00  0.00    -0.358 A  
HETATM   20  C   UNL     1     -12.427  10.385  70.787  1.00  0.00    -0.461 A  
HETATM   21  C   UNL     1     -13.139  10.937  71.847  1.00  0.00    -0.537 A  
HETATM   22  C   UNL     1     -11.814  11.216  69.854  1.00  0.00    -0.439 A  
ENDBRANCH  16  17
ENDBRANCH  15  16
ENDBRANCH  14  15
ENDBRANCH  13  14
ENDBRANCH  11  13
BRANCH  11  23
HETATM   23  C   UNL     1      -9.257  15.066  66.900  1.00  0.00    -0.246 C  
BRANCH  23  24
HETATM   24  C   UNL     1      -9.969  14.440  65.687  1.00  0.00    -0.337 C  
HETATM   25  C   UNL     1     -10.729  12.486  64.315  1.00  0.00    -0.369 C  
HETATM   26  O   UNL     1     -10.368  15.169  64.769  1.00  0.00    -0.331 OA 
HETATM   27  N   UNL     1     -10.241  13.094  65.578  1.00  0.00    -0.291 N  
HETATM   28  C   UNL     1     -12.192  12.756  63.866  1.00  0.00    -0.463 C  
HETATM   29  O   UNL     1     -12.857  11.972  63.197  1.00  0.00    -0.661 OA 
HETATM   30  C   UNL     1     -10.367  12.120  66.644  1.00  0.00    -0.208 C  
HETATM   31  C   UNL     1     -10.145  10.744  65.990  1.00  0.00    -0.305 C  
HETATM   32  O   UNL     1     -12.655  13.991  64.152  1.00  0.00    -0.680 OA 
HETATM   33  C   UNL     1     -10.535  10.970  64.513  1.00  0.00    -0.411 C  
BRANCH  31  34
HETATM   34  C   UNL     1      -8.712  10.143  66.123  1.00  0.00    -0.154 C  
HETATM   35  C   UNL     1      -8.938   9.297  68.505  1.00  0.00    -0.129 C  
HETATM   36  C   UNL     1      -8.903   7.842  68.053  1.00  0.00    -0.124 C  
HETATM   37  C   UNL     1      -9.292   7.664  66.587  1.00  0.00    -0.239 C  
HETATM   38  C   UNL     1      -8.140  10.177  67.550  1.00  0.00    -0.113 C  
HETATM   39  C   UNL     1      -8.631   8.673  65.640  1.00  0.00    -0.191 C  
ENDBRANCH  31  34
ENDBRANCH  23  24
ENDBRANCH  11  23
ENDBRANCH  10  11
ENDBRANCH   6  10
ENDBRANCH   5   6
ENDBRANCH   3   5
ENDBRANCH   2   3
TORSDOF 13
ENDMDL
MODEL        2
REMARK 921   NORMALIZED FREE ENERGY PREDICTED BY IDOCK:   -7.10 KCAL/MOL
REMARK 922        TOTAL FREE ENERGY PREDICTED BY IDOCK:  -14.96 KCAL/MOL
REMARK 923 INTER-LIGAND FREE ENERGY PREDICTED BY IDOCK:  -11.80 KCAL/MOL
REMARK 924 INTRA-LIGAND FREE ENERGY PREDICTED BY IDOCK:   -3.16 KCAL/MOL
REMARK 927      BINDING AFFINITY PREDICTED BY RF-SCORE:    0.00 PKD
ROOT
HETATM    1  C   UNL     1     -10.937  19.504  66.984  1.00  0.00    -0.443 C  
HETATM    2  C   UNL     1      -9.848  18.756  66.237  1.00  0.00    -0.382 C  
ENDROOT
BRANCH   2   3
HETATM    3  C   UNL     1     -10.231  17.461  65.525  1.00  0.00     0.018 C  
HETATM    4  O   UNL     1     -11.143  17.406  64.707  1.00  0.00    -0.973 OA 
BRANCH   3   5
HETATM    5  O   UNL     1      -9.388  16.438  65.809  1.00  0.00    -0.468 OA 
BRANCH   5   6
HETATM    6  C   UNL     1      -9.151  16.105  67.213  1.00  0.00    -0.203 C  
HETATM    7  C   UNL     1      -7.662  15.614  67.331  1.00  0.00    -0.215 C  
HETATM    8  C   UNL     1      -7.254  15.201  68.744  1.00  0.00    -0.127 C  
HETATM    9  C   UNL     1      -6.651  16.631  66.799  1.00  0.00    -0.217 C  
BRANCH   6  10
HETATM   10  O   UNL     1     -10.076  15.141  67.802  1.00  0.00    -0.228 OA 
BRANCH  10  11
HETATM   11  P   UNL     1     -11.403  15.741  68.610  1.00  0.00    -0.375 P  
HETATM   12  O   UNL     1     -10.584  16.932  69.167  1.00  0.00    -0.325 OA 
BRANCH  11  13
HETATM   13  C   UNL     1     -11.343  14.850  70.362  1.00  0.00    -0.243 C  
BRANCH  13  14
HETATM   14  C   UNL     1     -12.740  14.510  70.890  1.00  0.00    -0.411 C  
BRANCH  14  15
HETATM   15  C   UNL     1     -12.857  13.116  71.481  1.00  0.00    -0.401 C  
BRANCH  15  16
HETATM   16  C   UNL     1     -12.280  12.095  70.487  1.00  0.00    -0.392 C  
BRANCH  16  17
HETATM   17  C   UNL     1     -12.195  10.734  71.119  1.00  0.00    -0.457 A  
HETATM   18  C   UNL     1     -13.168  10.311  72.034  1.00  0.00    -0.516 A  
HETATM   19  C   UNL     1     -11.170   9.855  70.748  1.00  0.00    -0.427 A  
HETATM   20  C   UNL     1     -12.092   8.152  72.195  1.00  0.00    -0.408 A  
HETATM   21  C   UNL     1     -13.109   9.021  72.575  1.00  0.00    -0.450 A  
HETATM   22  C   UNL     1     -11.126   8.568  71.283  1.00  0.00    -0.320 A  
ENDBRANCH  16  17
ENDBRANCH  15  16
ENDBRANCH  14  15
ENDBRANCH  13  14
ENDBRANCH  11  13
BRANCH  11  23
HETATM   23  C   UNL     1     -12.370  14.334  67.953  1.00  0.00     0.014 C  
BRANCH  23  24
HETATM   24  C   UNL     1     -11.920  13.852  66.561  1.00  0.00    -0.439 C  
HETATM   25  C   UNL     1     -10.500  12.455  65.040  1.00  0.00    -0.294 C  
HETATM   26  O   UNL     1     -12.347  14.421  65.548  1.00  0.00    -0.392 OA 
HETATM   27  N   UNL     1     -11.092  12.768  66.365  1.00  0.00    -0.277 N  
HETATM   28  C   UNL     1     -11.416  11.880  63.924  1.00  0.00    -0.426 C  
HETATM   29  O   UNL     1     -11.022  11.134  63.034  1.00  0.00    -0.057 OA 
HETATM   30  C   UNL     1     -10.863  11.647  67.255  1.00  0.00    -0.256 C  
HETATM   31  C   UNL     1      -9.517  11.034  66.827  1.00  0.00    -0.203 C  
HETATM   32  O   UNL     1     -12.676  12.366  63.916  1.00  0.00    -0.673 OA 
HETATM   33  C   UNL     1      -9.380  11.442  65.344  1.00  0.00    -0.206 C  
BRANCH  31  34
HETATM   34  C   UNL     1      -8.271  11.463  67.660  1.00  0.00    -0.128 C  
HETATM   35  C   UNL     1      -7.966   9.285  68.928  1.00  0.00    -0.098 C  
HETATM   36  C   UNL     1      -6.670   8.969  68.190  1.00  0.00    -0.065 C  
HETATM   37  C   UNL     1      -6.550   9.704  66.857  1.00  0.00    -0.067 C  
HETATM   38  C   UNL     1      -8.168  10.792  69.040  1.00  0.00    -0.139 C  
HETATM   39  C   UNL     1      -6.934  11.187  66.926  1.00  0.00    -0.131 C  
ENDBRANCH  31  34
ENDBRANCH  23  24
ENDBRANCH  11  23
ENDBRANCH  10  11
ENDBRANCH   6  10
ENDBRANCH   5   6
ENDBRANCH   3   5
ENDBRANCH   2   3
TORSDOF 13
ENDMDL
MODEL        3
REMARK 921   NORMALIZED FREE ENERGY PREDICTED BY IDOCK:   -7.03 KCAL/MOL
REMARK 922        TOTAL FREE ENERGY PREDICTED BY IDOCK:  -14.84 KCAL/MOL
REMARK 923 INTER-LIGAND FREE ENERGY PREDICTED BY IDOCK:  -12.21 KCAL/MOL
REMARK 924 INTRA-LIGAND FREE ENERGY PREDICTED BY IDOCK:   -2.63 KCAL/MOL
REMARK 927      BINDING AFFINITY PREDICTED BY RF-SCORE:    0.00 PKD
ROOT
HETATM    1  C   UNL     1     -12.380  15.226  64.380  1.00  0.00    -0.172 C  
HETATM    2  C   UNL     1     -12.655  13.794  64.802  1.00  0.00    -0.330 C  
ENDROOT
BRANCH   2   3
HETATM    3  C   UNL     1     -12.111  12.673  63.921  1.00  0.00    -0.487 C  
HETATM    4  O   UNL     1     -12.842  11.934  63.269  1.00  0.00    -0.702 OA 
BRANCH   3   5
HETATM    5  O   UNL     1     -10.757  12.669  63.855  1.00  0.00    -0.391 OA 
BRANCH   5   6
HETATM    6  C   UNL     1     -10.025  11.711  64.683  1.00  0.00    -0.253 C  
HETATM    7  C   UNL     1      -9.840  10.403  63.831  1.00  0.00    -0.332 C  
HETATM    8  C   UNL     1      -9.107   9.282  64.564  1.00  0.00    -0.145 C  
HETATM    9  C   UNL     1      -9.148  10.655  62.490  1.00  0.00    -0.326 C  
BRANCH   6  10
HETATM   10  O   UNL     1     -10.617  11.416  65.985  1.00  0.00    -0.255 OA 
BRANCH  10  11
HETATM   11  P   UNL     1     -10.012  12.228  67.308  1.00  0.00    -0.208 P  
HETATM   12  O   UNL     1      -8.596  12.283  66.686  1.00  0.00    -0.179 OA 
BRANCH  11  13
HETATM   13  C   UNL     1      -9.445  10.798  68.532  1.00  0.00    -0.181 C  
BRANCH  13  14
HETATM   14  C   UNL     1     -10.167   9.475  68.255  1.00  0.00    -0.225 C  
BRANCH  14  15
HETATM   15  C   UNL     1     -10.745   8.813  69.493  1.00  0.00    -0.196 C  
BRANCH  15  16
HETATM   16  C   UNL     1     -10.312   9.603  70.738  1.00  0.00    -0.356 C  
BRANCH  16  17
HETATM   17  C   UNL     1      -9.907   8.667  71.842  1.00  0.00    -0.384 A  
HETATM   18  C   UNL     1      -8.556   8.493  72.169  1.00  0.00    -0.242 A  
HETATM   19  C   UNL     1     -10.887   8.008  72.593  1.00  0.00    -0.436 A  
HETATM   20  C   UNL     1      -9.174   7.016  73.980  1.00  0.00    -0.261 A  
HETATM   21  C   UNL     1      -8.193   7.660  73.234  1.00  0.00    -0.183 A  
HETATM   22  C   UNL     1     -10.518   7.190  73.660  1.00  0.00    -0.412 A  
ENDBRANCH  16  17
ENDBRANCH  15  16
ENDBRANCH  14  15
ENDBRANCH  13  14
ENDBRANCH  11  13
BRANCH  11  23
HETATM   23  C   UNL     1     -11.686  12.164  68.043  1.00  0.00    -0.344 C  
BRANCH  23  24
HETATM   24  C   UNL     1     -11.829  12.945  69.363  1.00  0.00    -0.312 C  
HETATM   25  C   UNL     1     -11.655  15.027  70.748  1.00  0.00    -0.317 C  
HETATM   26  O   UNL     1     -12.090  12.338  70.409  1.00  0.00    -0.355 OA 
HETATM   27  N   UNL     1     -11.732  14.317  69.446  1.00  0.00    -0.295 N  
HETATM   28  C   UNL     1     -12.934  15.125  71.626  1.00  0.00    -0.375 C  
HETATM   29  O   UNL     1     -13.161  16.049  72.401  1.00  0.00    -0.448 OA 
HETATM   30  C   UNL     1     -11.943  15.293  68.395  1.00  0.00    -0.163 C  
HETATM   31  C   UNL     1     -11.217  16.571  68.850  1.00  0.00    -0.257 C  
HETATM   32  O   UNL     1     -13.738  14.042  71.582  1.00  0.00    -0.357 OA 
HETATM   33  C   UNL     1     -11.181  16.448  70.389  1.00  0.00    -0.253 C  
BRANCH  31  34
HETATM   34  C   UNL     1      -9.792  16.801  68.257  1.00  0.00    -0.257 C  
HETATM   35  C   UNL     1     -10.520  17.900  66.088  1.00  0.00    -0.321 C  
HETATM   36  C   UNL     1      -9.953  19.250  66.514  1.00  0.00    -0.470 C  
HETATM   37  C   UNL     1      -9.797  19.379  68.028  1.00  0.00    -0.465 C  
HETATM   38  C   UNL     1      -9.730  16.760  66.721  1.00  0.00    -0.273 C  
HETATM   39  C   UNL     1      -9.169  18.150  68.697  1.00  0.00    -0.295 C  
ENDBRANCH  31  34
ENDBRANCH  23  24
ENDBRANCH  11  23
ENDBRANCH  10  11
ENDBRANCH   6  10
ENDBRANCH   5   6
ENDBRANCH   3   5
ENDBRANCH   2   3
TORSDOF 13
ENDMDL
MODEL        4
REMARK 921   NORMALIZED FREE ENERGY PREDICTED BY IDOCK:   -6.81 KCAL/MOL
REMARK 922        TOTAL FREE ENERGY PREDICTED BY IDOCK:  -14.46 KCAL/MOL
REMARK 923 INTER-LIGAND FREE ENERGY PREDICTED BY IDOCK:  -12.00 KCAL/MOL
REMARK 924 INTRA-LIGAND FREE ENERGY PREDICTED BY IDOCK:   -2.46 KCAL/MOL
REMARK 927      BINDING AFFINITY PREDICTED BY RF-SCORE:    0.00 PKD
ROOT
HETATM    1  C   UNL     1     -10.844  15.988  65.036  1.00  0.00    -0.421 C  
HETATM    2  C   UNL     1     -10.837  14.470  65.033  1.00  0.00    -0.425 C  
ENDROOT
BRANCH   2   3
HETATM    3  C   UNL     1     -12.036  13.753  64.417  1.00  0.00    -0.445 C  
HETATM    4  O   UNL     1     -12.593  14.156  63.401  1.00  0.00    -0.818 OA 
BRANCH   3   5
HETATM    5  O   UNL     1     -12.326  12.586  65.042  1.00  0.00    -0.472 OA 
BRANCH   5   6
HETATM    6  C   UNL     1     -11.311  11.996  65.915  1.00  0.00    -0.337 C  
HETATM    7  C   UNL     1     -10.658  10.800  65.131  1.00  0.00    -0.239 C  
HETATM    8  C   UNL     1      -9.582  10.054  65.917  1.00  0.00    -0.283 C  
HETATM    9  C   UNL     1     -10.084  11.215  63.775  1.00  0.00    -0.416 C  
BRANCH   6  10
HETATM   10  O   UNL     1     -11.776  11.574  67.233  1.00  0.00    -0.576 OA 
BRANCH  10  11
HETATM   11  P   UNL     1     -11.271  12.463  68.549  1.00  0.00    -0.328 P  
HETATM   12  O   UNL     1     -12.149  13.668  68.132  1.00  0.00    -0.359 OA 
BRANCH  11  13
HETATM   13  C   UNL     1      -9.657  13.388  67.913  1.00  0.00    -0.216 C  
BRANCH  13  14
HETATM   14  C   UNL     1      -9.550  14.815  68.460  1.00  0.00    -0.218 C  
BRANCH  14  15
HETATM   15  C   UNL     1      -8.293  15.551  68.033  1.00  0.00    -0.142 C  
BRANCH  15  16
HETATM   16  C   UNL     1      -8.278  16.945  68.681  1.00  0.00    -0.254 C  
BRANCH  16  17
HETATM   17  C   UNL     1      -8.947  17.951  67.786  1.00  0.00    -0.254 A  
HETATM   18  C   UNL     1     -10.310  18.241  67.935  1.00  0.00    -0.417 A  
HETATM   19  C   UNL     1      -8.193  18.649  66.836  1.00  0.00    -0.268 A  
HETATM   20  C   UNL     1     -10.152  19.912  66.196  1.00  0.00    -0.611 A  
HETATM   21  C   UNL     1     -10.910  19.218  67.132  1.00  0.00    -0.543 A  
HETATM   22  C   UNL     1      -8.797  19.628  66.048  1.00  0.00    -0.276 A  
ENDBRANCH  16  17
ENDBRANCH  15  16
ENDBRANCH  14  15
ENDBRANCH  13  14
ENDBRANCH  11  13
BRANCH  11  23
HETATM   23  C   UNL     1     -10.233  11.039  69.042  1.00  0.00    -0.200 C  
BRANCH  23  24
HETATM   24  C   UNL     1     -11.008   9.900  69.731  1.00  0.00    -0.268 C  
HETATM   25  C   UNL     1     -11.610   7.487  70.044  1.00  0.00     0.051 C  
HETATM   26  O   UNL     1     -11.910  10.171  70.533  1.00  0.00    -0.281 OA 
HETATM   27  N   UNL     1     -10.720   8.565  69.545  1.00  0.00    -0.209 N  
HETATM   28  C   UNL     1     -11.661   7.200  71.570  1.00  0.00    -0.290 C  
HETATM   29  O   UNL     1     -11.908   6.099  72.050  1.00  0.00    -0.318 OA 
HETATM   30  C   UNL     1      -9.469   7.974  69.110  1.00  0.00    -0.155 C  
HETATM   31  C   UNL     1      -9.825   6.577  68.572  1.00  0.00    -0.140 C  
HETATM   32  O   UNL     1     -11.544   8.291  72.357  1.00  0.00    -0.359 OA 
HETATM   33  C   UNL     1     -11.134   6.219  69.309  1.00  0.00    -0.461 C  
BRANCH  31  34
HETATM   34  C   UNL     1      -9.983   6.455  67.025  1.00  0.00    -0.209 C  
HETATM   35  C   UNL     1      -7.695   5.465  66.546  1.00  0.00    -0.099 C  
HETATM   36  C   UNL     1      -8.296   4.120  66.153  1.00  0.00    -0.109 C  
HETATM   37  C   UNL     1      -9.692   3.900  66.730  1.00  0.00    -0.189 C  
HETATM   38  C   UNL     1      -8.668   6.598  66.240  1.00  0.00    -0.150 C  
HETATM   39  C   UNL     1     -10.622   5.112  66.591  1.00  0.00    -0.295 C  
ENDBRANCH  31  34
ENDBRANCH  23  24
ENDBRANCH  11  23
ENDBRANCH  10  11
ENDBRANCH   6  10
ENDBRANCH   5   6
ENDBRANCH   3   5
ENDBRANCH   2   3
TORSDOF 13
ENDMDL
MODEL        5
REMARK 921   NORMALIZED FREE ENERGY PREDICTED BY IDOCK:   -6.79 KCAL/MOL
REMARK 922        TOTAL FREE ENERGY PREDICTED BY IDOCK:  -14.41 KCAL/MOL
REMARK 923 INTER-LIGAND FREE ENERGY PREDICTED BY IDOCK:  -11.59 KCAL/MOL
REMARK 924 INTRA-LIGAND FREE ENERGY PREDICTED BY IDOCK:   -2.81 KCAL/MOL
REMARK 927      BINDING AFFINITY PREDICTED BY RF-SCORE:    0.00 PKD
ROOT
HETATM    1  C   UNL     1     -12.263  15.218  64.391  1.00  0.00    -0.222 C  
HETATM    2  C   UNL     1     -12.607  13.824  64.882  1.00  0.00    -0.380 C  
ENDROOT
BRANCH   2   3
HETATM    3  C   UNL     1     -12.190  12.639  64.015  1.00  0.00    -0.463 C  
HETATM    4  O   UNL     1     -13.005  11.885  63.494  1.00  0.00    -0.724 OA 
BRANCH   3   5
HETATM    5  O   UNL     1     -10.852  12.592  63.800  1.00  0.00    -0.406 OA 
BRANCH   5   6
HETATM    6  C   UNL     1     -10.050  11.682  64.616  1.00  0.00    -0.262 C  
HETATM    7  C   UNL     1      -9.732  10.421  63.732  1.00  0.00    -0.351 C  
HETATM    8  C   UNL     1      -8.911   9.350  64.450  1.00  0.00    -0.215 C  
HETATM    9  C   UNL     1      -9.044  10.771  62.412  1.00  0.00    -0.332 C  
BRANCH   6  10
HETATM   10  O   UNL     1     -10.634  11.298  65.898  1.00  0.00    -0.258 OA 
BRANCH  10  11
HETATM   11  P   UNL     1      -9.956  11.943  67.276  1.00  0.00    -0.188 P  
HETATM   12  O   UNL     1      -8.546  11.951  66.637  1.00  0.00    -0.187 OA 
BRANCH  11  13
HETATM   13  C   UNL     1      -9.483  10.373  68.360  1.00  0.00    -0.149 C  
BRANCH  13  14
HETATM   14  C   UNL     1     -10.574   9.297  68.333  1.00  0.00    -0.234 C  
BRANCH  14  15
HETATM   15  C   UNL     1     -10.045   7.880  68.199  1.00  0.00    -0.228 C  
BRANCH  15  16
HETATM   16  C   UNL     1     -10.645   7.233  66.940  1.00  0.00    -0.375 C  
BRANCH  16  17
HETATM   17  C   UNL     1      -9.833   6.040  66.522  1.00  0.00    -0.186 A  
HETATM   18  C   UNL     1     -10.463   4.853  66.124  1.00  0.00    -0.346 A  
HETATM   19  C   UNL     1      -8.437   6.130  66.470  1.00  0.00    -0.119 A  
HETATM   20  C   UNL     1      -8.312   3.867  65.629  1.00  0.00    -0.109 A  
HETATM   21  C   UNL     1      -9.698   3.766  65.685  1.00  0.00    -0.144 A  
HETATM   22  C   UNL     1      -7.684   5.046  66.020  1.00  0.00    -0.091 A  
ENDBRANCH  16  17
ENDBRANCH  15  16
ENDBRANCH  14  15
ENDBRANCH  13  14
ENDBRANCH  11  13
BRANCH  11  23
HETATM   23  C   UNL     1     -11.623  11.934  68.032  1.00  0.00    -0.332 C  
BRANCH  23  24
HETATM   24  C   UNL     1     -11.738  12.769  69.321  1.00  0.00    -0.319 C  
HETATM   25  C   UNL     1     -11.554  14.908  70.613  1.00  0.00    -0.291 C  
HETATM   26  O   UNL     1     -11.959  12.202  70.399  1.00  0.00    -0.343 OA 
HETATM   27  N   UNL     1     -11.658  14.144  69.344  1.00  0.00    -0.284 N  
HETATM   28  C   UNL     1     -12.807  15.027  71.524  1.00  0.00    -0.347 C  
HETATM   29  O   UNL     1     -13.025  15.978  72.267  1.00  0.00    -0.450 OA 
HETATM   30  C   UNL     1     -11.915  15.071  68.260  1.00  0.00    -0.183 C  
HETATM   31  C   UNL     1     -11.194  16.377  68.640  1.00  0.00    -0.332 C  
HETATM   32  O   UNL     1     -13.597  13.932  71.550  1.00  0.00    -0.334 OA 
HETATM   33  C   UNL     1     -11.112  16.320  70.181  1.00  0.00    -0.346 C  
BRANCH  31  34
HETATM   34  C   UNL     1      -9.792  16.601  67.996  1.00  0.00    -0.245 C  
HETATM   35  C   UNL     1     -10.509  18.295  66.245  1.00  0.00    -0.397 C  
HETATM   36  C   UNL     1      -9.752  19.421  66.941  1.00  0.00    -0.431 C  
HETATM   37  C   UNL     1      -9.488  19.137  68.419  1.00  0.00    -0.425 C  
HETATM   38  C   UNL     1      -9.830  16.953  66.499  1.00  0.00    -0.307 C  
HETATM   39  C   UNL     1      -8.979  17.718  68.699  1.00  0.00    -0.258 C  
ENDBRANCH  31  34
ENDBRANCH  23  24
ENDBRANCH  11  23
ENDBRANCH  10  11
ENDBRANCH   6  10
ENDBRANCH   5   6
ENDBRANCH   3   5
ENDBRANCH   2   3
TORSDOF 13
ENDMDL
MODEL        6
REMARK 921   NORMALIZED FREE ENERGY PREDICTED BY IDOCK:   -6.62 KCAL/MOL
REMARK 922        TOTAL FREE ENERGY PREDICTED BY IDOCK:  -14.11 KCAL/MOL
REMARK 923 INTER-LIGAND FREE ENERGY PREDICTED BY IDOCK:  -10.76 KCAL/MOL
REMARK 924 INTRA-LIGAND FREE ENERGY PREDICTED BY IDOCK:   -3.36 KCAL/MOL
REMARK 927      BINDING AFFINITY PREDICTED BY RF-SCORE:    0.00 PKD
ROOT
HETATM    1  C   UNL     1      -9.313  15.755  66.175  1.00  0.00    -0.381 C  
HETATM    2  C   UNL     1      -9.830  14.667  67.098  1.00  0.00    -0.237 C  
ENDROOT
BRANCH   2   3
HETATM    3  C   UNL     1     -11.222  14.842  67.699  1.00  0.00    -0.323 C  
HETATM    4  O   UNL     1     -11.519  15.803  68.402  1.00  0.00    -0.362 OA 
BRANCH   3   5
HETATM    5  O   UNL     1     -12.098  13.897  67.278  1.00  0.00    -0.401 OA 
BRANCH   5   6
HETATM    6  C   UNL     1     -11.640  12.918  66.292  1.00  0.00    -0.372 C  
HETATM    7  C   UNL     1     -12.487  13.140  64.986  1.00  0.00    -0.516 C  
HETATM    8  C   UNL     1     -12.146  12.173  63.853  1.00  0.00    -0.584 C  
HETATM    9  C   UNL     1     -12.408  14.573  64.457  1.00  0.00    -0.434 C  
BRANCH   6  10
HETATM   10  O   UNL     1     -11.680  11.522  66.720  1.00  0.00    -0.510 OA 
BRANCH  10  11
HETATM   11  P   UNL     1     -10.227  10.777  67.051  1.00  0.00    -0.237 P  
HETATM   12  O   UNL     1     -10.115  10.244  65.602  1.00  0.00    -0.273 OA 
BRANCH  11  13
HETATM   13  C   UNL     1     -10.739   8.991  67.694  1.00  0.00    -0.163 C  
BRANCH  13  14
HETATM   14  C   UNL     1     -10.260   7.877  66.758  1.00  0.00    -0.358 C  
BRANCH  14  15
HETATM   15  C   UNL     1     -10.885   6.521  67.037  1.00  0.00    -0.465 C  
BRANCH  15  16
HETATM   16  C   UNL     1     -10.122   5.441  66.253  1.00  0.00    -0.209 C  
BRANCH  16  17
HETATM   17  C   UNL     1      -9.189   4.690  67.161  1.00  0.00    -0.140 A  
HETATM   18  C   UNL     1      -7.866   5.116  67.334  1.00  0.00    -0.096 A  
HETATM   19  C   UNL     1      -9.659   3.590  67.888  1.00  0.00    -0.177 A  
HETATM   20  C   UNL     1      -7.499   3.354  68.947  1.00  0.00    -0.049 A  
HETATM   21  C   UNL     1      -7.022   4.441  68.223  1.00  0.00    -0.056 A  
HETATM   22  C   UNL     1      -8.814   2.930  68.780  1.00  0.00    -0.161 A  
ENDBRANCH  16  17
ENDBRANCH  15  16
ENDBRANCH  14  15
ENDBRANCH  13  14
ENDBRANCH  11  13
BRANCH  11  23
HETATM   23  C   UNL     1     -10.359  11.407  68.764  1.00  0.00    -0.204 C  
BRANCH  23  24
HETATM   24  C   UNL     1     -11.533  10.816  69.567  1.00  0.00    -0.294 C  
HETATM   25  C   UNL     1     -12.571   9.070  71.036  1.00  0.00    -0.125 C  
HETATM   26  O   UNL     1     -12.656  11.327  69.476  1.00  0.00    -0.181 OA 
HETATM   27  N   UNL     1     -11.398   9.759  70.441  1.00  0.00    -0.279 N  
HETATM   28  C   UNL     1     -13.391   9.796  72.137  1.00  0.00    -0.431 C  
HETATM   29  O   UNL     1     -14.003   9.216  73.028  1.00  0.00    -0.365 OA 
HETATM   30  C   UNL     1     -10.199   9.312  71.123  1.00  0.00    -0.317 C  
HETATM   31  C   UNL     1     -10.461   7.850  71.527  1.00  0.00    -0.251 C  
HETATM   32  O   UNL     1     -13.502  11.132  71.975  1.00  0.00    -0.376 OA 
HETATM   33  C   UNL     1     -12.000   7.761  71.614  1.00  0.00    -0.330 C  
BRANCH  31  34
HETATM   34  C   UNL     1      -9.873   6.759  70.580  1.00  0.00    -0.187 C  
HETATM   35  C   UNL     1      -7.901   6.098  72.036  1.00  0.00    -0.105 C  
HETATM   36  C   UNL     1      -8.502   4.728  72.328  1.00  0.00    -0.119 C  
HETATM   37  C   UNL     1     -10.015   4.684  72.121  1.00  0.00    -0.241 C  
HETATM   38  C   UNL     1      -8.346   6.600  70.667  1.00  0.00    -0.129 C  
HETATM   39  C   UNL     1     -10.486   5.357  70.826  1.00  0.00    -0.317 C  
ENDBRANCH  31  34
ENDBRANCH  23  24
ENDBRANCH  11  23
ENDBRANCH  10  11
ENDBRANCH   6  10
ENDBRANCH   5   6
ENDBRANCH   3   5
ENDBRANCH   2   3
TORSDOF 13
ENDMDL
MODEL        7
REMARK 921   NORMALIZED FREE ENERGY PREDICTED BY IDOCK:   -6.54 KCAL/MOL
REMARK 922        TOTAL FREE ENERGY PREDICTED BY IDOCK:  -13.97 KCAL/MOL
REMARK 923 INTER-LIGAND FREE ENERGY PREDICTED BY IDOCK:  -11.83 KCAL/MOL
REMARK 924 INTRA-LIGAND FREE ENERGY PREDICTED BY IDOCK:   -2.14 KCAL/MOL
REMARK 927      BINDING AFFINITY PREDICTED BY RF-SCORE:    0.00 PKD
ROOT
HETATM    1  C   UNL     1     -10.703  19.520  66.228  1.00  0.00    -0.530 C  
HETATM    2  C   UNL     1     -10.656  18.032  66.525  1.00  0.00    -0.263 C  
ENDROOT
BRANCH   2   3
HETATM    3  C   UNL     1     -10.423  17.078  65.355  1.00  0.00    -0.112 C  
HETATM    4  O   UNL     1     -11.160  17.046  64.376  1.00  0.00    -1.144 OA 
BRANCH   3   5
HETATM    5  O   UNL     1      -9.270  16.376  65.474  1.00  0.00    -0.419 OA 
BRANCH   5   6
HETATM    6  C   UNL     1      -9.269  15.183  66.321  1.00  0.00    -0.301 C  
HETATM    7  C   UNL     1      -8.086  15.338  67.344  1.00  0.00    -0.205 C  
HETATM    8  C   UNL     1      -7.929  14.154  68.297  1.00  0.00    -0.140 C  
HETATM    9  C   UNL     1      -8.166  16.627  68.163  1.00  0.00    -0.192 C  
BRANCH   6  10
HETATM   10  O   UNL     1      -9.197  13.906  65.616  1.00  0.00     0.119 OA 
BRANCH  10  11
HETATM   11  P   UNL     1     -10.614  13.050  65.428  1.00  0.00    -0.306 P  
HETATM   12  O   UNL     1     -10.850  13.656  64.024  1.00  0.00    -0.253 OA 
BRANCH  11  13
HETATM   13  C   UNL     1     -11.991  14.225  66.193  1.00  0.00    -0.407 C  
BRANCH  13  14
HETATM   14  C   UNL     1     -12.305  13.881  67.653  1.00  0.00    -0.069 C  
BRANCH  14  15
HETATM   15  C   UNL     1     -11.774  14.888  68.657  1.00  0.00    -0.358 C  
BRANCH  15  16
HETATM   16  C   UNL     1     -11.478  14.172  69.985  1.00  0.00    -0.258 C  
BRANCH  16  17
HETATM   17  C   UNL     1     -12.232  14.819  71.112  1.00  0.00    -0.388 A  
HETATM   18  C   UNL     1     -13.633  14.836  71.115  1.00  0.00    -0.432 A  
HETATM   19  C   UNL     1     -11.534  15.357  72.200  1.00  0.00    -0.525 A  
HETATM   20  C   UNL     1     -13.624  15.918  73.277  1.00  0.00    -0.512 A  
HETATM   21  C   UNL     1     -14.325  15.394  72.197  1.00  0.00    -0.642 A  
HETATM   22  C   UNL     1     -12.232  15.899  73.279  1.00  0.00    -0.625 A  
ENDBRANCH  16  17
ENDBRANCH  15  16
ENDBRANCH  14  15
ENDBRANCH  13  14
ENDBRANCH  11  13
BRANCH  11  23
HETATM   23  C   UNL     1     -10.335  12.333  67.089  1.00  0.00    -0.218 C  
BRANCH  23  24
HETATM   24  C   UNL     1      -9.531  11.019  67.084  1.00  0.00    -0.164 C  
HETATM   25  C   UNL     1      -8.927   8.774  68.020  1.00  0.00    -0.140 C  
HETATM   26  O   UNL     1      -8.583  10.885  66.299  1.00  0.00    -0.153 OA 
HETATM   27  N   UNL     1      -9.838   9.939  67.882  1.00  0.00    -0.141 N  
HETATM   28  C   UNL     1      -8.793   7.781  66.832  1.00  0.00    -0.131 C  
HETATM   29  O   UNL     1      -8.527   6.591  66.964  1.00  0.00    -0.112 OA 
HETATM   30  C   UNL     1     -11.114   9.608  68.484  1.00  0.00    -0.041 C  
HETATM   31  C   UNL     1     -10.798   8.658  69.654  1.00  0.00    -0.163 C  
HETATM   32  O   UNL     1      -8.859   8.346  65.608  1.00  0.00    -0.172 OA 
HETATM   33  C   UNL     1      -9.452   8.015  69.254  1.00  0.00    -0.155 C  
BRANCH  31  34
HETATM   34  C   UNL     1     -10.727   9.310  71.069  1.00  0.00    -0.387 C  
HETATM   35  C   UNL     1     -13.160  10.018  71.218  1.00  0.00    -0.493 C  
HETATM   36  C   UNL     1     -13.450   8.998  72.313  1.00  0.00    -0.529 C  
HETATM   37  C   UNL     1     -12.446   7.847  72.337  1.00  0.00    -0.208 C  
HETATM   38  C   UNL     1     -11.707  10.476  71.280  1.00  0.00    -0.241 C  
HETATM   39  C   UNL     1     -10.984   8.294  72.211  1.00  0.00    -0.418 C  
ENDBRANCH  31  34
ENDBRANCH  23  24
ENDBRANCH  11  23
ENDBRANCH  10  11
ENDBRANCH   6  10
ENDBRANCH   5   6
ENDBRANCH   3   5
ENDBRANCH   2   3
TORSDOF 13
ENDMDL
MODEL        8
REMARK 921   NORMALIZED FREE ENERGY PREDICTED BY IDOCK:   -6.52 KCAL/MOL
REMARK 922        TOTAL FREE ENERGY PREDICTED BY IDOCK:  -13.93 KCAL/MOL
REMARK 923 INTER-LIGAND FREE ENERGY PREDICTED BY IDOCK:  -12.00 KCAL/MOL
REMARK 924 INTRA-LIGAND FREE ENERGY PREDICTED BY IDOCK:   -1.94 KCAL/MOL
REMARK 927      BINDING AFFINITY PREDICTED BY RF-SCORE:    0.00 PKD
ROOT
HETATM    1  C   UNL     1     -11.337  15.720  64.460  1.00  0.00    -0.324 C  
HETATM    2  C   UNL     1     -12.394  14.632  64.410  1.00  0.00    -0.420 C  
ENDROOT
BRANCH   2   3
HETATM    3  C   UNL     1     -11.947  13.219  64.045  1.00  0.00    -0.465 C  
HETATM    4  O   UNL     1     -12.666  12.440  63.426  1.00  0.00    -0.722 OA 
BRANCH   3   5
HETATM    5  O   UNL     1     -10.654  12.977  64.373  1.00  0.00    -0.367 OA 
BRANCH   5   6
HETATM    6  C   UNL     1     -10.379  12.060  65.479  1.00  0.00    -0.263 C  
HETATM    7  C   UNL     1     -10.279  10.613  64.871  1.00  0.00    -0.395 C  
HETATM    8  C   UNL     1     -10.015   9.521  65.906  1.00  0.00    -0.342 C  
HETATM    9  C   UNL     1      -9.238  10.502  63.756  1.00  0.00    -0.292 C  
BRANCH   6  10
HETATM   10  O   UNL     1     -11.326  12.104  66.589  1.00  0.00    -0.311 OA 
BRANCH  10  11
HETATM   11  P   UNL     1     -10.865  12.930  67.961  1.00  0.00    -0.264 P  
HETATM   12  O   UNL     1     -11.238  14.291  67.324  1.00  0.00    -0.296 OA 
BRANCH  11  13
HETATM   13  C   UNL     1      -8.954  13.297  67.682  1.00  0.00    -0.199 C  
BRANCH  13  14
HETATM   14  C   UNL     1      -8.707  14.701  67.120  1.00  0.00    -0.242 C  
BRANCH  14  15
HETATM   15  C   UNL     1      -8.011  15.643  68.087  1.00  0.00    -0.129 C  
BRANCH  15  16
HETATM   16  C   UNL     1      -9.071  16.428  68.878  1.00  0.00    -0.256 C  
BRANCH  16  17
HETATM   17  C   UNL     1      -9.348  17.750  68.220  1.00  0.00    -0.288 A  
HETATM   18  C   UNL     1      -8.300  18.627  67.914  1.00  0.00    -0.293 A  
HETATM   19  C   UNL     1     -10.656  18.085  67.853  1.00  0.00    -0.387 A  
HETATM   20  C   UNL     1      -9.866  20.154  66.884  1.00  0.00    -0.593 A  
HETATM   21  C   UNL     1      -8.564  19.832  67.252  1.00  0.00    -0.374 A  
HETATM   22  C   UNL     1     -10.909  19.282  67.184  1.00  0.00    -0.543 A  
ENDBRANCH  16  17
ENDBRANCH  15  16
ENDBRANCH  14  15
ENDBRANCH  13  14
ENDBRANCH  11  13
BRANCH  11  23
HETATM   23  C   UNL     1     -10.424  11.322  68.713  1.00  0.00    -0.208 C  
BRANCH  23  24
HETATM   24  C   UNL     1     -11.562  10.666  69.519  1.00  0.00    -0.288 C  
HETATM   25  C   UNL     1     -12.508   8.850  70.964  1.00  0.00    -0.140 C  
HETATM   26  O   UNL     1     -12.706  11.132  69.451  1.00  0.00    -0.240 OA 
HETATM   27  N   UNL     1     -11.372   9.600  70.369  1.00  0.00    -0.264 N  
HETATM   28  C   UNL     1     -13.344   9.521  72.089  1.00  0.00    -0.461 C  
HETATM   29  O   UNL     1     -13.919   8.898  72.976  1.00  0.00    -0.343 OA 
HETATM   30  C   UNL     1     -10.147   9.190  71.028  1.00  0.00    -0.303 C  
HETATM   31  C   UNL     1     -10.344   7.710  71.406  1.00  0.00    -0.219 C  
HETATM   32  O   UNL     1     -13.512  10.854  71.955  1.00  0.00    -0.373 OA 
HETATM   33  C   UNL     1     -11.876   7.555  71.509  1.00  0.00    -0.324 C  
BRANCH  31  34
HETATM   34  C   UNL     1      -9.723   6.664  70.430  1.00  0.00    -0.186 C  
HETATM   35  C   UNL     1      -7.673   6.104  71.820  1.00  0.00    -0.101 C  
HETATM   36  C   UNL     1      -8.186   4.699  72.115  1.00  0.00    -0.110 C  
HETATM   37  C   UNL     1      -9.699   4.570  71.952  1.00  0.00    -0.229 C  
HETATM   38  C   UNL     1      -8.187   6.592  70.470  1.00  0.00    -0.118 C  
HETATM   39  C   UNL     1     -10.247   5.226  70.679  1.00  0.00    -0.327 C  
ENDBRANCH  31  34
ENDBRANCH  23  24
ENDBRANCH  11  23
ENDBRANCH  10  11
ENDBRANCH   6  10
ENDBRANCH   5   6
ENDBRANCH   3   5
ENDBRANCH   2   3
TORSDOF 13
ENDMDL
MODEL        9
REMARK 921   NORMALIZED FREE ENERGY PREDICTED BY IDOCK:   -6.46 KCAL/MOL
REMARK 922        TOTAL FREE ENERGY PREDICTED BY IDOCK:  -13.84 KCAL/MOL
REMARK 923 INTER-LIGAND FREE ENERGY PREDICTED BY IDOCK:  -11.54 KCAL/MOL
REMARK 924 INTRA-LIGAND FREE ENERGY PREDICTED BY IDOCK:   -2.31 KCAL/MOL
REMARK 927      BINDING AFFINITY PREDICTED BY RF-SCORE:    0.00 PKD
ROOT
HETATM    1  C   UNL     1     -12.048  12.882  63.479  1.00  0.00    -0.633 C  
HETATM    2  C   UNL     1     -10.670  12.493  63.980  1.00  0.00    -0.449 C  
ENDROOT
BRANCH   2   3
HETATM    3  C   UNL     1     -10.161  11.091  63.654  1.00  0.00    -0.372 C  
HETATM    4  O   UNL     1      -9.620  10.819  62.587  1.00  0.00    -0.290 OA 
BRANCH   3   5
HETATM    5  O   UNL     1     -10.270  10.237  64.701  1.00  0.00    -0.322 OA 
BRANCH   5   6
HETATM    6  C   UNL     1      -9.803  10.686  66.013  1.00  0.00    -0.228 C  
HETATM    7  C   UNL     1      -8.311  10.213  66.163  1.00  0.00    -0.131 C  
HETATM    8  C   UNL     1      -7.672  10.586  67.500  1.00  0.00    -0.098 C  
HETATM    9  C   UNL     1      -7.409  10.705  65.029  1.00  0.00     0.085 C  
BRANCH   6  10
HETATM   10  O   UNL     1     -10.610  10.262  67.153  1.00  0.00    -0.247 OA 
BRANCH  10  11
HETATM   11  P   UNL     1     -11.430  11.442  67.996  1.00  0.00    -0.269 P  
HETATM   12  O   UNL     1     -12.159  11.918  66.716  1.00  0.00    -0.593 OA 
BRANCH  11  13
HETATM   13  C   UNL     1     -10.236  13.001  67.925  1.00  0.00    -0.234 C  
BRANCH  13  14
HETATM   14  C   UNL     1     -10.903  14.216  67.272  1.00  0.00    -0.288 C  
BRANCH  14  15
HETATM   15  C   UNL     1     -11.424  15.245  68.261  1.00  0.00    -0.359 C  
BRANCH  15  16
HETATM   16  C   UNL     1     -10.597  15.167  69.554  1.00  0.00    -0.277 C  
BRANCH  16  17
HETATM   17  C   UNL     1     -11.494  14.974  70.744  1.00  0.00    -0.335 A  
HETATM   18  C   UNL     1     -12.366  13.880  70.809  1.00  0.00    -0.449 A  
HETATM   19  C   UNL     1     -11.419  15.860  71.825  1.00  0.00    -0.457 A  
HETATM   20  C   UNL     1     -13.072  14.561  73.018  1.00  0.00    -0.611 A  
HETATM   21  C   UNL     1     -13.159  13.681  71.945  1.00  0.00    -0.476 A  
HETATM   22  C   UNL     1     -12.204  15.648  72.958  1.00  0.00    -0.574 A  
ENDBRANCH  16  17
ENDBRANCH  15  16
ENDBRANCH  14  15
ENDBRANCH  13  14
ENDBRANCH  11  13
BRANCH  11  23
HETATM   23  C   UNL     1     -10.569  10.879  69.510  1.00  0.00    -0.175 C  
BRANCH  23  24
HETATM   24  C   UNL     1     -11.230   9.673  70.203  1.00  0.00    -0.256 C  
HETATM   25  C   UNL     1     -11.655   7.218  70.475  1.00  0.00    -0.258 C  
HETATM   26  O   UNL     1     -12.106   9.863  71.057  1.00  0.00    -0.308 OA 
HETATM   27  N   UNL     1     -10.865   8.367  69.964  1.00  0.00    -0.240 N  
HETATM   28  C   UNL     1     -11.608   6.889  71.993  1.00  0.00    -0.285 C  
HETATM   29  O   UNL     1     -11.757   5.762  72.453  1.00  0.00    -0.301 OA 
HETATM   30  C   UNL     1      -9.602   7.872  69.451  1.00  0.00    -0.160 C  
HETATM   31  C   UNL     1      -9.893   6.468  68.891  1.00  0.00    -0.142 C  
HETATM   32  O   UNL     1     -11.523   7.965  72.805  1.00  0.00    -0.390 OA 
HETATM   33  C   UNL     1     -11.135   6.004  69.681  1.00  0.00    -0.474 C  
BRANCH  31  34
HETATM   34  C   UNL     1     -10.122   6.376  67.351  1.00  0.00    -0.198 C  
HETATM   35  C   UNL     1      -7.680   6.253  66.669  1.00  0.00    -0.100 C  
HETATM   36  C   UNL     1      -7.820   4.804  66.215  1.00  0.00    -0.099 C  
HETATM   37  C   UNL     1      -9.010   4.092  66.853  1.00  0.00    -0.141 C  
HETATM   38  C   UNL     1      -8.999   6.999  66.504  1.00  0.00    -0.165 C  
HETATM   39  C   UNL     1     -10.302   4.919  66.856  1.00  0.00    -0.237 C  
ENDBRANCH  31  34
ENDBRANCH  23  24
ENDBRANCH  11  23
ENDBRANCH  10  11
ENDBRANCH   6  10
ENDBRANCH   5   6
ENDBRANCH   3   5
ENDBRANCH   2   3
TORSDOF 13
ENDMDL
MODEL       10
REMARK 921   NORMALIZED FREE ENERGY PREDICTED BY IDOCK:   -6.46 KCAL/MOL
REMARK 922        TOTAL FREE ENERGY PREDICTED BY IDOCK:  -13.83 KCAL/MOL
REMARK 923 INTER-LIGAND FREE ENERGY PREDICTED BY IDOCK:  -11.61 KCAL/MOL
REMARK 924 INTRA-LIGAND FREE ENERGY PREDICTED BY IDOCK:   -2.22 KCAL/MOL
REMARK 927      BINDING AFFINITY PREDICTED BY RF-SCORE:    0.00 PKD
ROOT
HETATM    1  C   UNL     1     -14.037   7.220  71.599  1.00  0.00    -0.522 C  
HETATM    2  C   UNL     1     -14.291   8.715  71.546  1.00  0.00    -0.402 C  
ENDROOT
BRANCH   2   3
HETATM    3  C   UNL     1     -13.108   9.649  71.789  1.00  0.00    -0.421 C  
HETATM    4  O   UNL     1     -13.138  10.839  71.494  1.00  0.00    -0.406 OA 
BRANCH   3   5
HETATM    5  O   UNL     1     -12.095   9.047  72.460  1.00  0.00    -0.284 OA 
BRANCH   5   6
HETATM    6  C   UNL     1     -10.874   8.722  71.724  1.00  0.00    -0.345 C  
HETATM    7  C   UNL     1      -9.818   8.215  72.772  1.00  0.00    -0.353 C  
HETATM    8  C   UNL     1      -8.464   7.850  72.165  1.00  0.00    -0.173 C  
HETATM    9  C   UNL     1     -10.321   7.035  73.607  1.00  0.00    -0.412 C  
BRANCH   6  10
HETATM   10  O   UNL     1     -10.327   9.795  70.897  1.00  0.00    -0.286 OA 
BRANCH  10  11
HETATM   11  P   UNL     1     -10.366   9.589  69.245  1.00  0.00    -0.226 P  
HETATM   12  O   UNL     1     -10.593   8.065  69.392  1.00  0.00    -0.229 OA 
BRANCH  11  13
HETATM   13  C   UNL     1      -8.487   9.287  68.753  1.00  0.00    -0.129 C  
BRANCH  13  14
HETATM   14  C   UNL     1      -8.218   7.833  68.350  1.00  0.00    -0.124 C  
BRANCH  14  15
HETATM   15  C   UNL     1      -7.796   7.658  66.902  1.00  0.00    -0.111 C  
BRANCH  15  16
HETATM   16  C   UNL     1      -9.048   7.642  66.009  1.00  0.00    -0.152 C  
BRANCH  16  17
HETATM   17  C   UNL     1      -9.009   8.778  65.026  1.00  0.00    -0.113 A  
HETATM   18  C   UNL     1      -8.308   8.652  63.819  1.00  0.00    -0.116 A  
HETATM   19  C   UNL     1      -9.727   9.951  65.287  1.00  0.00    -0.383 A  
HETATM   20  C   UNL     1      -9.046  10.855  63.151  1.00  0.00    -0.277 A  
HETATM   21  C   UNL     1      -8.324   9.697  62.887  1.00  0.00    -0.165 A  
HETATM   22  C   UNL     1      -9.746  10.981  64.347  1.00  0.00    -0.330 A  
ENDBRANCH  16  17
ENDBRANCH  15  16
ENDBRANCH  14  15
ENDBRANCH  13  14
ENDBRANCH  11  13
BRANCH  11  23
HETATM   23  C   UNL     1     -10.098  11.391  69.071  1.00  0.00    -0.090 C  
BRANCH  23  24
HETATM   24  C   UNL     1     -11.116  12.097  68.155  1.00  0.00    -0.248 C  
HETATM   25  C   UNL     1     -11.896  14.033  66.768  1.00  0.00    -0.424 C  
HETATM   26  O   UNL     1     -12.231  11.591  67.975  1.00  0.00    -0.582 OA 
HETATM   27  N   UNL     1     -10.840  13.258  67.467  1.00  0.00    -0.259 N  
HETATM   28  C   UNL     1     -12.496  13.467  65.451  1.00  0.00    -0.497 C  
HETATM   29  O   UNL     1     -12.945  14.167  64.549  1.00  0.00    -0.579 OA 
HETATM   30  C   UNL     1      -9.544  13.777  67.076  1.00  0.00    -0.251 C  
HETATM   31  C   UNL     1      -9.747  15.282  66.828  1.00  0.00    -0.249 C  
HETATM   32  O   UNL     1     -12.618  12.123  65.413  1.00  0.00    -0.480 OA 
HETATM   33  C   UNL     1     -11.247  15.400  66.479  1.00  0.00    -0.162 C  
BRANCH  31  34
HETATM   34  C   UNL     1      -9.352  16.232  68.001  1.00  0.00    -0.214 C  
HETATM   35  C   UNL     1      -8.080  17.938  66.618  1.00  0.00    -0.281 C  
HETATM   36  C   UNL     1      -9.144  19.005  66.849  1.00  0.00    -0.327 C  
HETATM   37  C   UNL     1     -10.502  18.420  67.231  1.00  0.00    -0.434 C  
HETATM   38  C   UNL     1      -8.020  16.973  67.796  1.00  0.00    -0.192 C  
HETATM   39  C   UNL     1     -10.427  17.311  68.287  1.00  0.00    -0.385 C  
ENDBRANCH  31  34
ENDBRANCH  23  24
ENDBRANCH  11  23
ENDBRANCH  10  11
ENDBRANCH   6  10
ENDBRANCH   5   6
ENDBRANCH   3   5
ENDBRANCH   2   3
TORSDOF 13
ENDMDL
MODEL       11
REMARK 921   NORMALIZED FREE ENERGY PREDICTED BY IDOCK:   -6.46 KCAL/MOL
REMARK 922        TOTAL FREE ENERGY PREDICTED BY IDOCK:  -13.83 KCAL/MOL
REMARK 923 INTER-LIGAND FREE ENERGY PREDICTED BY IDOCK:  -11.20 KCAL/MOL
REMARK 924 INTRA-LIGAND FREE ENERGY PREDICTED BY IDOCK:   -2.63 KCAL/MOL
REMARK 927      BINDING AFFINITY PREDICTED BY RF-SCORE:    0.00 PKD
ROOT
HETATM    1  C   UNL     1      -5.814   9.151  64.612  1.00  0.00    -0.064 C  
HETATM    2  C   UNL     1      -6.687   9.674  65.738  1.00  0.00    -0.089 C  
ENDROOT
BRANCH   2   3
HETATM    3  C   UNL     1      -8.172   9.882  65.452  1.00  0.00    -0.139 C  
HETATM    4  O   UNL     1      -8.920   8.958  65.150  1.00  0.00    -0.197 OA 
BRANCH   3   5
HETATM    5  O   UNL     1      -8.576  11.156  65.681  1.00  0.00    -0.167 OA 
BRANCH   5   6
HETATM    6  C   UNL     1      -9.897  11.369  66.271  1.00  0.00    -0.218 C  
HETATM    7  C   UNL     1     -10.686  12.334  65.314  1.00  0.00    -0.329 C  
HETATM    8  C   UNL     1     -12.093  12.680  65.800  1.00  0.00    -0.484 C  
HETATM    9  C   UNL     1     -10.772  11.815  63.877  1.00  0.00    -0.457 C  
BRANCH   6  10
HETATM   10  O   UNL     1      -9.905  11.862  67.645  1.00  0.00    -0.182 OA 
BRANCH  10  11
HETATM   11  P   UNL     1     -10.148  10.749  68.861  1.00  0.00    -0.192 P  
HETATM   12  O   UNL     1      -8.697  10.225  68.736  1.00  0.00    -0.128 OA 
BRANCH  11  13
HETATM   13  C   UNL     1     -10.829   9.159  67.928  1.00  0.00    -0.083 C  
BRANCH  13  14
HETATM   14  C   UNL     1     -10.022   7.899  68.261  1.00  0.00    -0.204 C  
BRANCH  14  15
HETATM   15  C   UNL     1     -10.851   6.628  68.318  1.00  0.00    -0.322 C  
BRANCH  15  16
HETATM   16  C   UNL     1     -10.711   5.995  69.712  1.00  0.00    -0.399 C  
BRANCH  16  17
HETATM   17  C   UNL     1     -11.319   6.884  70.759  1.00  0.00    -0.355 A  
HETATM   18  C   UNL     1     -10.553   7.340  71.840  1.00  0.00    -0.238 A  
HETATM   19  C   UNL     1     -12.645   7.313  70.626  1.00  0.00    -0.047 A  
HETATM   20  C   UNL     1     -12.430   8.638  72.635  1.00  0.00    -0.283 A  
HETATM   21  C   UNL     1     -11.115   8.212  72.780  1.00  0.00    -0.407 A  
HETATM   22  C   UNL     1     -13.193   8.190  71.561  1.00  0.00    -0.310 A  
ENDBRANCH  16  17
ENDBRANCH  15  16
ENDBRANCH  14  15
ENDBRANCH  13  14
ENDBRANCH  11  13
BRANCH  11  23
HETATM   23  C   UNL     1     -11.864  11.369  69.009  1.00  0.00    -0.348 C  
BRANCH  23  24
HETATM   24  C   UNL     1     -12.107  12.273  70.232  1.00  0.00    -0.295 C  
HETATM   25  C   UNL     1     -12.066  14.485  71.411  1.00  0.00    -0.354 C  
HETATM   26  O   UNL     1     -12.423  11.765  71.316  1.00  0.00    -0.331 OA 
HETATM   27  N   UNL     1     -12.043  13.648  70.184  1.00  0.00    -0.347 N  
HETATM   28  C   UNL     1     -13.400  14.635  72.193  1.00  0.00    -0.375 C  
HETATM   29  O   UNL     1     -13.695  15.624  72.856  1.00  0.00    -0.548 OA 
HETATM   30  C   UNL     1     -12.206  14.510  69.029  1.00  0.00    -0.180 C  
HETATM   31  C   UNL     1     -11.537  15.846  69.399  1.00  0.00    -0.352 C  
HETATM   32  O   UNL     1     -14.178  13.532  72.207  1.00  0.00    -0.539 OA 
HETATM   33  C   UNL     1     -11.598  15.876  70.941  1.00  0.00    -0.456 C  
BRANCH  31  34
HETATM   34  C   UNL     1     -10.082  16.054  68.876  1.00  0.00    -0.229 C  
HETATM   35  C   UNL     1     -10.604  15.881  66.397  1.00  0.00    -0.298 C  
HETATM   36  C   UNL     1     -10.301  17.359  66.172  1.00  0.00    -0.329 C  
HETATM   37  C   UNL     1     -10.405  18.189  67.449  1.00  0.00    -0.402 C  
HETATM   38  C   UNL     1      -9.774  15.332  67.553  1.00  0.00    -0.204 C  
HETATM   39  C   UNL     1      -9.727  17.548  68.666  1.00  0.00    -0.319 C  
ENDBRANCH  31  34
ENDBRANCH  23  24
ENDBRANCH  11  23
ENDBRANCH  10  11
ENDBRANCH   6  10
ENDBRANCH   5   6
ENDBRANCH   3   5
ENDBRANCH   2   3
TORSDOF 13
ENDMDL
MODEL       12
REMARK 921   NORMALIZED FREE ENERGY PREDICTED BY IDOCK:   -6.44 KCAL/MOL
REMARK 922        TOTAL FREE ENERGY PREDICTED BY IDOCK:  -13.80 KCAL/MOL
REMARK 923 INTER-LIGAND FREE ENERGY PREDICTED BY IDOCK:  -11.39 KCAL/MOL
REMARK 924 INTRA-LIGAND FREE ENERGY PREDICTED BY IDOCK:   -2.41 KCAL/MOL
REMARK 927      BINDING AFFINITY PREDICTED BY RF-SCORE:    0.00 PKD
ROOT
HETATM    1  C   UNL     1      -7.354   5.102  66.960  1.00  0.00    -0.082 C  
HETATM    2  C   UNL     1      -7.396   5.218  68.472  1.00  0.00    -0.071 C  
ENDROOT
BRANCH   2   3
HETATM    3  C   UNL     1      -8.522   4.499  69.212  1.00  0.00    -0.078 C  
HETATM    4  O   UNL     1      -9.343   3.795  68.635  1.00  0.00    -0.145 OA 
BRANCH   3   5
HETATM    5  O   UNL     1      -8.434   4.635  70.558  1.00  0.00    -0.087 OA 
BRANCH   5   6
HETATM    6  C   UNL     1      -9.315   5.599  71.216  1.00  0.00    -0.147 C  
HETATM    7  C   UNL     1     -10.367   4.779  72.048  1.00  0.00    -0.247 C  
HETATM    8  C   UNL     1     -11.387   5.644  72.787  1.00  0.00    -0.350 C  
HETATM    9  C   UNL     1      -9.722   3.812  73.043  1.00  0.00    -0.173 C  
BRANCH   6  10
HETATM   10  O   UNL     1      -9.970   6.563  70.336  1.00  0.00    -0.178 OA 
BRANCH  10  11
HETATM   11  P   UNL     1      -9.507   8.158  70.461  1.00  0.00    -0.165 P  
HETATM   12  O   UNL     1      -8.464   7.819  71.553  1.00  0.00    -0.111 OA 
BRANCH  11  13
HETATM   13  C   UNL     1     -10.719   8.905  71.818  1.00  0.00    -0.362 C  
BRANCH  13  14
HETATM   14  C   UNL     1     -12.121   9.175  71.260  1.00  0.00    -0.392 C  
BRANCH  14  15
HETATM   15  C   UNL     1     -12.679  10.541  71.619  1.00  0.00    -0.550 C  
BRANCH  15  16
HETATM   16  C   UNL     1     -12.217  11.567  70.572  1.00  0.00    -0.469 C  
BRANCH  16  17
HETATM   17  C   UNL     1     -12.553  12.963  71.017  1.00  0.00    -0.376 A  
HETATM   18  C   UNL     1     -12.059  14.072  70.318  1.00  0.00    -0.425 A  
HETATM   19  C   UNL     1     -13.415  13.160  72.102  1.00  0.00    -0.653 A  
HETATM   20  C   UNL     1     -13.285  15.553  71.784  1.00  0.00    -0.567 A  
HETATM   21  C   UNL     1     -12.422  15.366  70.710  1.00  0.00    -0.476 A  
HETATM   22  C   UNL     1     -13.780  14.452  72.478  1.00  0.00    -0.589 A  
ENDBRANCH  16  17
ENDBRANCH  15  16
ENDBRANCH  14  15
ENDBRANCH  13  14
ENDBRANCH  11  13
BRANCH  11  23
HETATM   23  C   UNL     1     -10.741   8.559  69.171  1.00  0.00    -0.110 C  
BRANCH  23  24
HETATM   24  C   UNL     1     -10.189   8.521  67.734  1.00  0.00    -0.225 C  
HETATM   25  C   UNL     1      -9.736   9.550  65.493  1.00  0.00    -0.273 C  
HETATM   26  O   UNL     1      -9.789   7.450  67.261  1.00  0.00    -0.150 OA 
HETATM   27  N   UNL     1     -10.063   9.640  66.939  1.00  0.00    -0.212 N  
HETATM   28  C   UNL     1      -8.291   9.163  65.073  1.00  0.00    -0.158 C  
HETATM   29  O   UNL     1      -7.761   9.533  64.030  1.00  0.00    -0.113 OA 
HETATM   30  C   UNL     1      -9.956  11.024  67.357  1.00  0.00    -0.182 C  
HETATM   31  C   UNL     1     -10.364  11.868  66.136  1.00  0.00    -0.261 C  
HETATM   32  O   UNL     1      -7.685   8.266  65.879  1.00  0.00    -0.082 OA 
HETATM   33  C   UNL     1     -10.066  10.947  64.933  1.00  0.00    -0.374 C  
BRANCH  31  34
HETATM   34  C   UNL     1     -11.837  12.382  66.117  1.00  0.00    -0.442 C  
HETATM   35  C   UNL     1     -11.310  14.865  66.082  1.00  0.00    -0.307 C  
HETATM   36  C   UNL     1     -11.827  15.014  64.656  1.00  0.00    -0.378 C  
HETATM   37  C   UNL     1     -11.839  13.695  63.886  1.00  0.00    -0.419 C  
HETATM   38  C   UNL     1     -12.043  13.741  66.806  1.00  0.00    -0.460 C  
HETATM   39  C   UNL     1     -12.408  12.514  64.682  1.00  0.00    -0.547 C  
ENDBRANCH  31  34
ENDBRANCH  23  24
ENDBRANCH  11  23
ENDBRANCH  10  11
ENDBRANCH   6  10
ENDBRANCH   5   6
ENDBRANCH   3   5
ENDBRANCH   2   3
TORSDOF 13
ENDMDL
MODEL       13
REMARK 921   NORMALIZED FREE ENERGY PREDICTED BY IDOCK:   -6.41 KCAL/MOL
REMARK 922        TOTAL FREE ENERGY PREDICTED BY IDOCK:  -13.75 KCAL/MOL
REMARK 923 INTER-LIGAND FREE ENERGY PREDICTED BY IDOCK:  -11.74 KCAL/MOL
REMARK 924 INTRA-LIGAND FREE ENERGY PREDICTED BY IDOCK:   -2.01 KCAL/MOL
REMARK 927      BINDING AFFINITY PREDICTED BY RF-SCORE:    0.00 PKD
ROOT
HETATM    1  C   UNL     1     -12.466  12.102  63.600  1.00  0.00    -0.658 C  
HETATM    2  C   UNL     1     -11.022  11.635  63.639  1.00  0.00    -0.507 C  
ENDROOT
BRANCH   2   3
HETATM    3  C   UNL     1     -10.087  12.292  64.651  1.00  0.00    -0.250 C  
HETATM    4  O   UNL     1     -10.119  13.494  64.893  1.00  0.00    -0.327 OA 
BRANCH   3   5
HETATM    5  O   UNL     1      -9.321  11.393  65.317  1.00  0.00    -0.217 OA 
BRANCH   5   6
HETATM    6  C   UNL     1      -9.284  11.460  66.778  1.00  0.00    -0.177 C  
HETATM    7  C   UNL     1      -7.849  11.006  67.230  1.00  0.00    -0.122 C  
HETATM    8  C   UNL     1      -7.647  10.997  68.744  1.00  0.00    -0.127 C  
HETATM    9  C   UNL     1      -6.729  11.826  66.585  1.00  0.00     0.023 C  
BRANCH   6  10
HETATM   10  O   UNL     1     -10.323  10.706  67.474  1.00  0.00    -0.192 OA 
BRANCH  10  11
HETATM   11  P   UNL     1     -11.488  11.573  68.290  1.00  0.00    -0.303 P  
HETATM   12  O   UNL     1     -12.176  11.986  66.966  1.00  0.00    -0.516 OA 
BRANCH  11  13
HETATM   13  C   UNL     1     -10.709  13.369  68.474  1.00  0.00    -0.262 C  
BRANCH  13  14
HETATM   14  C   UNL     1     -11.723  14.391  69.001  1.00  0.00    -0.345 C  
BRANCH  14  15
HETATM   15  C   UNL     1     -11.239  15.829  68.945  1.00  0.00    -0.332 C  
BRANCH  15  16
HETATM   16  C   UNL     1     -10.656  16.113  67.551  1.00  0.00    -0.314 C  
BRANCH  16  17
HETATM   17  C   UNL     1     -10.431  17.587  67.363  1.00  0.00    -0.342 A  
HETATM   18  C   UNL     1     -10.519  18.165  66.090  1.00  0.00    -0.377 A  
HETATM   19  C   UNL     1     -10.192  18.403  68.475  1.00  0.00    -0.394 A  
HETATM   20  C   UNL     1     -10.131  20.351  67.045  1.00  0.00    -0.507 A  
HETATM   21  C   UNL     1     -10.361  19.547  65.935  1.00  0.00    -0.562 A  
HETATM   22  C   UNL     1     -10.047  19.780  68.312  1.00  0.00    -0.575 A  
ENDBRANCH  16  17
ENDBRANCH  15  16
ENDBRANCH  14  15
ENDBRANCH  13  14
ENDBRANCH  11  13
BRANCH  11  23
HETATM   23  C   UNL     1     -10.674  11.084  69.855  1.00  0.00     0.006 C  
BRANCH  23  24
HETATM   24  C   UNL     1     -11.275   9.830  70.516  1.00  0.00    -0.315 C  
HETATM   25  C   UNL     1     -11.740   7.369  70.613  1.00  0.00    -0.242 C  
HETATM   26  O   UNL     1     -12.022   9.953  71.496  1.00  0.00    -0.379 OA 
HETATM   27  N   UNL     1     -10.988   8.546  70.108  1.00  0.00    -0.237 N  
HETATM   28  C   UNL     1     -11.501   6.894  72.073  1.00  0.00    -0.274 C  
HETATM   29  O   UNL     1     -11.623   5.730  72.441  1.00  0.00    -0.301 OA 
HETATM   30  C   UNL     1      -9.823   8.079  69.383  1.00  0.00    -0.181 C  
HETATM   31  C   UNL     1     -10.232   6.742  68.739  1.00  0.00    -0.184 C  
HETATM   32  O   UNL     1     -11.272   7.883  72.963  1.00  0.00    -0.411 OA 
HETATM   33  C   UNL     1     -11.372   6.228  69.645  1.00  0.00    -0.492 C  
BRANCH  31  34
HETATM   34  C   UNL     1     -10.669   6.805  67.243  1.00  0.00    -0.423 C  
HETATM   35  C   UNL     1      -8.371   7.237  66.255  1.00  0.00    -0.129 C  
HETATM   36  C   UNL     1      -8.327   5.858  65.606  1.00  0.00    -0.143 C  
HETATM   37  C   UNL     1      -9.269   4.857  66.271  1.00  0.00    -0.142 C  
HETATM   38  C   UNL     1      -9.808   7.732  66.369  1.00  0.00    -0.198 C  
HETATM   39  C   UNL     1     -10.668   5.415  66.559  1.00  0.00    -0.309 C  
ENDBRANCH  31  34
ENDBRANCH  23  24
ENDBRANCH  11  23
ENDBRANCH  10  11
ENDBRANCH   6  10
ENDBRANCH   5   6
ENDBRANCH   3   5
ENDBRANCH   2   3
TORSDOF 13
ENDMDL
MODEL       14
REMARK 921   NORMALIZED FREE ENERGY PREDICTED BY IDOCK:   -6.39 KCAL/MOL
REMARK 922        TOTAL FREE ENERGY PREDICTED BY IDOCK:  -13.71 KCAL/MOL
REMARK 923 INTER-LIGAND FREE ENERGY PREDICTED BY IDOCK:  -11.55 KCAL/MOL
REMARK 924 INTRA-LIGAND FREE ENERGY PREDICTED BY IDOCK:   -2.16 KCAL/MOL
REMARK 927      BINDING AFFINITY PREDICTED BY RF-SCORE:    0.00 PKD
ROOT
HETATM    1  C   UNL     1      -6.770   7.863  74.129  1.00  0.00    -0.129 C  
HETATM    2  C   UNL     1      -8.267   8.114  74.129  1.00  0.00    -0.310 C  
ENDROOT
BRANCH   2   3
HETATM    3  C   UNL     1      -9.168   7.056  73.495  1.00  0.00    -0.163 C  
HETATM    4  O   UNL     1     -10.323   6.871  73.863  1.00  0.00    -0.346 OA 
BRANCH   3   5
HETATM    5  O   UNL     1      -8.591   6.447  72.431  1.00  0.00    -0.121 OA 
BRANCH   5   6
HETATM    6  C   UNL     1      -9.345   6.379  71.179  1.00  0.00    -0.160 C  
HETATM    7  C   UNL     1      -9.331   4.880  70.707  1.00  0.00    -0.211 C  
HETATM    8  C   UNL     1     -10.064   4.636  69.388  1.00  0.00    -0.194 C  
HETATM    9  C   UNL     1      -9.875   3.914  71.762  1.00  0.00    -0.249 C  
BRANCH   6  10
HETATM   10  O   UNL     1      -8.891   7.273  70.117  1.00  0.00    -0.143 OA 
BRANCH  10  11
HETATM   11  P   UNL     1      -9.765   8.668  69.860  1.00  0.00    -0.182 P  
HETATM   12  O   UNL     1      -9.131   9.349  71.097  1.00  0.00    -0.250 OA 
BRANCH  11  13
HETATM   13  C   UNL     1     -11.439   8.376  70.848  1.00  0.00    -0.267 C  
BRANCH  13  14
HETATM   14  C   UNL     1     -11.860   9.608  71.657  1.00  0.00    -0.457 C  
BRANCH  14  15
HETATM   15  C   UNL     1     -12.826  10.527  70.929  1.00  0.00    -0.485 C  
BRANCH  15  16
HETATM   16  C   UNL     1     -12.041  11.688  70.298  1.00  0.00    -0.443 C  
BRANCH  16  17
HETATM   17  C   UNL     1     -12.503  13.003  70.858  1.00  0.00    -0.396 A  
HETATM   18  C   UNL     1     -12.104  14.209  70.267  1.00  0.00    -0.412 A  
HETATM   19  C   UNL     1     -13.389  13.028  71.941  1.00  0.00    -0.539 A  
HETATM   20  C   UNL     1     -13.469  15.441  71.835  1.00  0.00    -0.571 A  
HETATM   21  C   UNL     1     -12.584  15.427  70.763  1.00  0.00    -0.497 A  
HETATM   22  C   UNL     1     -13.871  14.245  72.422  1.00  0.00    -0.619 A  
ENDBRANCH  16  17
ENDBRANCH  15  16
ENDBRANCH  14  15
ENDBRANCH  13  14
ENDBRANCH  11  13
BRANCH  11  23
HETATM   23  C   UNL     1     -10.515   7.863  68.397  1.00  0.00    -0.166 C  
BRANCH  23  24
HETATM   24  C   UNL     1      -9.783   8.149  67.073  1.00  0.00    -0.212 C  
HETATM   25  C   UNL     1      -9.206   9.606  65.117  1.00  0.00    -0.246 C  
HETATM   26  O   UNL     1      -9.167   7.238  66.505  1.00  0.00    -0.148 OA 
HETATM   27  N   UNL     1      -9.726   9.397  66.492  1.00  0.00    -0.216 N  
HETATM   28  C   UNL     1      -7.677   9.486  64.865  1.00  0.00    -0.115 C  
HETATM   29  O   UNL     1      -7.080  10.099  63.987  1.00  0.00    -0.133 OA 
HETATM   30  C   UNL     1      -9.884  10.688  67.132  1.00  0.00    -0.175 C  
HETATM   31  C   UNL     1     -10.255  11.675  66.010  1.00  0.00    -0.270 C  
HETATM   32  O   UNL     1      -7.051   8.546  65.604  1.00  0.00    -0.076 OA 
HETATM   33  C   UNL     1      -9.669  11.026  64.738  1.00  0.00    -0.311 C  
BRANCH  31  34
HETATM   34  C   UNL     1     -11.774  11.992  65.848  1.00  0.00    -0.312 C  
HETATM   35  C   UNL     1     -11.608  14.509  66.136  1.00  0.00    -0.366 C  
HETATM   36  C   UNL     1     -11.970  14.758  64.676  1.00  0.00    -0.448 C  
HETATM   37  C   UNL     1     -11.702  13.549  63.781  1.00  0.00    -0.367 C  
HETATM   38  C   UNL     1     -12.253  13.222  66.638  1.00  0.00    -0.359 C  
HETATM   39  C   UNL     1     -12.185  12.218  64.371  1.00  0.00    -0.488 C  
ENDBRANCH  31  34
ENDBRANCH  23  24
ENDBRANCH  11  23
ENDBRANCH  10  11
ENDBRANCH   6  10
ENDBRANCH   5   6
ENDBRANCH   3   5
ENDBRANCH   2   3
TORSDOF 13
ENDMDL
MODEL       15
REMARK 921   NORMALIZED FREE ENERGY PREDICTED BY IDOCK:   -6.36 KCAL/MOL
REMARK 922        TOTAL FREE ENERGY PREDICTED BY IDOCK:  -13.66 KCAL/MOL
REMARK 923 INTER-LIGAND FREE ENERGY PREDICTED BY IDOCK:  -11.19 KCAL/MOL
REMARK 924 INTRA-LIGAND FREE ENERGY PREDICTED BY IDOCK:   -2.47 KCAL/MOL
REMARK 927      BINDING AFFINITY PREDICTED BY RF-SCORE:    0.00 PKD
ROOT
HETATM    1  C   UNL     1     -12.982  11.101  71.466  1.00  0.00    -0.542 C  
HETATM    2  C   UNL     1     -13.754   9.796  71.544  1.00  0.00    -0.264 C  
ENDROOT
BRANCH   2   3
HETATM    3  C   UNL     1     -12.971   8.522  71.851  1.00  0.00    -0.362 C  
HETATM    4  O   UNL     1     -13.359   7.412  71.503  1.00  0.00    -0.370 OA 
BRANCH   3   5
HETATM    5  O   UNL     1     -11.774   8.771  72.435  1.00  0.00    -0.353 OA 
BRANCH   5   6
HETATM    6  C   UNL     1     -10.559   8.389  71.716  1.00  0.00    -0.282 C  
HETATM    7  C   UNL     1      -9.474   8.022  72.793  1.00  0.00    -0.336 C  
HETATM    8  C   UNL     1      -8.124   7.617  72.204  1.00  0.00    -0.122 C  
HETATM    9  C   UNL     1      -9.938   6.934  73.764  1.00  0.00    -0.345 C  
BRANCH   6  10
HETATM   10  O   UNL     1     -10.049   9.373  70.765  1.00  0.00    -0.263 OA 
BRANCH  10  11
HETATM   11  P   UNL     1     -10.352   9.108  69.148  1.00  0.00    -0.205 P  
HETATM   12  O   UNL     1     -10.729   7.630  69.411  1.00  0.00    -0.230 OA 
BRANCH  11  13
HETATM   13  C   UNL     1      -8.612   8.559  68.416  1.00  0.00    -0.139 C  
BRANCH  13  14
HETATM   14  C   UNL     1      -8.747   7.471  67.346  1.00  0.00    -0.124 C  
BRANCH  14  15
HETATM   15  C   UNL     1      -8.147   6.134  67.741  1.00  0.00    -0.113 C  
BRANCH  15  16
HETATM   16  C   UNL     1      -9.204   5.032  67.565  1.00  0.00    -0.129 C  
BRANCH  16  17
HETATM   17  C   UNL     1      -9.276   4.168  68.792  1.00  0.00    -0.206 A  
HETATM   18  C   UNL     1      -9.302   4.744  70.069  1.00  0.00    -0.213 A  
HETATM   19  C   UNL     1      -9.378   2.778  68.662  1.00  0.00    -0.240 A  
HETATM   20  C   UNL     1      -9.532   2.553  71.064  1.00  0.00    -0.222 A  
HETATM   21  C   UNL     1      -9.423   3.932  71.203  1.00  0.00    -0.233 A  
HETATM   22  C   UNL     1      -9.510   1.978  69.796  1.00  0.00    -0.119 A  
ENDBRANCH  16  17
ENDBRANCH  15  16
ENDBRANCH  14  15
ENDBRANCH  13  14
ENDBRANCH  11  13
BRANCH  11  23
HETATM   23  C   UNL     1      -9.906  10.855  68.836  1.00  0.00    -0.192 C  
BRANCH  23  24
HETATM   24  C   UNL     1     -10.973  11.652  68.062  1.00  0.00    -0.224 C  
HETATM   25  C   UNL     1     -11.928  13.775  67.132  1.00  0.00    -0.405 C  
HETATM   26  O   UNL     1     -12.020  11.093  67.712  1.00  0.00    -0.630 OA 
HETATM   27  N   UNL     1     -10.810  12.966  67.682  1.00  0.00    -0.228 N  
HETATM   28  C   UNL     1     -12.429  13.483  65.691  1.00  0.00    -0.479 C  
HETATM   29  O   UNL     1     -12.930  14.329  64.958  1.00  0.00    -0.693 OA 
HETATM   30  C   UNL     1      -9.571  13.693  67.490  1.00  0.00    -0.220 C  
HETATM   31  C   UNL     1      -9.934  15.186  67.593  1.00  0.00    -0.229 C  
HETATM   32  O   UNL     1     -12.399  12.182  65.331  1.00  0.00    -0.533 OA 
HETATM   33  C   UNL     1     -11.428  15.230  67.206  1.00  0.00    -0.227 C  
BRANCH  31  34
HETATM   34  C   UNL     1      -9.676  15.862  68.975  1.00  0.00    -0.243 C  
HETATM   35  C   UNL     1      -7.860  17.464  68.215  1.00  0.00    -0.247 C  
HETATM   36  C   UNL     1      -8.763  18.675  68.417  1.00  0.00    -0.361 C  
HETATM   37  C   UNL     1     -10.248  18.320  68.401  1.00  0.00    -0.402 C  
HETATM   38  C   UNL     1      -8.232  16.348  69.184  1.00  0.00    -0.189 C  
HETATM   39  C   UNL     1     -10.601  17.079  69.230  1.00  0.00    -0.276 C  
ENDBRANCH  31  34
ENDBRANCH  23  24
ENDBRANCH  11  23
ENDBRANCH  10  11
ENDBRANCH   6  10
ENDBRANCH   5   6
ENDBRANCH   3   5
ENDBRANCH   2   3
TORSDOF 13
ENDMDL
MODEL       16
REMARK 921   NORMALIZED FREE ENERGY PREDICTED BY IDOCK:   -6.34 KCAL/MOL
REMARK 922        TOTAL FREE ENERGY PREDICTED BY IDOCK:  -13.63 KCAL/MOL
REMARK 923 INTER-LIGAND FREE ENERGY PREDICTED BY IDOCK:  -11.41 KCAL/MOL
REMARK 924 INTRA-LIGAND FREE ENERGY PREDICTED BY IDOCK:   -2.22 KCAL/MOL
REMARK 927      BINDING AFFINITY PREDICTED BY RF-SCORE:    0.00 PKD
ROOT
HETATM    1  C   UNL     1      -9.509  11.242  62.957  1.00  0.00    -0.385 C  
HETATM    2  C   UNL     1      -8.865   9.901  62.657  1.00  0.00    -0.246 C  
ENDROOT
BRANCH   2   3
HETATM    3  C   UNL     1      -7.849   9.357  63.658  1.00  0.00    -0.131 C  
HETATM    4  O   UNL     1      -6.715   9.815  63.759  1.00  0.00    -0.109 OA 
BRANCH   3   5
HETATM    5  O   UNL     1      -8.374   8.414  64.477  1.00  0.00    -0.166 OA 
BRANCH   5   6
HETATM    6  C   UNL     1      -8.502   8.725  65.900  1.00  0.00    -0.143 C  
HETATM    7  C   UNL     1      -8.348   7.375  66.690  1.00  0.00    -0.124 C  
HETATM    8  C   UNL     1      -8.480   7.521  68.205  1.00  0.00    -0.124 C  
HETATM    9  C   UNL     1      -7.043   6.641  66.374  1.00  0.00    -0.067 C  
BRANCH   6  10
HETATM   10  O   UNL     1      -9.721   9.430  66.288  1.00  0.00    -0.220 OA 
BRANCH  10  11
HETATM   11  P   UNL     1      -9.579  11.031  66.726  1.00  0.00    -0.200 P  
HETATM   12  O   UNL     1      -8.044  10.902  66.876  1.00  0.00    -0.126 OA 
BRANCH  11  13
HETATM   13  C   UNL     1      -9.796  11.016  68.679  1.00  0.00    -0.193 C  
BRANCH  13  14
HETATM   14  C   UNL     1     -11.210  10.605  69.105  1.00  0.00    -0.324 C  
BRANCH  14  15
HETATM   15  C   UNL     1     -11.815  11.486  70.183  1.00  0.00    -0.440 C  
BRANCH  15  16
HETATM   16  C   UNL     1     -11.782  12.950  69.717  1.00  0.00    -0.351 C  
BRANCH  16  17
HETATM   17  C   UNL     1     -12.210  13.868  70.828  1.00  0.00    -0.441 A  
HETATM   18  C   UNL     1     -11.579  15.104  71.014  1.00  0.00    -0.390 A  
HETATM   19  C   UNL     1     -13.289  13.514  71.647  1.00  0.00    -0.420 A  
HETATM   20  C   UNL     1     -13.099  15.618  72.822  1.00  0.00    -0.591 A  
HETATM   21  C   UNL     1     -12.022  15.974  72.018  1.00  0.00    -0.622 A  
HETATM   22  C   UNL     1     -13.731  14.391  72.637  1.00  0.00    -0.546 A  
ENDBRANCH  16  17
ENDBRANCH  15  16
ENDBRANCH  14  15
ENDBRANCH  13  14
ENDBRANCH  11  13
BRANCH  11  23
HETATM   23  C   UNL     1     -11.394  11.183  66.548  1.00  0.00     0.044 C  
BRANCH  23  24
HETATM   24  C   UNL     1     -11.862  12.529  65.964  1.00  0.00    -0.418 C  
HETATM   25  C   UNL     1     -11.665  15.007  65.643  1.00  0.00    -0.123 C  
HETATM   26  O   UNL     1     -12.948  12.595  65.373  1.00  0.00    -0.535 OA 
HETATM   27  N   UNL     1     -11.108  13.681  66.014  1.00  0.00    -0.293 N  
HETATM   28  C   UNL     1     -11.929  15.318  64.144  1.00  0.00    -0.130 C  
HETATM   29  O   UNL     1     -11.882  16.444  63.661  1.00  0.00    -0.871 OA 
HETATM   30  C   UNL     1      -9.671  13.802  66.158  1.00  0.00    -0.264 C  
HETATM   31  C   UNL     1      -9.415  15.228  66.677  1.00  0.00    -0.281 C  
HETATM   32  O   UNL     1     -12.352  14.265  63.411  1.00  0.00    -0.678 OA 
HETATM   33  C   UNL     1     -10.648  16.023  66.197  1.00  0.00    -0.302 C  
BRANCH  31  34
HETATM   34  C   UNL     1      -9.201  15.371  68.216  1.00  0.00    -0.188 C  
HETATM   35  C   UNL     1      -6.669  15.560  68.171  1.00  0.00    -0.135 C  
HETATM   36  C   UNL     1      -6.713  17.021  68.603  1.00  0.00    -0.182 C  
HETATM   37  C   UNL     1      -8.054  17.690  68.308  1.00  0.00    -0.278 C  
HETATM   38  C   UNL     1      -7.868  14.798  68.726  1.00  0.00    -0.146 C  
HETATM   39  C   UNL     1      -9.271  16.842  68.697  1.00  0.00    -0.265 C  
ENDBRANCH  31  34
ENDBRANCH  23  24
ENDBRANCH  11  23
ENDBRANCH  10  11
ENDBRANCH   6  10
ENDBRANCH   5   6
ENDBRANCH   3   5
ENDBRANCH   2   3
TORSDOF 13
ENDMDL
MODEL       17
REMARK 921   NORMALIZED FREE ENERGY PREDICTED BY IDOCK:   -6.33 KCAL/MOL
REMARK 922        TOTAL FREE ENERGY PREDICTED BY IDOCK:  -13.61 KCAL/MOL
REMARK 923 INTER-LIGAND FREE ENERGY PREDICTED BY IDOCK:  -11.09 KCAL/MOL
REMARK 924 INTRA-LIGAND FREE ENERGY PREDICTED BY IDOCK:   -2.52 KCAL/MOL
REMARK 927      BINDING AFFINITY PREDICTED BY RF-SCORE:    0.00 PKD
ROOT
HETATM    1  C   UNL     1     -10.574   5.915  67.100  1.00  0.00    -0.373 C  
HETATM    2  C   UNL     1     -10.727   7.354  67.558  1.00  0.00    -0.310 C  
ENDROOT
BRANCH   2   3
HETATM    3  C   UNL     1      -9.502   8.051  68.143  1.00  0.00    -0.143 C  
HETATM    4  O   UNL     1      -8.828   7.555  69.039  1.00  0.00    -0.133 OA 
BRANCH   3   5
HETATM    5  O   UNL     1      -9.189   9.196  67.488  1.00  0.00    -0.128 OA 
BRANCH   5   6
HETATM    6  C   UNL     1      -9.634   9.348  66.103  1.00  0.00    -0.247 C  
HETATM    7  C   UNL     1      -8.353   9.302  65.193  1.00  0.00    -0.155 C  
HETATM    8  C   UNL     1      -8.643   9.470  63.703  1.00  0.00    -0.222 C  
HETATM    9  C   UNL     1      -7.518   8.036  65.397  1.00  0.00    -0.079 C  
BRANCH   6  10
HETATM   10  O   UNL     1     -10.441  10.532  65.823  1.00  0.00    -0.223 OA 
BRANCH  10  11
HETATM   11  P   UNL     1     -10.652  11.630  67.058  1.00  0.00    -0.261 P  
HETATM   12  O   UNL     1     -11.778  10.775  67.689  1.00  0.00    -0.538 OA 
BRANCH  11  13
HETATM   13  C   UNL     1     -11.978  12.898  66.353  1.00  0.00    -0.395 C  
BRANCH  13  14
HETATM   14  C   UNL     1     -12.017  14.204  67.154  1.00  0.00    -0.460 C  
BRANCH  14  15
HETATM   15  C   UNL     1     -12.157  14.009  68.653  1.00  0.00    -0.332 C  
BRANCH  15  16
HETATM   16  C   UNL     1     -11.974  15.363  69.358  1.00  0.00    -0.351 C  
BRANCH  16  17
HETATM   17  C   UNL     1     -12.343  15.254  70.811  1.00  0.00    -0.433 A  
HETATM   18  C   UNL     1     -13.177  14.222  71.260  1.00  0.00    -0.412 A  
HETATM   19  C   UNL     1     -11.802  16.154  71.737  1.00  0.00    -0.581 A  
HETATM   20  C   UNL     1     -12.922  14.993  73.537  1.00  0.00    -0.564 A  
HETATM   21  C   UNL     1     -13.470  14.100  72.623  1.00  0.00    -0.634 A  
HETATM   22  C   UNL     1     -12.089  16.017  73.095  1.00  0.00    -0.616 A  
ENDBRANCH  16  17
ENDBRANCH  15  16
ENDBRANCH  14  15
ENDBRANCH  13  14
ENDBRANCH  11  13
BRANCH  11  23
HETATM   23  C   UNL     1      -9.322  12.640  66.312  1.00  0.00    -0.160 C  
BRANCH  23  24
HETATM   24  C   UNL     1      -8.089  12.831  67.216  1.00  0.00    -0.172 C  
HETATM   25  C   UNL     1      -6.557  14.225  68.627  1.00  0.00    -0.090 C  
HETATM   26  O   UNL     1      -7.282  11.904  67.353  1.00  0.00    -0.121 OA 
HETATM   27  N   UNL     1      -7.850  13.979  67.939  1.00  0.00    -0.143 N  
HETATM   28  C   UNL     1      -6.225  13.419  69.913  1.00  0.00    -0.102 C  
HETATM   29  O   UNL     1      -5.512  13.840  70.818  1.00  0.00    -0.132 OA 
HETATM   30  C   UNL     1      -8.808  14.975  68.377  1.00  0.00    -0.178 C  
HETATM   31  C   UNL     1      -7.995  16.252  68.655  1.00  0.00    -0.215 C  
HETATM   32  O   UNL     1      -6.671  12.144  69.916  1.00  0.00    -0.006 OA 
HETATM   33  C   UNL     1      -6.576  15.728  68.966  1.00  0.00    -0.134 C  
BRANCH  31  34
HETATM   34  C   UNL     1      -7.978  17.318  67.516  1.00  0.00    -0.194 C  
HETATM   35  C   UNL     1     -10.442  17.924  67.608  1.00  0.00    -0.406 C  
HETATM   36  C   UNL     1     -10.139  19.315  68.154  1.00  0.00    -0.507 C  
HETATM   37  C   UNL     1      -8.771  19.406  68.826  1.00  0.00    -0.377 C  
HETATM   38  C   UNL     1      -9.297  17.429  66.732  1.00  0.00    -0.279 C  
HETATM   39  C   UNL     1      -7.641  18.741  68.030  1.00  0.00    -0.283 C  
ENDBRANCH  31  34
ENDBRANCH  23  24
ENDBRANCH  11  23
ENDBRANCH  10  11
ENDBRANCH   6  10
ENDBRANCH   5   6
ENDBRANCH   3   5
ENDBRANCH   2   3
TORSDOF 13
ENDMDL
MODEL       18
REMARK 921   NORMALIZED FREE ENERGY PREDICTED BY IDOCK:   -6.32 KCAL/MOL
REMARK 922        TOTAL FREE ENERGY PREDICTED BY IDOCK:  -13.60 KCAL/MOL
REMARK 923 INTER-LIGAND FREE ENERGY PREDICTED BY IDOCK:  -10.79 KCAL/MOL
REMARK 924 INTRA-LIGAND FREE ENERGY PREDICTED BY IDOCK:   -2.81 KCAL/MOL
REMARK 927      BINDING AFFINITY PREDICTED BY RF-SCORE:    0.00 PKD
ROOT
HETATM    1  C   UNL     1      -5.668  12.118  69.835  1.00  0.00    -0.124 C  
HETATM    2  C   UNL     1      -6.736  11.660  68.859  1.00  0.00    -0.088 C  
ENDROOT
BRANCH   2   3
HETATM    3  C   UNL     1      -6.668  12.187  67.428  1.00  0.00    -0.143 C  
HETATM    4  O   UNL     1      -6.148  13.262  67.147  1.00  0.00    -0.288 OA 
BRANCH   3   5
HETATM    5  O   UNL     1      -7.132  11.295  66.519  1.00  0.00    -0.139 OA 
BRANCH   5   6
HETATM    6  C   UNL     1      -8.502  10.806  66.665  1.00  0.00    -0.142 C  
HETATM    7  C   UNL     1      -8.478   9.259  66.386  1.00  0.00    -0.128 C  
HETATM    8  C   UNL     1      -9.848   8.589  66.476  1.00  0.00    -0.342 C  
HETATM    9  C   UNL     1      -7.496   8.504  67.284  1.00  0.00    -0.093 C  
BRANCH   6  10
HETATM   10  O   UNL     1      -9.506  11.477  65.842  1.00  0.00    -0.221 OA 
BRANCH  10  11
HETATM   11  P   UNL     1     -10.703  12.326  66.630  1.00  0.00    -0.266 P  
HETATM   12  O   UNL     1     -11.207  12.940  65.301  1.00  0.00    -0.282 OA 
BRANCH  11  13
HETATM   13  C   UNL     1      -9.845  14.026  67.118  1.00  0.00    -0.240 C  
BRANCH  13  14
HETATM   14  C   UNL     1      -9.543  14.116  68.618  1.00  0.00    -0.179 C  
BRANCH  14  15
HETATM   15  C   UNL     1     -10.229  15.273  69.321  1.00  0.00    -0.250 C  
BRANCH  15  16
HETATM   16  C   UNL     1     -11.752  15.082  69.241  1.00  0.00    -0.349 C  
BRANCH  16  17
HETATM   17  C   UNL     1     -12.391  15.365  70.572  1.00  0.00    -0.452 A  
HETATM   18  C   UNL     1     -13.698  14.939  70.840  1.00  0.00    -0.266 A  
HETATM   19  C   UNL     1     -11.655  16.006  71.576  1.00  0.00    -0.529 A  
HETATM   20  C   UNL     1     -13.523  15.790  73.095  1.00  0.00    -0.652 A  
HETATM   21  C   UNL     1     -14.263  15.160  72.101  1.00  0.00    -0.656 A  
HETATM   22  C   UNL     1     -12.222  16.212  72.833  1.00  0.00    -0.640 A  
ENDBRANCH  16  17
ENDBRANCH  15  16
ENDBRANCH  14  15
ENDBRANCH  13  14
ENDBRANCH  11  13
BRANCH  11  23
HETATM   23  C   UNL     1     -10.107  11.600  68.201  1.00  0.00    -0.196 C  
BRANCH  23  24
HETATM   24  C   UNL     1     -11.211  10.951  69.057  1.00  0.00    -0.266 C  
HETATM   25  C   UNL     1     -12.102   9.140  70.542  1.00  0.00     0.028 C  
HETATM   26  O   UNL     1     -12.355  11.425  69.042  1.00  0.00    -0.407 OA 
HETATM   27  N   UNL     1     -10.989   9.882  69.897  1.00  0.00    -0.264 N  
HETATM   28  C   UNL     1     -12.880   9.814  71.706  1.00  0.00    -0.434 C  
HETATM   29  O   UNL     1     -13.418   9.194  72.617  1.00  0.00    -0.463 OA 
HETATM   30  C   UNL     1      -9.738   9.463  70.498  1.00  0.00    -0.271 C  
HETATM   31  C   UNL     1      -9.927   7.985  70.882  1.00  0.00    -0.207 C  
HETATM   32  O   UNL     1     -13.045  11.148  71.581  1.00  0.00    -0.449 OA 
HETATM   33  C   UNL     1     -11.454   7.840  71.057  1.00  0.00    -0.298 C  
BRANCH  31  34
HETATM   34  C   UNL     1      -9.359   6.935  69.878  1.00  0.00    -0.150 C  
HETATM   35  C   UNL     1      -7.787   5.764  71.491  1.00  0.00    -0.112 C  
HETATM   36  C   UNL     1      -8.630   4.494  71.481  1.00  0.00    -0.126 C  
HETATM   37  C   UNL     1     -10.074   4.740  71.050  1.00  0.00    -0.269 C  
HETATM   38  C   UNL     1      -7.911   6.503  70.163  1.00  0.00    -0.112 C  
HETATM   39  C   UNL     1     -10.210   5.641  69.816  1.00  0.00    -0.321 C  
ENDBRANCH  31  34
ENDBRANCH  23  24
ENDBRANCH  11  23
ENDBRANCH  10  11
ENDBRANCH   6  10
ENDBRANCH   5   6
ENDBRANCH   3   5
ENDBRANCH   2   3
TORSDOF 13
ENDMDL
MODEL       19
REMARK 921   NORMALIZED FREE ENERGY PREDICTED BY IDOCK:   -6.31 KCAL/MOL
REMARK 922        TOTAL FREE ENERGY PREDICTED BY IDOCK:  -13.57 KCAL/MOL
REMARK 923 INTER-LIGAND FREE ENERGY PREDICTED BY IDOCK:  -10.80 KCAL/MOL
REMARK 924 INTRA-LIGAND FREE ENERGY PREDICTED BY IDOCK:   -2.77 KCAL/MOL
REMARK 927      BINDING AFFINITY PREDICTED BY RF-SCORE:    0.00 PKD
ROOT
HETATM    1  C   UNL     1     -10.842  15.590  65.177  1.00  0.00    -0.452 C  
HETATM    2  C   UNL     1     -11.387  14.701  66.281  1.00  0.00    -0.347 C  
ENDROOT
BRANCH   2   3
HETATM    3  C   UNL     1     -12.493  13.713  65.920  1.00  0.00    -0.452 C  
HETATM    4  O   UNL     1     -13.583  14.074  65.490  1.00  0.00    -0.596 OA 
BRANCH   3   5
HETATM    5  O   UNL     1     -12.092  12.421  66.017  1.00  0.00    -0.600 OA 
BRANCH   5   6
HETATM    6  C   UNL     1     -10.801  12.050  65.439  1.00  0.00    -0.291 C  
HETATM    7  C   UNL     1     -11.080  11.488  63.997  1.00  0.00    -0.441 C  
HETATM    8  C   UNL     1      -9.825  11.029  63.256  1.00  0.00    -0.406 C  
HETATM    9  C   UNL     1     -11.850  12.468  63.110  1.00  0.00    -0.346 C  
BRANCH   6  10
HETATM   10  O   UNL     1      -9.999  11.118  66.225  1.00  0.00    -0.206 OA 
BRANCH  10  11
HETATM   11  P   UNL     1      -9.207  11.721  67.562  1.00  0.00    -0.186 P  
HETATM   12  O   UNL     1      -8.500  12.805  66.712  1.00  0.00    -0.144 OA 
BRANCH  11  13
HETATM   13  C   UNL     1      -7.546  10.673  67.651  1.00  0.00    -0.092 C  
BRANCH  13  14
HETATM   14  C   UNL     1      -7.150  10.093  66.289  1.00  0.00    -0.110 C  
BRANCH  14  15
HETATM   15  C   UNL     1      -6.975   8.585  66.284  1.00  0.00    -0.077 C  
BRANCH  15  16
HETATM   16  C   UNL     1      -7.438   8.018  67.635  1.00  0.00    -0.097 C  
BRANCH  16  17
HETATM   17  C   UNL     1      -8.490   6.964  67.432  1.00  0.00    -0.121 A  
HETATM   18  C   UNL     1      -8.232   5.627  67.762  1.00  0.00    -0.101 A  
HETATM   19  C   UNL     1      -9.760   7.326  66.967  1.00  0.00    -0.235 A  
HETATM   20  C   UNL     1     -10.498   5.033  67.164  1.00  0.00    -0.181 A  
HETATM   21  C   UNL     1      -9.238   4.663  67.619  1.00  0.00    -0.148 A  
HETATM   22  C   UNL     1     -10.758   6.361  66.839  1.00  0.00    -0.408 A  
ENDBRANCH  16  17
ENDBRANCH  15  16
ENDBRANCH  14  15
ENDBRANCH  13  14
ENDBRANCH  11  13
BRANCH  11  23
HETATM   23  C   UNL     1     -10.043  10.439  68.565  1.00  0.00    -0.171 C  
BRANCH  23  24
HETATM   24  C   UNL     1     -11.258  10.951  69.362  1.00  0.00    -0.272 C  
HETATM   25  C   UNL     1     -13.049  10.702  71.097  1.00  0.00    -0.322 C  
HETATM   26  O   UNL     1     -11.805  12.011  69.030  1.00  0.00    -0.306 OA 
HETATM   27  N   UNL     1     -11.756  10.316  70.478  1.00  0.00    -0.306 N  
HETATM   28  C   UNL     1     -13.133  12.034  71.893  1.00  0.00    -0.370 C  
HETATM   29  O   UNL     1     -13.901  12.222  72.830  1.00  0.00     0.114 OA 
HETATM   30  C   UNL     1     -11.064   9.407  71.371  1.00  0.00    -0.380 C  
HETATM   31  C   UNL     1     -12.162   8.604  72.093  1.00  0.00    -0.453 C  
HETATM   32  O   UNL     1     -12.383  13.041  71.397  1.00  0.00    -0.227 OA 
HETATM   33  C   UNL     1     -13.395   9.531  72.037  1.00  0.00    -0.535 C  
BRANCH  31  34
HETATM   34  C   UNL     1     -12.476   7.192  71.510  1.00  0.00    -0.418 C  
HETATM   35  C   UNL     1     -10.141   6.668  70.661  1.00  0.00    -0.205 C  
HETATM   36  C   UNL     1      -9.942   5.579  71.709  1.00  0.00    -0.228 C  
HETATM   37  C   UNL     1     -10.859   5.741  72.919  1.00  0.00    -0.298 C  
HETATM   38  C   UNL     1     -11.616   6.800  70.296  1.00  0.00    -0.417 C  
HETATM   39  C   UNL     1     -12.315   6.061  72.558  1.00  0.00     0.030 C  
ENDBRANCH  31  34
ENDBRANCH  23  24
ENDBRANCH  11  23
ENDBRANCH  10  11
ENDBRANCH   6  10
ENDBRANCH   5   6
ENDBRANCH   3   5
ENDBRANCH   2   3
TORSDOF 13
ENDMDL
MODEL       20
REMARK 921   NORMALIZED FREE ENERGY PREDICTED BY IDOCK:   -6.29 KCAL/MOL
REMARK 922        TOTAL FREE ENERGY PREDICTED BY IDOCK:  -13.54 KCAL/MOL
REMARK 923 INTER-LIGAND FREE ENERGY PREDICTED BY IDOCK:  -11.25 KCAL/MOL
REMARK 924 INTRA-LIGAND FREE ENERGY PREDICTED BY IDOCK:   -2.29 KCAL/MOL
REMARK 927      BINDING AFFINITY PREDICTED BY RF-SCORE:    0.00 PKD
ROOT
HETATM    1  C   UNL     1     -12.413  15.005  64.646  1.00  0.00    -0.129 C  
HETATM    2  C   UNL     1     -12.320  13.661  65.344  1.00  0.00    -0.510 C  
ENDROOT
BRANCH   2   3
HETATM    3  C   UNL     1     -11.693  12.500  64.577  1.00  0.00    -0.362 C  
HETATM    4  O   UNL     1     -12.332  11.808  63.792  1.00  0.00    -0.420 OA 
BRANCH   3   5
HETATM    5  O   UNL     1     -10.355  12.404  64.774  1.00  0.00    -0.283 OA 
BRANCH   5   6
HETATM    6  C   UNL     1      -9.849  11.289  65.574  1.00  0.00    -0.231 C  
HETATM    7  C   UNL     1      -9.766  10.037  64.628  1.00  0.00    -0.339 C  
HETATM    8  C   UNL     1      -9.272   8.767  65.319  1.00  0.00    -0.099 C  
HETATM    9  C   UNL     1      -8.916  10.284  63.380  1.00  0.00    -0.254 C  
BRANCH   6  10
HETATM   10  O   UNL     1     -10.603  10.986  66.788  1.00  0.00    -0.244 OA 
BRANCH  10  11
HETATM   11  P   UNL     1     -10.061  11.652  68.216  1.00  0.00    -0.208 P  
HETATM   12  O   UNL     1      -8.592  11.620  67.729  1.00  0.00    -0.134 OA 
BRANCH  11  13
HETATM   13  C   UNL     1      -9.735  10.099  69.377  1.00  0.00    -0.229 C  
BRANCH  13  14
HETATM   14  C   UNL     1     -10.853   9.055  69.280  1.00  0.00    -0.131 C  
BRANCH  14  15
HETATM   15  C   UNL     1     -10.366   7.618  69.327  1.00  0.00    -0.218 C  
BRANCH  15  16
HETATM   16  C   UNL     1     -11.282   6.803  70.254  1.00  0.00    -0.385 C  
BRANCH  16  17
HETATM   17  C   UNL     1     -10.583   5.559  70.727  1.00  0.00    -0.320 A  
HETATM   18  C   UNL     1     -10.612   5.197  72.079  1.00  0.00    -0.266 A  
HETATM   19  C   UNL     1      -9.948   4.722  69.802  1.00  0.00    -0.308 A  
HETATM   20  C   UNL     1      -9.381   3.178  71.574  1.00  0.00    -0.202 A  
HETATM   21  C   UNL     1     -10.003   4.008  72.500  1.00  0.00    -0.222 A  
HETATM   22  C   UNL     1      -9.354   3.534  70.228  1.00  0.00    -0.242 A  
ENDBRANCH  16  17
ENDBRANCH  15  16
ENDBRANCH  14  15
ENDBRANCH  13  14
ENDBRANCH  11  13
BRANCH  11  23
HETATM   23  C   UNL     1     -11.797  11.689  68.792  1.00  0.00    -0.325 C  
BRANCH  23  24
HETATM   24  C   UNL     1     -12.036  12.579  70.027  1.00  0.00    -0.299 C  
HETATM   25  C   UNL     1     -11.964  14.772  71.238  1.00  0.00    -0.349 C  
HETATM   26  O   UNL     1     -12.372  12.061  71.099  1.00  0.00    -0.309 OA 
HETATM   27  N   UNL     1     -11.946  13.954  69.999  1.00  0.00    -0.317 N  
HETATM   28  C   UNL     1     -13.303  14.936  72.010  1.00  0.00    -0.367 C  
HETATM   29  O   UNL     1     -13.586  15.920  72.685  1.00  0.00    -0.520 OA 
HETATM   30  C   UNL     1     -12.081  14.835  68.856  1.00  0.00    -0.205 C  
HETATM   31  C   UNL     1     -11.390  16.152  69.252  1.00  0.00    -0.328 C  
HETATM   32  O   UNL     1     -14.102  13.847  72.001  1.00  0.00    -0.468 OA 
HETATM   33  C   UNL     1     -11.466  16.161  70.794  1.00  0.00    -0.408 C  
BRANCH  31  34
HETATM   34  C   UNL     1      -9.927  16.340  68.747  1.00  0.00    -0.237 C  
HETATM   35  C   UNL     1     -10.496  17.135  66.404  1.00  0.00    -0.255 C  
HETATM   36  C   UNL     1      -9.986  18.542  66.694  1.00  0.00    -0.394 C  
HETATM   37  C   UNL     1      -9.953  18.867  68.186  1.00  0.00    -0.431 C  
HETATM   38  C   UNL     1      -9.742  16.106  67.238  1.00  0.00    -0.233 C  
HETATM   39  C   UNL     1      -9.362  17.750  69.054  1.00  0.00    -0.071 C  
ENDBRANCH  31  34
ENDBRANCH  23  24
ENDBRANCH  11  23
ENDBRANCH  10  11
ENDBRANCH   6  10
ENDBRANCH   5   6
ENDBRANCH   3   5
ENDBRANCH   2   3
TORSDOF 13
ENDMDL
MODEL       21
REMARK 921   NORMALIZED FREE ENERGY PREDICTED BY IDOCK:   -6.27 KCAL/MOL
REMARK 922        TOTAL FREE ENERGY PREDICTED BY IDOCK:  -13.50 KCAL/MOL
REMARK 923 INTER-LIGAND FREE ENERGY PREDICTED BY IDOCK:  -10.31 KCAL/MOL
REMARK 924 INTRA-LIGAND FREE ENERGY PREDICTED BY IDOCK:   -3.20 KCAL/MOL
REMARK 927      BINDING AFFINITY PREDICTED BY RF-SCORE:    0.00 PKD
ROOT
HETATM    1  C   UNL     1     -12.822  11.291  71.464  1.00  0.00    -0.519 C  
HETATM    2  C   UNL     1     -13.263   9.855  71.679  1.00  0.00    -0.519 C  
ENDROOT
BRANCH   2   3
HETATM    3  C   UNL     1     -12.179   8.795  71.858  1.00  0.00    -0.361 C  
HETATM    4  O   UNL     1     -12.420   7.593  71.811  1.00  0.00    -0.309 OA 
BRANCH   3   5
HETATM    5  O   UNL     1     -10.937   9.328  71.954  1.00  0.00    -0.363 OA 
BRANCH   5   6
HETATM    6  C   UNL     1      -9.872   8.757  71.129  1.00  0.00    -0.244 C  
HETATM    7  C   UNL     1      -8.669   8.423  72.086  1.00  0.00    -0.272 C  
HETATM    8  C   UNL     1      -7.453   7.834  71.373  1.00  0.00    -0.076 C  
HETATM    9  C   UNL     1      -9.061   7.502  73.243  1.00  0.00    -0.242 C  
BRANCH   6  10
HETATM   10  O   UNL     1      -9.439   9.573  69.998  1.00  0.00    -0.200 OA 
BRANCH  10  11
HETATM   11  P   UNL     1     -10.470   9.690  68.695  1.00  0.00    -0.201 P  
HETATM   12  O   UNL     1     -10.732   8.164  68.704  1.00  0.00    -0.148 OA 
BRANCH  11  13
HETATM   13  C   UNL     1      -9.292   9.503  67.132  1.00  0.00    -0.143 C  
BRANCH  13  14
HETATM   14  C   UNL     1      -8.041   8.673  67.442  1.00  0.00    -0.102 C  
BRANCH  14  15
HETATM   15  C   UNL     1      -6.741   9.450  67.344  1.00  0.00    -0.068 C  
BRANCH  15  16
HETATM   16  C   UNL     1      -7.053  10.917  67.006  1.00  0.00    -0.109 C  
BRANCH  16  17
HETATM   17  C   UNL     1      -6.458  11.834  68.038  1.00  0.00    -0.056 A  
HETATM   18  C   UNL     1      -5.923  13.074  67.665  1.00  0.00    -0.145 A  
HETATM   19  C   UNL     1      -6.492  11.477  69.391  1.00  0.00    -0.111 A  
HETATM   20  C   UNL     1      -5.465  13.583  69.984  1.00  0.00    -0.105 A  
HETATM   21  C   UNL     1      -5.421  13.943  68.641  1.00  0.00    -0.087 A  
HETATM   22  C   UNL     1      -6.000  12.353  70.357  1.00  0.00    -0.095 A  
ENDBRANCH  16  17
ENDBRANCH  15  16
ENDBRANCH  14  15
ENDBRANCH  13  14
ENDBRANCH  11  13
BRANCH  11  23
HETATM   23  C   UNL     1     -10.160  11.494  68.684  1.00  0.00    -0.207 C  
BRANCH  23  24
HETATM   24  C   UNL     1     -11.108  12.293  67.770  1.00  0.00    -0.255 C  
HETATM   25  C   UNL     1     -11.686  14.276  66.351  1.00  0.00    -0.391 C  
HETATM   26  O   UNL     1     -12.277  11.916  67.621  1.00  0.00    -0.510 OA 
HETATM   27  N   UNL     1     -10.713  13.399  67.049  1.00  0.00    -0.267 N  
HETATM   28  C   UNL     1     -12.374  13.756  65.058  1.00  0.00    -0.428 C  
HETATM   29  O   UNL     1     -12.758  14.484  64.148  1.00  0.00    -0.711 OA 
HETATM   30  C   UNL     1      -9.374  13.756  66.624  1.00  0.00    -0.264 C  
HETATM   31  C   UNL     1      -9.407  15.269  66.344  1.00  0.00    -0.328 C  
HETATM   32  O   UNL     1     -12.651  12.435  65.054  1.00  0.00    -0.601 OA 
HETATM   33  C   UNL     1     -10.889  15.553  66.018  1.00  0.00    -0.301 C  
BRANCH  31  34
HETATM   34  C   UNL     1      -8.882  16.191  67.487  1.00  0.00    -0.198 C  
HETATM   35  C   UNL     1      -7.175  17.469  66.109  1.00  0.00    -0.343 C  
HETATM   36  C   UNL     1      -7.983  18.759  66.197  1.00  0.00    -0.241 C  
HETATM   37  C   UNL     1      -9.459  18.517  66.506  1.00  0.00    -0.322 C  
HETATM   38  C   UNL     1      -7.407  16.603  67.342  1.00  0.00    -0.189 C  
HETATM   39  C   UNL     1      -9.702  17.499  67.628  1.00  0.00    -0.275 C  
ENDBRANCH  31  34
ENDBRANCH  23  24
ENDBRANCH  11  23
ENDBRANCH  10  11
ENDBRANCH   6  10
ENDBRANCH   5   6
ENDBRANCH   3   5
ENDBRANCH   2   3
TORSDOF 13
ENDMDL
MODEL       22
REMARK 921   NORMALIZED FREE ENERGY PREDICTED BY IDOCK:   -6.27 KCAL/MOL
REMARK 922        TOTAL FREE ENERGY PREDICTED BY IDOCK:  -13.50 KCAL/MOL
REMARK 923 INTER-LIGAND FREE ENERGY PREDICTED BY IDOCK:  -11.61 KCAL/MOL
REMARK 924 INTRA-LIGAND FREE ENERGY PREDICTED BY IDOCK:   -1.90 KCAL/MOL
REMARK 927      BINDING AFFINITY PREDICTED BY RF-SCORE:    0.00 PKD
ROOT
HETATM    1  C   UNL     1     -12.694  11.862  63.464  1.00  0.00    -0.530 C  
HETATM    2  C   UNL     1     -11.354  12.574  63.494  1.00  0.00    -0.556 C  
ENDROOT
BRANCH   2   3
HETATM    3  C   UNL     1     -10.102  11.730  63.716  1.00  0.00    -0.391 C  
HETATM    4  O   UNL     1      -9.665  10.965  62.862  1.00  0.00    -0.312 OA 
BRANCH   3   5
HETATM    5  O   UNL     1      -9.484  12.009  64.889  1.00  0.00    -0.086 OA 
BRANCH   5   6
HETATM    6  C   UNL     1      -9.951  11.331  66.098  1.00  0.00    -0.228 C  
HETATM    7  C   UNL     1      -9.728   9.789  65.883  1.00  0.00    -0.332 C  
HETATM    8  C   UNL     1     -10.189   8.925  67.056  1.00  0.00    -0.345 C  
HETATM    9  C   UNL     1      -8.278   9.435  65.546  1.00  0.00    -0.127 C  
BRANCH   6  10
HETATM   10  O   UNL     1     -11.328  11.617  66.493  1.00  0.00    -0.328 OA 
BRANCH  10  11
HETATM   11  P   UNL     1     -11.566  12.774  67.668  1.00  0.00    -0.360 P  
HETATM   12  O   UNL     1     -12.200  13.748  66.646  1.00  0.00    -0.426 OA 
BRANCH  11  13
HETATM   13  C   UNL     1      -9.899  13.815  67.663  1.00  0.00    -0.234 C  
BRANCH  13  14
HETATM   14  C   UNL     1     -10.134  15.292  67.995  1.00  0.00    -0.229 C  
BRANCH  14  15
HETATM   15  C   UNL     1      -9.919  15.642  69.456  1.00  0.00    -0.285 C  
BRANCH  15  16
HETATM   16  C   UNL     1     -11.084  16.519  69.943  1.00  0.00    -0.241 C  
BRANCH  16  17
HETATM   17  C   UNL     1     -11.914  15.780  70.955  1.00  0.00    -0.462 A  
HETATM   18  C   UNL     1     -11.607  15.856  72.320  1.00  0.00    -0.501 A  
HETATM   19  C   UNL     1     -13.039  15.059  70.541  1.00  0.00    -0.305 A  
HETATM   20  C   UNL     1     -13.539  14.500  72.839  1.00  0.00    -0.439 A  
HETATM   21  C   UNL     1     -12.419  15.208  73.258  1.00  0.00    -0.598 A  
HETATM   22  C   UNL     1     -13.849  14.426  71.484  1.00  0.00    -0.455 A  
ENDBRANCH  16  17
ENDBRANCH  15  16
ENDBRANCH  14  15
ENDBRANCH  13  14
ENDBRANCH  11  13
BRANCH  11  23
HETATM   23  C   UNL     1     -10.817  11.621  68.875  1.00  0.00    -0.220 C  
BRANCH  23  24
HETATM   24  C   UNL     1     -11.838  10.832  69.716  1.00  0.00    -0.335 C  
HETATM   25  C   UNL     1     -12.520   8.889  71.145  1.00  0.00    -0.214 C  
HETATM   26  O   UNL     1     -13.025  11.183  69.725  1.00  0.00    -0.016 OA 
HETATM   27  N   UNL     1     -11.497   9.765  70.518  1.00  0.00    -0.281 N  
HETATM   28  C   UNL     1     -13.353   9.439  72.335  1.00  0.00    -0.424 C  
HETATM   29  O   UNL     1     -13.815   8.737  73.228  1.00  0.00    -0.171 OA 
HETATM   30  C   UNL     1     -10.204   9.460  71.097  1.00  0.00    -0.291 C  
HETATM   31  C   UNL     1     -10.233   7.958  71.432  1.00  0.00    -0.226 C  
HETATM   32  O   UNL     1     -13.658  10.752  72.257  1.00  0.00    -0.244 OA 
HETATM   33  C   UNL     1     -11.735   7.648  71.611  1.00  0.00    -0.313 C  
BRANCH  31  34
HETATM   34  C   UNL     1      -9.568   7.007  70.389  1.00  0.00    -0.169 C  
HETATM   35  C   UNL     1      -7.957   5.860  71.981  1.00  0.00    -0.107 C  
HETATM   36  C   UNL     1      -8.708   4.537  71.879  1.00  0.00    -0.129 C  
HETATM   37  C   UNL     1     -10.155   4.707  71.421  1.00  0.00    -0.248 C  
HETATM   38  C   UNL     1      -8.101   6.661  70.692  1.00  0.00    -0.112 C  
HETATM   39  C   UNL     1     -10.325   5.664  70.234  1.00  0.00    -0.336 C  
ENDBRANCH  31  34
ENDBRANCH  23  24
ENDBRANCH  11  23
ENDBRANCH  10  11
ENDBRANCH   6  10
ENDBRANCH   5   6
ENDBRANCH   3   5
ENDBRANCH   2   3
TORSDOF 13
ENDMDL
MODEL       23
REMARK 921   NORMALIZED FREE ENERGY PREDICTED BY IDOCK:   -6.26 KCAL/MOL
REMARK 922        TOTAL FREE ENERGY PREDICTED BY IDOCK:  -13.47 KCAL/MOL
REMARK 923 INTER-LIGAND FREE ENERGY PREDICTED BY IDOCK:  -10.26 KCAL/MOL
REMARK 924 INTRA-LIGAND FREE ENERGY PREDICTED BY IDOCK:   -3.21 KCAL/MOL
REMARK 927      BINDING AFFINITY PREDICTED BY RF-SCORE:    0.00 PKD
ROOT
HETATM    1  C   UNL     1     -11.869  14.849  64.553  1.00  0.00    -0.404 C  
HETATM    2  C   UNL     1     -12.740  13.877  65.328  1.00  0.00    -0.485 C  
ENDROOT
BRANCH   2   3
HETATM    3  C   UNL     1     -12.100  13.108  66.480  1.00  0.00    -0.358 C  
HETATM    4  O   UNL     1     -12.031  13.563  67.617  1.00  0.00    -0.354 OA 
BRANCH   3   5
HETATM    5  O   UNL     1     -11.734  11.850  66.131  1.00  0.00    -0.484 OA 
BRANCH   5   6
HETATM    6  C   UNL     1     -10.319  11.586  65.874  1.00  0.00    -0.247 C  
HETATM    7  C   UNL     1     -10.229  10.810  64.510  1.00  0.00    -0.428 C  
HETATM    8  C   UNL     1      -8.806  10.433  64.101  1.00  0.00    -0.228 C  
HETATM    9  C   UNL     1     -10.898  11.554  63.352  1.00  0.00    -0.423 C  
BRANCH   6  10
HETATM   10  O   UNL     1      -9.603  10.879  66.933  1.00  0.00    -0.174 OA 
BRANCH  10  11
HETATM   11  P   UNL     1      -8.869  11.800  68.112  1.00  0.00    -0.166 P  
HETATM   12  O   UNL     1      -8.773  13.021  67.165  1.00  0.00    -0.196 OA 
BRANCH  11  13
HETATM   13  C   UNL     1      -6.951  11.438  67.879  1.00  0.00    -0.073 C  
BRANCH  13  14
HETATM   14  C   UNL     1      -6.690  10.289  66.899  1.00  0.00    -0.081 C  
BRANCH  14  15
HETATM   15  C   UNL     1      -6.494   8.938  67.565  1.00  0.00    -0.061 C  
BRANCH  15  16
HETATM   16  C   UNL     1      -7.116   7.844  66.681  1.00  0.00    -0.076 C  
BRANCH  16  17
HETATM   17  C   UNL     1      -8.447   7.416  67.231  1.00  0.00    -0.118 A  
HETATM   18  C   UNL     1      -9.638   7.872  66.651  1.00  0.00    -0.293 A  
HETATM   19  C   UNL     1      -8.503   6.505  68.293  1.00  0.00    -0.116 A  
HETATM   20  C   UNL     1     -10.918   6.513  68.188  1.00  0.00    -0.365 A  
HETATM   21  C   UNL     1     -10.872   7.423  67.137  1.00  0.00    -0.340 A  
HETATM   22  C   UNL     1      -9.736   6.055  68.764  1.00  0.00    -0.156 A  
ENDBRANCH  16  17
ENDBRANCH  15  16
ENDBRANCH  14  15
ENDBRANCH  13  14
ENDBRANCH  11  13
BRANCH  11  23
HETATM   23  C   UNL     1      -8.982  10.356  69.231  1.00  0.00    -0.163 C  
BRANCH  23  24
HETATM   24  C   UNL     1     -10.407  10.055  69.732  1.00  0.00    -0.255 C  
HETATM   25  C   UNL     1     -12.049   8.812  71.162  1.00  0.00    -0.267 C  
HETATM   26  O   UNL     1     -11.378  10.574  69.166  1.00  0.00    -0.242 OA 
HETATM   27  N   UNL     1     -10.674   9.264  70.829  1.00  0.00    -0.258 N  
HETATM   28  C   UNL     1     -13.060   9.843  71.735  1.00  0.00    -0.452 C  
HETATM   29  O   UNL     1     -13.978   9.550  72.494  1.00  0.00    -0.370 OA 
HETATM   30  C   UNL     1      -9.800   8.962  71.945  1.00  0.00    -0.294 C  
HETATM   31  C   UNL     1     -10.354   7.674  72.580  1.00  0.00    -0.332 C  
HETATM   32  O   UNL     1     -12.947  11.091  71.232  1.00  0.00    -0.386 OA 
HETATM   33  C   UNL     1     -11.847   7.681  72.188  1.00  0.00    -0.352 C  
BRANCH  31  34
HETATM   34  C   UNL     1      -9.654   6.344  72.161  1.00  0.00    -0.155 C  
HETATM   35  C   UNL     1      -8.889   5.640  74.477  1.00  0.00    -0.118 C  
HETATM   36  C   UNL     1      -9.863   4.468  74.506  1.00  0.00    -0.207 C  
HETATM   37  C   UNL     1     -11.033   4.642  73.541  1.00  0.00    -0.395 C  
HETATM   38  C   UNL     1      -8.461   5.949  73.047  1.00  0.00    -0.117 C  
HETATM   39  C   UNL     1     -10.623   5.135  72.147  1.00  0.00    -0.273 C  
ENDBRANCH  31  34
ENDBRANCH  23  24
ENDBRANCH  11  23
ENDBRANCH  10  11
ENDBRANCH   6  10
ENDBRANCH   5   6
ENDBRANCH   3   5
ENDBRANCH   2   3
TORSDOF 13
ENDMDL
MODEL       24
REMARK 921   NORMALIZED FREE ENERGY PREDICTED BY IDOCK:   -6.25 KCAL/MOL
REMARK 922        TOTAL FREE ENERGY PREDICTED BY IDOCK:  -13.46 KCAL/MOL
REMARK 923 INTER-LIGAND FREE ENERGY PREDICTED BY IDOCK:  -11.09 KCAL/MOL
REMARK 924 INTRA-LIGAND FREE ENERGY PREDICTED BY IDOCK:   -2.37 KCAL/MOL
REMARK 927      BINDING AFFINITY PREDICTED BY RF-SCORE:    0.00 PKD
ROOT
HETATM    1  C   UNL     1      -5.836  11.121  69.720  1.00  0.00    -0.079 C  
HETATM    2  C   UNL     1      -6.888  11.643  68.759  1.00  0.00    -0.090 C  
ENDROOT
BRANCH   2   3
HETATM    3  C   UNL     1      -6.489  11.833  67.298  1.00  0.00    -0.131 C  
HETATM    4  O   UNL     1      -5.795  12.773  66.923  1.00  0.00    -0.256 OA 
BRANCH   3   5
HETATM    5  O   UNL     1      -6.883  10.804  66.509  1.00  0.00    -0.113 OA 
BRANCH   5   6
HETATM    6  C   UNL     1      -8.304  10.458  66.480  1.00  0.00    -0.130 C  
HETATM    7  C   UNL     1      -8.406   8.895  66.614  1.00  0.00    -0.111 C  
HETATM    8  C   UNL     1      -9.837   8.360  66.578  1.00  0.00    -0.338 C  
HETATM    9  C   UNL     1      -7.705   8.353  67.862  1.00  0.00    -0.103 C  
BRANCH   6  10
HETATM   10  O   UNL     1      -9.050  10.940  65.321  1.00  0.00    -0.192 OA 
BRANCH  10  11
HETATM   11  P   UNL     1     -10.560  11.588  65.593  1.00  0.00    -0.250 P  
HETATM   12  O   UNL     1     -11.022  11.235  64.158  1.00  0.00    -0.372 OA 
BRANCH  11  13
HETATM   13  C   UNL     1     -10.370  13.479  65.092  1.00  0.00    -0.353 C  
BRANCH  13  14
HETATM   14  C   UNL     1      -9.419  14.235  66.026  1.00  0.00    -0.213 C  
BRANCH  14  15
HETATM   15  C   UNL     1      -9.510  15.747  65.913  1.00  0.00    -0.377 C  
BRANCH  15  16
HETATM   16  C   UNL     1     -10.563  16.266  66.905  1.00  0.00    -0.270 C  
BRANCH  16  17
HETATM   17  C   UNL     1     -10.372  17.735  67.158  1.00  0.00    -0.354 A  
HETATM   18  C   UNL     1     -10.127  18.209  68.453  1.00  0.00    -0.401 A  
HETATM   19  C   UNL     1     -10.376  18.633  66.084  1.00  0.00    -0.481 A  
HETATM   20  C   UNL     1      -9.896  20.458  67.595  1.00  0.00    -0.538 A  
HETATM   21  C   UNL     1      -9.897  19.573  68.668  1.00  0.00    -0.530 A  
HETATM   22  C   UNL     1     -10.134  19.988  66.307  1.00  0.00    -0.603 A  
ENDBRANCH  16  17
ENDBRANCH  15  16
ENDBRANCH  14  15
ENDBRANCH  13  14
ENDBRANCH  11  13
BRANCH  11  23
HETATM   23  C   UNL     1     -10.014  12.005  67.289  1.00  0.00    -0.194 C  
BRANCH  23  24
HETATM   24  C   UNL     1     -11.155  12.084  68.320  1.00  0.00    -0.243 C  
HETATM   25  C   UNL     1     -12.485  11.184  70.244  1.00  0.00    -0.274 C  
HETATM   26  O   UNL     1     -12.001  12.983  68.228  1.00  0.00    -0.332 OA 
HETATM   27  N   UNL     1     -11.269  11.228  69.393  1.00  0.00    -0.262 N  
HETATM   28  C   UNL     1     -12.757  12.355  71.228  1.00  0.00    -0.248 C  
HETATM   29  O   UNL     1     -13.367  12.232  72.285  1.00  0.00    -0.515 OA 
HETATM   30  C   UNL     1     -10.222  10.457  70.035  1.00  0.00    -0.081 C  
HETATM   31  C   UNL     1     -10.935   9.317  70.786  1.00  0.00    -0.349 C  
HETATM   32  O   UNL     1     -12.386  13.573  70.778  1.00  0.00    -0.347 OA 
HETATM   33  C   UNL     1     -12.351   9.875  71.046  1.00  0.00    -0.451 C  
BRANCH  31  34
HETATM   34  C   UNL     1     -10.982   7.939  70.058  1.00  0.00    -0.208 C  
HETATM   35  C   UNL     1      -9.339   6.723  71.563  1.00  0.00    -0.153 C  
HETATM   36  C   UNL     1     -10.434   5.831  72.136  1.00  0.00    -0.258 C  
HETATM   37  C   UNL     1     -11.831   6.429  71.982  1.00  0.00    -0.382 C  
HETATM   38  C   UNL     1      -9.673   7.135  70.134  1.00  0.00    -0.171 C  
HETATM   39  C   UNL     1     -12.107   7.016  70.592  1.00  0.00    -0.332 C  
ENDBRANCH  31  34
ENDBRANCH  23  24
ENDBRANCH  11  23
ENDBRANCH  10  11
ENDBRANCH   6  10
ENDBRANCH   5   6
ENDBRANCH   3   5
ENDBRANCH   2   3
TORSDOF 13
ENDMDL
MODEL       25
REMARK 921   NORMALIZED FREE ENERGY PREDICTED BY IDOCK:   -6.22 KCAL/MOL
REMARK 922        TOTAL FREE ENERGY PREDICTED BY IDOCK:  -13.42 KCAL/MOL
REMARK 923 INTER-LIGAND FREE ENERGY PREDICTED BY IDOCK:  -10.83 KCAL/MOL
REMARK 924 INTRA-LIGAND FREE ENERGY PREDICTED BY IDOCK:   -2.59 KCAL/MOL
REMARK 927      BINDING AFFINITY PREDICTED BY RF-SCORE:    0.00 PKD
ROOT
HETATM    1  C   UNL     1     -12.894  11.668  71.484  1.00  0.00    -0.469 C  
HETATM    2  C   UNL     1     -13.302  10.252  71.120  1.00  0.00    -0.339 C  
ENDROOT
BRANCH   2   3
HETATM    3  C   UNL     1     -12.297   9.132  71.377  1.00  0.00    -0.333 C  
HETATM    4  O   UNL     1     -12.611   7.946  71.347  1.00  0.00    -0.316 OA 
BRANCH   3   5
HETATM    5  O   UNL     1     -11.029   9.589  71.521  1.00  0.00    -0.364 OA 
BRANCH   5   6
HETATM    6  C   UNL     1     -10.113   9.458  70.388  1.00  0.00    -0.255 C  
HETATM    7  C   UNL     1      -8.787   8.812  70.933  1.00  0.00    -0.243 C  
HETATM    8  C   UNL     1      -7.705   8.624  69.871  1.00  0.00    -0.084 C  
HETATM    9  C   UNL     1      -9.019   7.478  71.646  1.00  0.00    -0.137 C  
BRANCH   6  10
HETATM   10  O   UNL     1      -9.838  10.687  69.649  1.00  0.00    -0.158 OA 
BRANCH  10  11
HETATM   11  P   UNL     1     -10.730  10.971  68.271  1.00  0.00    -0.238 P  
HETATM   12  O   UNL     1     -11.257   9.516  68.254  1.00  0.00    -0.066 OA 
BRANCH  11  13
HETATM   13  C   UNL     1      -9.488  10.563  66.802  1.00  0.00    -0.163 C  
BRANCH  13  14
HETATM   14  C   UNL     1      -9.780   9.206  66.153  1.00  0.00    -0.357 C  
BRANCH  14  15
HETATM   15  C   UNL     1      -8.727   8.148  66.428  1.00  0.00    -0.168 C  
BRANCH  15  16
HETATM   16  C   UNL     1      -9.307   6.761  66.104  1.00  0.00    -0.095 C  
BRANCH  16  17
HETATM   17  C   UNL     1      -9.552   5.983  67.366  1.00  0.00    -0.118 A  
HETATM   18  C   UNL     1      -8.698   4.936  67.735  1.00  0.00    -0.105 A  
HETATM   19  C   UNL     1     -10.607   6.343  68.213  1.00  0.00    -0.312 A  
HETATM   20  C   UNL     1      -9.950   4.623  69.779  1.00  0.00    -0.295 A  
HETATM   21  C   UNL     1      -8.905   4.254  68.940  1.00  0.00    -0.139 A  
HETATM   22  C   UNL     1     -10.798   5.666  69.417  1.00  0.00    -0.334 A  
ENDBRANCH  16  17
ENDBRANCH  15  16
ENDBRANCH  14  15
ENDBRANCH  13  14
ENDBRANCH  11  13
BRANCH  11  23
HETATM   23  C   UNL     1     -10.107  12.692  68.290  1.00  0.00    -0.233 C  
BRANCH  23  24
HETATM   24  C   UNL     1     -10.816  13.633  67.299  1.00  0.00    -0.284 C  
HETATM   25  C   UNL     1     -11.060  15.810  66.080  1.00  0.00    -0.085 C  
HETATM   26  O   UNL     1     -11.911  13.308  66.823  1.00  0.00    -0.362 OA 
HETATM   27  N   UNL     1     -10.272  14.820  66.859  1.00  0.00    -0.255 N  
HETATM   28  C   UNL     1     -11.411  15.493  64.600  1.00  0.00    -0.357 C  
HETATM   29  O   UNL     1     -11.572  16.350  63.737  1.00  0.00    -1.055 OA 
HETATM   30  C   UNL     1      -8.875  15.203  66.822  1.00  0.00    -0.271 C  
HETATM   31  C   UNL     1      -8.857  16.741  66.760  1.00  0.00    -0.257 C  
HETATM   32  O   UNL     1     -11.663  14.191  64.341  1.00  0.00    -0.399 OA 
HETATM   33  C   UNL     1     -10.221  17.101  66.133  1.00  0.00    -0.343 C  
BRANCH  31  34
HETATM   34  C   UNL     1      -8.633  17.481  68.115  1.00  0.00    -0.258 C  
HETATM   35  C   UNL     1      -6.616  18.848  67.404  1.00  0.00    -0.199 C  
HETATM   36  C   UNL     1      -7.406  20.151  67.462  1.00  0.00    -0.325 C  
HETATM   37  C   UNL     1      -8.914  19.938  67.352  1.00  0.00    -0.422 C  
HETATM   38  C   UNL     1      -7.166  17.840  68.406  1.00  0.00    -0.250 C  
HETATM   39  C   UNL     1      -9.447  18.795  68.224  1.00  0.00    -0.389 C  
ENDBRANCH  31  34
ENDBRANCH  23  24
ENDBRANCH  11  23
ENDBRANCH  10  11
ENDBRANCH   6  10
ENDBRANCH   5   6
ENDBRANCH   3   5
ENDBRANCH   2   3
TORSDOF 13
ENDMDL
MODEL       26
REMARK 921   NORMALIZED FREE ENERGY PREDICTED BY IDOCK:   -6.20 KCAL/MOL
REMARK 922        TOTAL FREE ENERGY PREDICTED BY IDOCK:  -13.38 KCAL/MOL
REMARK 923 INTER-LIGAND FREE ENERGY PREDICTED BY IDOCK:   -9.92 KCAL/MOL
REMARK 924 INTRA-LIGAND FREE ENERGY PREDICTED BY IDOCK:   -3.45 KCAL/MOL
REMARK 927      BINDING AFFINITY PREDICTED BY RF-SCORE:    0.00 PKD
ROOT
HETATM    1  C   UNL     1      -6.835   9.379  63.749  1.00  0.00    -0.096 C  
HETATM    2  C   UNL     1      -8.307   9.203  63.423  1.00  0.00    -0.192 C  
ENDROOT
BRANCH   2   3
HETATM    3  C   UNL     1      -9.181  10.453  63.373  1.00  0.00    -0.285 C  
HETATM    4  O   UNL     1      -8.983  11.363  62.576  1.00  0.00    -0.321 OA 
BRANCH   3   5
HETATM    5  O   UNL     1     -10.244  10.382  64.213  1.00  0.00    -0.323 OA 
BRANCH   5   6
HETATM    6  C   UNL     1     -10.538  11.539  65.057  1.00  0.00    -0.297 C  
HETATM    7  C   UNL     1     -11.411  12.530  64.204  1.00  0.00    -0.440 C  
HETATM    8  C   UNL     1     -11.790  13.815  64.939  1.00  0.00    -0.394 C  
HETATM    9  C   UNL     1     -12.681  11.883  63.648  1.00  0.00    -0.509 C  
BRANCH   6  10
HETATM   10  O   UNL     1      -9.378  12.215  65.633  1.00  0.00    -0.162 OA 
BRANCH  10  11
HETATM   11  P   UNL     1      -9.044  11.936  67.241  1.00  0.00    -0.191 P  
HETATM   12  O   UNL     1      -7.779  12.826  67.182  1.00  0.00    -0.146 OA 
BRANCH  11  13
HETATM   13  C   UNL     1      -7.933  10.314  67.226  1.00  0.00    -0.107 C  
BRANCH  13  14
HETATM   14  C   UNL     1      -7.738   9.729  68.628  1.00  0.00    -0.080 C  
BRANCH  14  15
HETATM   15  C   UNL     1      -7.263   8.287  68.639  1.00  0.00    -0.087 C  
BRANCH  15  16
HETATM   16  C   UNL     1      -7.341   7.718  67.213  1.00  0.00    -0.092 C  
BRANCH  16  17
HETATM   17  C   UNL     1      -8.228   6.506  67.176  1.00  0.00    -0.113 A  
HETATM   18  C   UNL     1      -7.852   5.327  67.832  1.00  0.00    -0.092 A  
HETATM   19  C   UNL     1      -9.470   6.569  66.532  1.00  0.00    -0.190 A  
HETATM   20  C   UNL     1      -9.945   4.296  67.201  1.00  0.00    -0.152 A  
HETATM   21  C   UNL     1      -8.711   4.222  67.837  1.00  0.00    -0.119 A  
HETATM   22  C   UNL     1     -10.324   5.467  66.551  1.00  0.00    -0.320 A  
ENDBRANCH  16  17
ENDBRANCH  15  16
ENDBRANCH  14  15
ENDBRANCH  13  14
ENDBRANCH  11  13
BRANCH  11  23
HETATM   23  C   UNL     1     -10.539  10.883  67.310  1.00  0.00    -0.251 C  
BRANCH  23  24
HETATM   24  C   UNL     1     -11.567  11.313  68.374  1.00  0.00    -0.308 C  
HETATM   25  C   UNL     1     -12.872  10.953  70.484  1.00  0.00    -0.220 C  
HETATM   26  O   UNL     1     -12.256  12.323  68.186  1.00  0.00    -0.349 OA 
HETATM   27  N   UNL     1     -11.736  10.657  69.574  1.00  0.00    -0.284 N  
HETATM   28  C   UNL     1     -12.867  12.286  71.282  1.00  0.00    -0.239 C  
HETATM   29  O   UNL     1     -13.404  12.429  72.376  1.00  0.00    -0.481 OA 
HETATM   30  C   UNL     1     -10.785   9.816  70.274  1.00  0.00    -0.302 C  
HETATM   31  C   UNL     1     -11.615   8.943  71.231  1.00  0.00    -0.371 C  
HETATM   32  O   UNL     1     -12.336  13.340  70.626  1.00  0.00    -0.356 OA 
HETATM   33  C   UNL     1     -12.894   9.773  71.474  1.00  0.00    -0.502 C  
BRANCH  31  34
HETATM   34  C   UNL     1     -11.949   7.502  70.734  1.00  0.00    -0.224 C  
HETATM   35  C   UNL     1      -9.599   6.555  70.897  1.00  0.00    -0.186 C  
HETATM   36  C   UNL     1      -9.985   5.643  72.056  1.00  0.00    -0.217 C  
HETATM   37  C   UNL     1     -11.229   6.122  72.802  1.00  0.00    -0.278 C  
HETATM   38  C   UNL     1     -10.797   6.806  69.988  1.00  0.00    -0.311 C  
HETATM   39  C   UNL     1     -12.377   6.555  71.883  1.00  0.00    -0.339 C  
ENDBRANCH  31  34
ENDBRANCH  23  24
ENDBRANCH  11  23
ENDBRANCH  10  11
ENDBRANCH   6  10
ENDBRANCH   5   6
ENDBRANCH   3   5
ENDBRANCH   2   3
TORSDOF 13
ENDMDL
MODEL       27
REMARK 921   NORMALIZED FREE ENERGY PREDICTED BY IDOCK:   -6.15 KCAL/MOL
REMARK 922        TOTAL FREE ENERGY PREDICTED BY IDOCK:  -13.28 KCAL/MOL
REMARK 923 INTER-LIGAND FREE ENERGY PREDICTED BY IDOCK:  -11.00 KCAL/MOL
REMARK 924 INTRA-LIGAND FREE ENERGY PREDICTED BY IDOCK:   -2.28 KCAL/MOL
REMARK 927      BINDING AFFINITY PREDICTED BY RF-SCORE:    0.00 PKD
ROOT
HETATM    1  C   UNL     1     -10.405  19.830  66.271  1.00  0.00    -0.626 C  
HETATM    2  C   UNL     1      -8.901  19.669  66.398  1.00  0.00    -0.419 C  
ENDROOT
BRANCH   2   3
HETATM    3  C   UNL     1      -8.361  18.959  67.636  1.00  0.00    -0.272 C  
HETATM    4  O   UNL     1      -8.933  19.000  68.720  1.00  0.00    -0.347 OA 
BRANCH   3   5
HETATM    5  O   UNL     1      -7.268  18.202  67.371  1.00  0.00    -0.196 OA 
BRANCH   5   6
HETATM    6  C   UNL     1      -7.159  16.892  68.012  1.00  0.00    -0.157 C  
HETATM    7  C   UNL     1      -5.887  16.929  68.935  1.00  0.00    -0.154 C  
HETATM    8  C   UNL     1      -5.613  15.617  69.669  1.00  0.00    -0.117 C  
HETATM    9  C   UNL     1      -5.918  18.070  69.954  1.00  0.00    -0.204 C  
BRANCH   6  10
HETATM   10  O   UNL     1      -7.126  15.745  67.109  1.00  0.00    -0.202 OA 
BRANCH  10  11
HETATM   11  P   UNL     1      -8.567  14.969  66.799  1.00  0.00    -0.125 P  
HETATM   12  O   UNL     1      -8.954  16.015  65.725  1.00  0.00    -0.335 OA 
BRANCH  11  13
HETATM   13  C   UNL     1      -9.831  15.772  68.072  1.00  0.00    -0.217 C  
BRANCH  13  14
HETATM   14  C   UNL     1     -11.277  15.719  67.569  1.00  0.00    -0.218 C  
BRANCH  14  15
HETATM   15  C   UNL     1     -12.248  15.069  68.538  1.00  0.00    -0.063 C  
BRANCH  15  16
HETATM   16  C   UNL     1     -11.490  14.649  69.808  1.00  0.00    -0.325 C  
BRANCH  16  17
HETATM   17  C   UNL     1     -12.240  15.080  71.037  1.00  0.00    -0.386 A  
HETATM   18  C   UNL     1     -11.552  15.419  72.209  1.00  0.00    -0.554 A  
HETATM   19  C   UNL     1     -13.634  15.202  70.996  1.00  0.00    -0.473 A  
HETATM   20  C   UNL     1     -13.641  15.996  73.279  1.00  0.00    -0.473 A  
HETATM   21  C   UNL     1     -12.258  15.870  73.331  1.00  0.00    -0.625 A  
HETATM   22  C   UNL     1     -14.327  15.663  72.115  1.00  0.00    -0.497 A  
ENDBRANCH  16  17
ENDBRANCH  15  16
ENDBRANCH  14  15
ENDBRANCH  13  14
ENDBRANCH  11  13
BRANCH  11  23
HETATM   23  C   UNL     1      -8.110  13.732  68.068  1.00  0.00    -0.163 C  
BRANCH  23  24
HETATM   24  C   UNL     1      -8.201  12.271  67.589  1.00  0.00    -0.166 C  
HETATM   25  C   UNL     1      -9.197   9.971  67.633  1.00  0.00    -0.137 C  
HETATM   26  O   UNL     1      -7.335  11.821  66.829  1.00  0.00    -0.128 OA 
HETATM   27  N   UNL     1      -9.238  11.427  67.922  1.00  0.00    -0.159 N  
HETATM   28  C   UNL     1      -9.360   9.492  66.164  1.00  0.00    -0.198 C  
HETATM   29  O   UNL     1      -9.843   8.410  65.848  1.00  0.00    -0.116 OA 
HETATM   30  C   UNL     1     -10.582  11.784  68.334  1.00  0.00    -0.216 C  
HETATM   31  C   UNL     1     -11.140  10.553  69.071  1.00  0.00    -0.300 C  
HETATM   32  O   UNL     1      -8.804  10.302  65.237  1.00  0.00    -0.161 OA 
HETATM   33  C   UNL     1     -10.333   9.374  68.486  1.00  0.00    -0.236 C  
BRANCH  31  34
HETATM   34  C   UNL     1     -11.060  10.590  70.628  1.00  0.00    -0.186 C  
HETATM   35  C   UNL     1     -13.456   9.890  71.090  1.00  0.00    -0.308 C  
HETATM   36  C   UNL     1     -13.016   8.544  71.655  1.00  0.00    -0.369 C  
HETATM   37  C   UNL     1     -11.626   8.124  71.178  1.00  0.00    -0.306 C  
HETATM   38  C   UNL     1     -12.384  10.949  71.324  1.00  0.00    -0.448 C  
HETATM   39  C   UNL     1     -10.583   9.246  71.237  1.00  0.00    -0.417 C  
ENDBRANCH  31  34
ENDBRANCH  23  24
ENDBRANCH  11  23
ENDBRANCH  10  11
ENDBRANCH   6  10
ENDBRANCH   5   6
ENDBRANCH   3   5
ENDBRANCH   2   3
TORSDOF 13
ENDMDL
MODEL       28
REMARK 921   NORMALIZED FREE ENERGY PREDICTED BY IDOCK:   -6.12 KCAL/MOL
REMARK 922        TOTAL FREE ENERGY PREDICTED BY IDOCK:  -13.24 KCAL/MOL
REMARK 923 INTER-LIGAND FREE ENERGY PREDICTED BY IDOCK:  -10.83 KCAL/MOL
REMARK 924 INTRA-LIGAND FREE ENERGY PREDICTED BY IDOCK:   -2.41 KCAL/MOL
REMARK 927      BINDING AFFINITY PREDICTED BY RF-SCORE:    0.00 PKD
ROOT
HETATM    1  C   UNL     1      -6.645   9.773  70.288  1.00  0.00    -0.102 C  
HETATM    2  C   UNL     1      -7.071   8.817  69.190  1.00  0.00    -0.063 C  
ENDROOT
BRANCH   2   3
HETATM    3  C   UNL     1      -7.093   9.341  67.756  1.00  0.00    -0.082 C  
HETATM    4  O   UNL     1      -6.090   9.773  67.198  1.00  0.00    -0.057 OA 
BRANCH   3   5
HETATM    5  O   UNL     1      -8.294   9.166  67.153  1.00  0.00    -0.115 OA 
BRANCH   5   6
HETATM    6  C   UNL     1      -9.356   8.497  67.904  1.00  0.00    -0.135 C  
HETATM    7  C   UNL     1      -9.681   7.153  67.155  1.00  0.00    -0.212 C  
HETATM    8  C   UNL     1     -10.796   6.334  67.803  1.00  0.00    -0.424 C  
HETATM    9  C   UNL     1      -8.453   6.259  66.968  1.00  0.00    -0.108 C  
BRANCH   6  10
HETATM   10  O   UNL     1     -10.565   9.283  68.130  1.00  0.00    -0.221 OA 
BRANCH  10  11
HETATM   11  P   UNL     1     -10.420  10.943  68.106  1.00  0.00    -0.215 P  
HETATM   12  O   UNL     1      -9.802  10.956  69.526  1.00  0.00    -0.103 OA 
BRANCH  11  13
HETATM   13  C   UNL     1     -12.134  11.586  68.820  1.00  0.00    -0.170 C  
BRANCH  13  14
HETATM   14  C   UNL     1     -11.997  12.161  70.234  1.00  0.00    -0.389 C  
BRANCH  14  15
HETATM   15  C   UNL     1     -12.679  11.333  71.309  1.00  0.00    -0.510 C  
BRANCH  15  16
HETATM   16  C   UNL     1     -13.090   9.975  70.718  1.00  0.00    -0.316 C  
BRANCH  16  17
HETATM   17  C   UNL     1     -12.383   8.855  71.428  1.00  0.00    -0.368 A  
HETATM   18  C   UNL     1     -12.855   7.540  71.330  1.00  0.00    -0.381 A  
HETATM   19  C   UNL     1     -11.209   9.114  72.144  1.00  0.00    -0.180 A  
HETATM   20  C   UNL     1     -10.989   6.762  72.654  1.00  0.00    -0.291 A  
HETATM   21  C   UNL     1     -12.159   6.497  71.952  1.00  0.00    -0.388 A  
HETATM   22  C   UNL     1     -10.515   8.067  72.750  1.00  0.00    -0.415 A  
ENDBRANCH  16  17
ENDBRANCH  15  16
ENDBRANCH  14  15
ENDBRANCH  13  14
ENDBRANCH  11  13
BRANCH  11  23
HETATM   23  C   UNL     1     -11.150  10.927  66.428  1.00  0.00    -0.007 C  
BRANCH  23  24
HETATM   24  C   UNL     1     -11.704  12.288  65.966  1.00  0.00    -0.388 C  
HETATM   25  C   UNL     1     -11.619  14.787  65.799  1.00  0.00    -0.290 C  
HETATM   26  O   UNL     1     -12.828  12.347  65.452  1.00  0.00    -0.488 OA 
HETATM   27  N   UNL     1     -10.991  13.464  66.045  1.00  0.00    -0.272 N  
HETATM   28  C   UNL     1     -11.992  15.182  64.344  1.00  0.00    -0.310 C  
HETATM   29  O   UNL     1     -12.019  16.339  63.936  1.00  0.00    -1.003 OA 
HETATM   30  C   UNL     1      -9.553  13.634  66.105  1.00  0.00    -0.209 C  
HETATM   31  C   UNL     1      -9.315  15.033  66.701  1.00  0.00    -0.290 C  
HETATM   32  O   UNL     1     -12.424  14.163  63.571  1.00  0.00    -0.817 OA 
HETATM   33  C   UNL     1     -10.605  15.807  66.353  1.00  0.00    -0.307 C  
BRANCH  31  34
HETATM   34  C   UNL     1      -9.005  15.086  68.228  1.00  0.00    -0.174 C  
HETATM   35  C   UNL     1      -6.634  15.974  68.044  1.00  0.00    -0.145 C  
HETATM   36  C   UNL     1      -7.029  17.319  68.644  1.00  0.00    -0.220 C  
HETATM   37  C   UNL     1      -8.522  17.613  68.514  1.00  0.00    -0.289 C  
HETATM   38  C   UNL     1      -7.525  14.861  68.583  1.00  0.00    -0.124 C  
HETATM   39  C   UNL     1      -9.424  16.428  68.880  1.00  0.00    -0.254 C  
ENDBRANCH  31  34
ENDBRANCH  23  24
ENDBRANCH  11  23
ENDBRANCH  10  11
ENDBRANCH   6  10
ENDBRANCH   5   6
ENDBRANCH   3   5
ENDBRANCH   2   3
TORSDOF 13
ENDMDL
MODEL       29
REMARK 921   NORMALIZED FREE ENERGY PREDICTED BY IDOCK:   -6.11 KCAL/MOL
REMARK 922        TOTAL FREE ENERGY PREDICTED BY IDOCK:  -13.22 KCAL/MOL
REMARK 923 INTER-LIGAND FREE ENERGY PREDICTED BY IDOCK:  -11.02 KCAL/MOL
REMARK 924 INTRA-LIGAND FREE ENERGY PREDICTED BY IDOCK:   -2.19 KCAL/MOL
REMARK 927      BINDING AFFINITY PREDICTED BY RF-SCORE:    0.00 PKD
ROOT
HETATM    1  C   UNL     1      -7.954   8.667  66.307  1.00  0.00    -0.102 C  
HETATM    2  C   UNL     1      -9.342   9.273  66.399  1.00  0.00    -0.247 C  
ENDROOT
BRANCH   2   3
HETATM    3  C   UNL     1      -9.724  10.341  65.377  1.00  0.00    -0.278 C  
HETATM    4  O   UNL     1      -8.954  10.717  64.500  1.00  0.00    -0.192 OA 
BRANCH   3   5
HETATM    5  O   UNL     1     -11.020  10.725  65.481  1.00  0.00    -0.060 OA 
BRANCH   5   6
HETATM    6  C   UNL     1     -11.310  12.147  65.656  1.00  0.00    -0.347 C  
HETATM    7  C   UNL     1     -11.605  12.743  64.231  1.00  0.00    -0.433 C  
HETATM    8  C   UNL     1     -11.907  14.240  64.234  1.00  0.00    -0.401 C  
HETATM    9  C   UNL     1     -12.730  12.011  63.497  1.00  0.00    -0.567 C  
BRANCH   6  10
HETATM   10  O   UNL     1     -10.286  12.922  66.352  1.00  0.00    -0.256 OA 
BRANCH  10  11
HETATM   11  P   UNL     1     -10.686  13.570  67.834  1.00  0.00    -0.259 P  
HETATM   12  O   UNL     1     -11.084  14.919  67.190  1.00  0.00    -0.316 OA 
BRANCH  11  13
HETATM   13  C   UNL     1      -9.004  14.350  68.488  1.00  0.00    -0.187 C  
BRANCH  13  14
HETATM   14  C   UNL     1      -8.062  14.743  67.345  1.00  0.00    -0.220 C  
BRANCH  14  15
HETATM   15  C   UNL     1      -7.431  16.115  67.505  1.00  0.00    -0.179 C  
BRANCH  15  16
HETATM   16  C   UNL     1      -8.151  16.875  68.631  1.00  0.00    -0.253 C  
BRANCH  16  17
HETATM   17  C   UNL     1      -8.775  18.135  68.102  1.00  0.00    -0.285 A  
HETATM   18  C   UNL     1      -7.979  19.235  67.758  1.00  0.00    -0.312 A  
HETATM   19  C   UNL     1     -10.158  18.193  67.892  1.00  0.00    -0.366 A  
HETATM   20  C   UNL     1      -9.940  20.430  67.003  1.00  0.00    -0.568 A  
HETATM   21  C   UNL     1      -8.566  20.384  67.216  1.00  0.00    -0.414 A  
HETATM   22  C   UNL     1     -10.733  19.338  67.341  1.00  0.00    -0.594 A  
ENDBRANCH  16  17
ENDBRANCH  15  16
ENDBRANCH  14  15
ENDBRANCH  13  14
ENDBRANCH  11  13
BRANCH  11  23
HETATM   23  C   UNL     1     -10.215  11.974  68.596  1.00  0.00    -0.177 C  
BRANCH  23  24
HETATM   24  C   UNL     1     -11.348  11.290  69.384  1.00  0.00    -0.292 C  
HETATM   25  C   UNL     1     -12.338   9.358  70.638  1.00  0.00    -0.034 C  
HETATM   26  O   UNL     1     -12.458  11.834  69.457  1.00  0.00    -0.107 OA 
HETATM   27  N   UNL     1     -11.187  10.106  70.071  1.00  0.00    -0.279 N  
HETATM   28  C   UNL     1     -13.054   9.921  71.897  1.00  0.00    -0.459 C  
HETATM   29  O   UNL     1     -13.620   9.222  72.731  1.00  0.00    -0.403 OA 
HETATM   30  C   UNL     1      -9.959   9.532  70.584  1.00  0.00    -0.276 C  
HETATM   31  C   UNL     1     -10.241   8.031  70.775  1.00  0.00    -0.209 C  
HETATM   32  O   UNL     1     -13.131  11.268  71.952  1.00  0.00    -0.493 OA 
HETATM   33  C   UNL     1     -11.772   7.963  70.962  1.00  0.00    -0.293 C  
BRANCH  31  34
HETATM   34  C   UNL     1      -9.758   7.089  69.629  1.00  0.00    -0.157 C  
HETATM   35  C   UNL     1      -7.760   6.102  70.844  1.00  0.00    -0.098 C  
HETATM   36  C   UNL     1      -8.420   4.731  70.938  1.00  0.00    -0.114 C  
HETATM   37  C   UNL     1      -9.941   4.793  70.810  1.00  0.00    -0.291 C  
HETATM   38  C   UNL     1      -8.240   6.847  69.604  1.00  0.00    -0.131 C  
HETATM   39  C   UNL     1     -10.434   5.695  69.672  1.00  0.00    -0.374 C  
ENDBRANCH  31  34
ENDBRANCH  23  24
ENDBRANCH  11  23
ENDBRANCH  10  11
ENDBRANCH   6  10
ENDBRANCH   5   6
ENDBRANCH   3   5
ENDBRANCH   2   3
TORSDOF 13
ENDMDL
MODEL       30
REMARK 921   NORMALIZED FREE ENERGY PREDICTED BY IDOCK:   -6.09 KCAL/MOL
REMARK 922        TOTAL FREE ENERGY PREDICTED BY IDOCK:  -13.19 KCAL/MOL
REMARK 923 INTER-LIGAND FREE ENERGY PREDICTED BY IDOCK:  -11.13 KCAL/MOL
REMARK 924 INTRA-LIGAND FREE ENERGY PREDICTED BY IDOCK:   -2.06 KCAL/MOL
REMARK 927      BINDING AFFINITY PREDICTED BY RF-SCORE:    0.00 PKD
ROOT
HETATM    1  C   UNL     1      -9.181   4.535  71.795  1.00  0.00    -0.179 C  
HETATM    2  C   UNL     1     -10.111   5.734  71.765  1.00  0.00    -0.233 C  
ENDROOT
BRANCH   2   3
HETATM    3  C   UNL     1     -10.631   6.200  70.407  1.00  0.00    -0.257 C  
HETATM    4  O   UNL     1     -11.791   6.560  70.235  1.00  0.00    -0.413 OA 
BRANCH   3   5
HETATM    5  O   UNL     1      -9.655   6.278  69.471  1.00  0.00    -0.146 OA 
BRANCH   5   6
HETATM    6  C   UNL     1      -9.551   7.502  68.677  1.00  0.00    -0.151 C  
HETATM    7  C   UNL     1      -9.706   7.094  67.167  1.00  0.00    -0.212 C  
HETATM    8  C   UNL     1      -9.599   8.265  66.192  1.00  0.00    -0.217 C  
HETATM    9  C   UNL     1     -11.000   6.328  66.883  1.00  0.00    -0.404 C  
BRANCH   6  10
HETATM   10  O   UNL     1      -8.344   8.296  68.890  1.00  0.00    -0.124 OA 
BRANCH  10  11
HETATM   11  P   UNL     1      -8.475   9.653  69.848  1.00  0.00    -0.202 P  
HETATM   12  O   UNL     1      -8.351   8.811  71.141  1.00  0.00    -0.146 OA 
BRANCH  11  13
HETATM   13  C   UNL     1     -10.409   9.855  70.135  1.00  0.00    -0.282 C  
BRANCH  13  14
HETATM   14  C   UNL     1     -11.119  10.455  68.917  1.00  0.00    -0.296 C  
BRANCH  14  15
HETATM   15  C   UNL     1     -12.233  11.426  69.264  1.00  0.00    -0.271 C  
BRANCH  15  16
HETATM   16  C   UNL     1     -12.297  11.598  70.790  1.00  0.00    -0.454 C  
BRANCH  16  17
HETATM   17  C   UNL     1     -12.594  13.027  71.149  1.00  0.00    -0.388 A  
HETATM   18  C   UNL     1     -13.346  13.333  72.291  1.00  0.00    -0.630 A  
HETATM   19  C   UNL     1     -12.067  14.065  70.372  1.00  0.00    -0.426 A  
HETATM   20  C   UNL     1     -13.036  15.694  71.872  1.00  0.00    -0.545 A  
HETATM   21  C   UNL     1     -13.571  14.669  72.645  1.00  0.00    -0.571 A  
HETATM   22  C   UNL     1     -12.286  15.392  70.739  1.00  0.00    -0.447 A  
ENDBRANCH  16  17
ENDBRANCH  15  16
ENDBRANCH  14  15
ENDBRANCH  13  14
ENDBRANCH  11  13
BRANCH  11  23
HETATM   23  C   UNL     1      -8.621  10.648  68.319  1.00  0.00    -0.128 C  
BRANCH  23  24
HETATM   24  C   UNL     1      -7.871  11.993  68.364  1.00  0.00    -0.147 C  
HETATM   25  C   UNL     1      -7.577  14.402  67.738  1.00  0.00    -0.164 C  
HETATM   26  O   UNL     1      -6.756  12.054  68.899  1.00  0.00    -0.081 OA 
HETATM   27  N   UNL     1      -8.396  13.171  67.881  1.00  0.00    -0.157 N  
HETATM   28  C   UNL     1      -7.163  15.182  69.017  1.00  0.00    -0.149 C  
HETATM   29  O   UNL     1      -6.966  16.392  69.045  1.00  0.00    -0.174 OA 
HETATM   30  C   UNL     1      -9.792  13.514  67.689  1.00  0.00    -0.228 C  
HETATM   31  C   UNL     1      -9.808  14.671  66.674  1.00  0.00    -0.280 C  
HETATM   32  O   UNL     1      -6.899  14.410  70.093  1.00  0.00    -0.111 OA 
HETATM   33  C   UNL     1      -8.419  15.325  66.836  1.00  0.00    -0.286 C  
BRANCH  31  34
HETATM   34  C   UNL     1     -10.090  14.280  65.190  1.00  0.00    -0.353 C  
HETATM   35  C   UNL     1     -11.270  12.081  65.657  1.00  0.00    -0.377 C  
HETATM   36  C   UNL     1     -12.610  12.633  65.184  1.00  0.00    -0.459 C  
HETATM   37  C   UNL     1     -12.676  14.159  65.229  1.00  0.00    -0.425 C  
HETATM   38  C   UNL     1     -10.119  12.765  64.928  1.00  0.00    -0.235 C  
HETATM   39  C   UNL     1     -11.431  14.853  64.663  1.00  0.00    -0.380 C  
ENDBRANCH  31  34
ENDBRANCH  23  24
ENDBRANCH  11  23
ENDBRANCH  10  11
ENDBRANCH   6  10
ENDBRANCH   5   6
ENDBRANCH   3   5
ENDBRANCH   2   3
TORSDOF 13
ENDMDL
MODEL       31
REMARK 921   NORMALIZED FREE ENERGY PREDICTED BY IDOCK:   -6.09 KCAL/MOL
REMARK 922        TOTAL FREE ENERGY PREDICTED BY IDOCK:  -13.18 KCAL/MOL
REMARK 923 INTER-LIGAND FREE ENERGY PREDICTED BY IDOCK:  -10.23 KCAL/MOL
REMARK 924 INTRA-LIGAND FREE ENERGY PREDICTED BY IDOCK:   -2.95 KCAL/MOL
REMARK 927      BINDING AFFINITY PREDICTED BY RF-SCORE:    0.00 PKD
ROOT
HETATM    1  C   UNL     1      -6.994  15.839  67.282  1.00  0.00    -0.232 C  
HETATM    2  C   UNL     1      -7.458  14.582  67.996  1.00  0.00    -0.142 C  
ENDROOT
BRANCH   2   3
HETATM    3  C   UNL     1      -6.663  13.299  67.771  1.00  0.00    -0.153 C  
HETATM    4  O   UNL     1      -5.673  13.256  67.048  1.00  0.00    -0.229 OA 
BRANCH   3   5
HETATM    5  O   UNL     1      -7.101  12.270  68.538  1.00  0.00    -0.087 OA 
BRANCH   5   6
HETATM    6  C   UNL     1      -7.927  11.240  67.910  1.00  0.00    -0.118 C  
HETATM    7  C   UNL     1      -6.988  10.023  67.583  1.00  0.00    -0.085 C  
HETATM    8  C   UNL     1      -7.697   8.857  66.896  1.00  0.00    -0.098 C  
HETATM    9  C   UNL     1      -6.241   9.496  68.810  1.00  0.00    -0.043 C  
BRANCH   6  10
HETATM   10  O   UNL     1      -8.678  11.662  66.730  1.00  0.00    -0.178 OA 
BRANCH  10  11
HETATM   11  P   UNL     1     -10.333  11.476  66.764  1.00  0.00    -0.245 P  
HETATM   12  O   UNL     1     -10.379  11.185  65.244  1.00  0.00    -0.258 OA 
BRANCH  11  13
HETATM   13  C   UNL     1     -11.027  13.290  66.463  1.00  0.00    -0.286 C  
BRANCH  13  14
HETATM   14  C   UNL     1     -10.221  14.054  65.407  1.00  0.00    -0.368 C  
BRANCH  14  15
HETATM   15  C   UNL     1     -10.374  15.563  65.480  1.00  0.00    -0.419 C  
BRANCH  15  16
HETATM   16  C   UNL     1     -10.659  15.972  66.934  1.00  0.00    -0.300 C  
BRANCH  16  17
HETATM   17  C   UNL     1     -10.481  17.454  67.109  1.00  0.00    -0.305 A  
HETATM   18  C   UNL     1     -10.347  18.009  68.389  1.00  0.00    -0.377 A  
HETATM   19  C   UNL     1     -10.385  18.283  65.985  1.00  0.00    -0.377 A  
HETATM   20  C   UNL     1     -10.027  20.198  67.415  1.00  0.00    -0.570 A  
HETATM   21  C   UNL     1     -10.128  19.384  68.537  1.00  0.00    -0.527 A  
HETATM   22  C   UNL     1     -10.155  19.649  66.143  1.00  0.00    -0.574 A  
ENDBRANCH  16  17
ENDBRANCH  15  16
ENDBRANCH  14  15
ENDBRANCH  13  14
ENDBRANCH  11  13
BRANCH  11  23
HETATM   23  C   UNL     1     -10.278  11.819  68.561  1.00  0.00    -0.210 C  
BRANCH  23  24
HETATM   24  C   UNL     1     -11.413  11.159  69.366  1.00  0.00    -0.298 C  
HETATM   25  C   UNL     1     -12.406   9.265  70.673  1.00  0.00     0.006 C  
HETATM   26  O   UNL     1     -12.522  11.706  69.423  1.00  0.00    -0.125 OA 
HETATM   27  N   UNL     1     -11.254   9.995  70.086  1.00  0.00    -0.283 N  
HETATM   28  C   UNL     1     -13.122   9.864  71.915  1.00  0.00    -0.459 C  
HETATM   29  O   UNL     1     -13.690   9.189  72.768  1.00  0.00    -0.434 OA 
HETATM   30  C   UNL     1     -10.027   9.434  70.616  1.00  0.00    -0.284 C  
HETATM   31  C   UNL     1     -10.310   7.939  70.850  1.00  0.00    -0.215 C  
HETATM   32  O   UNL     1     -13.198  11.212  71.932  1.00  0.00    -0.470 OA 
HETATM   33  C   UNL     1     -11.842   7.878  71.037  1.00  0.00    -0.285 C  
BRANCH  31  34
HETATM   34  C   UNL     1      -9.828   6.965  69.731  1.00  0.00    -0.177 C  
HETATM   35  C   UNL     1      -7.901   5.928  71.017  1.00  0.00    -0.110 C  
HETATM   36  C   UNL     1      -8.611   4.582  71.110  1.00  0.00    -0.125 C  
HETATM   37  C   UNL     1     -10.124   4.694  70.937  1.00  0.00    -0.257 C  
HETATM   38  C   UNL     1      -8.318   6.671  69.753  1.00  0.00    -0.132 C  
HETATM   39  C   UNL     1     -10.553   5.596  69.773  1.00  0.00    -0.400 C  
ENDBRANCH  31  34
ENDBRANCH  23  24
ENDBRANCH  11  23
ENDBRANCH  10  11
ENDBRANCH   6  10
ENDBRANCH   5   6
ENDBRANCH   3   5
ENDBRANCH   2   3
TORSDOF 13
ENDMDL
MODEL       32
REMARK 921   NORMALIZED FREE ENERGY PREDICTED BY IDOCK:   -6.08 KCAL/MOL
REMARK 922        TOTAL FREE ENERGY PREDICTED BY IDOCK:  -13.16 KCAL/MOL
REMARK 923 INTER-LIGAND FREE ENERGY PREDICTED BY IDOCK:  -11.62 KCAL/MOL
REMARK 924 INTRA-LIGAND FREE ENERGY PREDICTED BY IDOCK:   -1.55 KCAL/MOL
REMARK 927      BINDING AFFINITY PREDICTED BY RF-SCORE:    0.00 PKD
ROOT
HETATM    1  C   UNL     1      -8.399   4.694  70.769  1.00  0.00    -0.096 C  
HETATM    2  C   UNL     1      -9.772   4.613  70.127  1.00  0.00    -0.285 C  
ENDROOT
BRANCH   2   3
HETATM    3  C   UNL     1     -10.403   5.910  69.628  1.00  0.00    -0.247 C  
HETATM    4  O   UNL     1     -11.599   6.153  69.759  1.00  0.00    -0.405 OA 
BRANCH   3   5
HETATM    5  O   UNL     1      -9.488   6.786  69.145  1.00  0.00    -0.142 OA 
BRANCH   5   6
HETATM    6  C   UNL     1      -9.706   7.351  67.813  1.00  0.00    -0.143 C  
HETATM    7  C   UNL     1      -8.381   7.137  66.994  1.00  0.00    -0.118 C  
HETATM    8  C   UNL     1      -8.432   7.696  65.573  1.00  0.00    -0.132 C  
HETATM    9  C   UNL     1      -7.941   5.673  66.936  1.00  0.00    -0.102 C  
BRANCH   6  10
HETATM   10  O   UNL     1     -10.131   8.747  67.778  1.00  0.00    -0.183 OA 
BRANCH  10  11
HETATM   11  P   UNL     1      -9.233   9.847  68.649  1.00  0.00    -0.149 P  
HETATM   12  O   UNL     1      -9.560   9.130  69.982  1.00  0.00    -0.174 OA 
BRANCH  11  13
HETATM   13  C   UNL     1     -10.510  11.279  69.078  1.00  0.00    -0.194 C  
BRANCH  13  14
HETATM   14  C   UNL     1     -11.754  10.751  69.801  1.00  0.00    -0.399 C  
BRANCH  14  15
HETATM   15  C   UNL     1     -12.460  11.787  70.658  1.00  0.00    -0.364 C  
BRANCH  15  16
HETATM   16  C   UNL     1     -12.057  13.194  70.185  1.00  0.00    -0.392 C  
BRANCH  16  17
HETATM   17  C   UNL     1     -12.518  14.233  71.169  1.00  0.00    -0.433 A  
HETATM   18  C   UNL     1     -13.880  14.382  71.462  1.00  0.00    -0.455 A  
HETATM   19  C   UNL     1     -11.577  15.019  71.845  1.00  0.00    -0.426 A  
HETATM   20  C   UNL     1     -13.351  16.087  73.092  1.00  0.00    -0.624 A  
HETATM   21  C   UNL     1     -14.292  15.316  72.419  1.00  0.00    -0.475 A  
HETATM   22  C   UNL     1     -11.997  15.938  72.805  1.00  0.00    -0.616 A  
ENDBRANCH  16  17
ENDBRANCH  15  16
ENDBRANCH  14  15
ENDBRANCH  13  14
ENDBRANCH  11  13
BRANCH  11  23
HETATM   23  C   UNL     1      -8.847  10.694  67.074  1.00  0.00    -0.137 C  
BRANCH  23  24
HETATM   24  C   UNL     1     -10.078  11.256  66.339  1.00  0.00    -0.220 C  
HETATM   25  C   UNL     1     -11.648  13.109  65.719  1.00  0.00    -0.347 C  
HETATM   26  O   UNL     1     -10.851  10.482  65.760  1.00  0.00    -0.050 OA 
HETATM   27  N   UNL     1     -10.353  12.603  66.239  1.00  0.00    -0.248 N  
HETATM   28  C   UNL     1     -11.941  12.999  64.197  1.00  0.00    -0.427 C  
HETATM   29  O   UNL     1     -12.660  13.778  63.581  1.00  0.00    -0.742 OA 
HETATM   30  C   UNL     1      -9.428  13.713  66.347  1.00  0.00    -0.234 C  
HETATM   31  C   UNL     1     -10.283  14.947  66.687  1.00  0.00    -0.264 C  
HETATM   32  O   UNL     1     -11.449  11.890  63.602  1.00  0.00    -0.418 OA 
HETATM   33  C   UNL     1     -11.680  14.593  66.131  1.00  0.00    -0.316 C  
BRANCH  31  34
HETATM   34  C   UNL     1     -10.347  15.345  68.194  1.00  0.00    -0.239 C  
HETATM   35  C   UNL     1      -8.174  16.655  68.272  1.00  0.00    -0.200 C  
HETATM   36  C   UNL     1      -8.910  17.976  68.465  1.00  0.00    -0.304 C  
HETATM   37  C   UNL     1     -10.360  17.926  67.989  1.00  0.00    -0.394 C  
HETATM   38  C   UNL     1      -8.973  15.502  68.867  1.00  0.00    -0.220 C  
HETATM   39  C   UNL     1     -11.118  16.669  68.433  1.00  0.00    -0.305 C  
ENDBRANCH  31  34
ENDBRANCH  23  24
ENDBRANCH  11  23
ENDBRANCH  10  11
ENDBRANCH   6  10
ENDBRANCH   5   6
ENDBRANCH   3   5
ENDBRANCH   2   3
TORSDOF 13
ENDMDL
MODEL       33
REMARK 921   NORMALIZED FREE ENERGY PREDICTED BY IDOCK:   -6.08 KCAL/MOL
REMARK 922        TOTAL FREE ENERGY PREDICTED BY IDOCK:  -13.16 KCAL/MOL
REMARK 923 INTER-LIGAND FREE ENERGY PREDICTED BY IDOCK:  -10.54 KCAL/MOL
REMARK 924 INTRA-LIGAND FREE ENERGY PREDICTED BY IDOCK:   -2.62 KCAL/MOL
REMARK 927      BINDING AFFINITY PREDICTED BY RF-SCORE:    0.00 PKD
ROOT
HETATM    1  C   UNL     1      -9.826  20.350  67.267  1.00  0.00    -0.597 C  
HETATM    2  C   UNL     1     -10.629  19.140  66.826  1.00  0.00    -0.528 C  
ENDROOT
BRANCH   2   3
HETATM    3  C   UNL     1     -10.297  17.793  67.463  1.00  0.00    -0.369 C  
HETATM    4  O   UNL     1     -10.436  17.580  68.663  1.00  0.00    -0.356 OA 
BRANCH   3   5
HETATM    5  O   UNL     1      -9.953  16.852  66.549  1.00  0.00    -0.274 OA 
BRANCH   5   6
HETATM    6  C   UNL     1      -9.843  15.463  66.992  1.00  0.00    -0.232 C  
HETATM    7  C   UNL     1      -8.320  15.076  66.941  1.00  0.00    -0.247 C  
HETATM    8  C   UNL     1      -8.030  13.634  67.356  1.00  0.00    -0.177 C  
HETATM    9  C   UNL     1      -7.435  16.016  67.761  1.00  0.00    -0.153 C  
BRANCH   6  10
HETATM   10  O   UNL     1     -10.660  14.498  66.262  1.00  0.00    -0.292 OA 
BRANCH  10  11
HETATM   11  P   UNL     1     -11.969  13.841  67.055  1.00  0.00    -0.361 P  
HETATM   12  O   UNL     1     -11.859  14.881  68.197  1.00  0.00    -0.330 OA 
BRANCH  11  13
HETATM   13  C   UNL     1     -11.187  12.456  68.210  1.00  0.00    -0.263 C  
BRANCH  13  14
HETATM   14  C   UNL     1     -11.782  12.470  69.622  1.00  0.00    -0.372 C  
BRANCH  14  15
HETATM   15  C   UNL     1     -12.692  11.293  69.924  1.00  0.00    -0.033 C  
BRANCH  15  16
HETATM   16  C   UNL     1     -12.655  10.999  71.432  1.00  0.00    -0.498 C  
BRANCH  16  17
HETATM   17  C   UNL     1     -12.607   9.517  71.680  1.00  0.00    -0.476 A  
HETATM   18  C   UNL     1     -13.702   8.705  71.358  1.00  0.00    -0.296 A  
HETATM   19  C   UNL     1     -11.438   8.931  72.179  1.00  0.00    -0.387 A  
HETATM   20  C   UNL     1     -12.458   6.745  72.032  1.00  0.00    -0.285 A  
HETATM   21  C   UNL     1     -13.626   7.320  71.542  1.00  0.00    -0.442 A  
HETATM   22  C   UNL     1     -11.367   7.549  72.349  1.00  0.00    -0.360 A  
ENDBRANCH  16  17
ENDBRANCH  15  16
ENDBRANCH  14  15
ENDBRANCH  13  14
ENDBRANCH  11  13
BRANCH  11  23
HETATM   23  C   UNL     1     -12.099  12.611  65.706  1.00  0.00    -0.423 C  
BRANCH  23  24
HETATM   24  C   UNL     1     -10.751  12.224  65.071  1.00  0.00    -0.298 C  
HETATM   25  C   UNL     1      -8.689  10.807  64.911  1.00  0.00    -0.126 C  
HETATM   26  O   UNL     1     -10.245  12.959  64.214  1.00  0.00    -0.378 OA 
HETATM   27  N   UNL     1     -10.081  11.057  65.367  1.00  0.00    -0.255 N  
HETATM   28  C   UNL     1      -8.433  10.502  63.409  1.00  0.00    -0.148 C  
HETATM   29  O   UNL     1      -7.508   9.808  63.001  1.00  0.00    -0.116 OA 
HETATM   30  C   UNL     1     -10.627   9.823  65.895  1.00  0.00     0.197 C  
HETATM   31  C   UNL     1      -9.441   9.066  66.519  1.00  0.00    -0.266 C  
HETATM   32  O   UNL     1      -9.233  11.168  62.550  1.00  0.00    -0.330 OA 
HETATM   33  C   UNL     1      -8.213   9.610  65.757  1.00  0.00    -0.120 C  
BRANCH  31  34
HETATM   34  C   UNL     1      -9.270   9.209  68.063  1.00  0.00    -0.142 C  
HETATM   35  C   UNL     1     -10.603   7.153  68.726  1.00  0.00    -0.219 C  
HETATM   36  C   UNL     1      -9.354   6.429  69.215  1.00  0.00    -0.138 C  
HETATM   37  C   UNL     1      -8.068   6.981  68.603  1.00  0.00    -0.121 C  
HETATM   38  C   UNL     1     -10.448   8.661  68.885  1.00  0.00    -0.211 C  
HETATM   39  C   UNL     1      -7.990   8.513  68.592  1.00  0.00    -0.116 C  
ENDBRANCH  31  34
ENDBRANCH  23  24
ENDBRANCH  11  23
ENDBRANCH  10  11
ENDBRANCH   6  10
ENDBRANCH   5   6
ENDBRANCH   3   5
ENDBRANCH   2   3
TORSDOF 13
ENDMDL
MODEL       34
REMARK 921   NORMALIZED FREE ENERGY PREDICTED BY IDOCK:   -6.06 KCAL/MOL
REMARK 922        TOTAL FREE ENERGY PREDICTED BY IDOCK:  -13.13 KCAL/MOL
REMARK 923 INTER-LIGAND FREE ENERGY PREDICTED BY IDOCK:  -10.73 KCAL/MOL
REMARK 924 INTRA-LIGAND FREE ENERGY PREDICTED BY IDOCK:   -2.40 KCAL/MOL
REMARK 927      BINDING AFFINITY PREDICTED BY RF-SCORE:    0.00 PKD
ROOT
HETATM    1  C   UNL     1      -7.129   9.666  63.302  1.00  0.00    -0.109 C  
HETATM    2  C   UNL     1      -8.416  10.433  63.062  1.00  0.00    -0.180 C  
ENDROOT
BRANCH   2   3
HETATM    3  C   UNL     1      -9.530  10.300  64.098  1.00  0.00    -0.301 C  
HETATM    4  O   UNL     1     -10.621  10.843  63.965  1.00  0.00    -0.372 OA 
BRANCH   3   5
HETATM    5  O   UNL     1      -9.216   9.437  65.096  1.00  0.00    -0.229 OA 
BRANCH   5   6
HETATM    6  C   UNL     1      -9.294   9.915  66.476  1.00  0.00    -0.164 C  
HETATM    7  C   UNL     1     -10.593   9.298  67.111  1.00  0.00    -0.286 C  
HETATM    8  C   UNL     1     -10.839   9.721  68.559  1.00  0.00    -0.227 C  
HETATM    9  C   UNL     1     -10.635   7.771  67.025  1.00  0.00    -0.396 C  
BRANCH   6  10
HETATM   10  O   UNL     1      -9.258  11.365  66.647  1.00  0.00    -0.172 OA 
BRANCH  10  11
HETATM   11  P   UNL     1      -7.923  12.017  67.402  1.00  0.00    -0.180 P  
HETATM   12  O   UNL     1      -6.970  11.058  66.649  1.00  0.00    -0.124 OA 
BRANCH  11  13
HETATM   13  C   UNL     1      -7.733  10.956  69.045  1.00  0.00    -0.135 C  
BRANCH  13  14
HETATM   14  C   UNL     1      -7.039   9.613  68.794  1.00  0.00    -0.067 C  
BRANCH  14  15
HETATM   15  C   UNL     1      -7.071   8.666  69.980  1.00  0.00    -0.047 C  
BRANCH  15  16
HETATM   16  C   UNL     1      -7.966   7.462  69.644  1.00  0.00    -0.126 C  
BRANCH  16  17
HETATM   17  C   UNL     1      -9.121   7.379  70.602  1.00  0.00    -0.156 A  
HETATM   18  C   UNL     1      -9.258   8.314  71.636  1.00  0.00    -0.245 A  
HETATM   19  C   UNL     1     -10.104   6.398  70.426  1.00  0.00    -0.221 A  
HETATM   20  C   UNL     1     -11.342   7.286  72.303  1.00  0.00    -0.310 A  
HETATM   21  C   UNL     1     -10.366   8.260  72.489  1.00  0.00    -0.401 A  
HETATM   22  C   UNL     1     -11.211   6.359  71.273  1.00  0.00    -0.346 A  
ENDBRANCH  16  17
ENDBRANCH  15  16
ENDBRANCH  14  15
ENDBRANCH  13  14
ENDBRANCH  11  13
BRANCH  11  23
HETATM   23  C   UNL     1      -9.050  13.152  68.291  1.00  0.00    -0.181 C  
BRANCH  23  24
HETATM   24  C   UNL     1     -10.006  13.941  67.377  1.00  0.00    -0.240 C  
HETATM   25  C   UNL     1     -10.763  16.032  66.221  1.00  0.00    -0.234 C  
HETATM   26  O   UNL     1     -11.052  13.410  66.983  1.00  0.00    -0.282 OA 
HETATM   27  N   UNL     1      -9.739  15.212  66.917  1.00  0.00    -0.233 N  
HETATM   28  C   UNL     1     -11.165  15.657  64.768  1.00  0.00    -0.382 C  
HETATM   29  O   UNL     1     -11.559  16.469  63.937  1.00  0.00    -1.175 OA 
HETATM   30  C   UNL     1      -8.449  15.858  66.776  1.00  0.00    -0.262 C  
HETATM   31  C   UNL     1      -8.734  17.370  66.742  1.00  0.00    -0.278 C  
HETATM   32  O   UNL     1     -11.181  14.332  64.507  1.00  0.00    -0.371 OA 
HETATM   33  C   UNL     1     -10.188  17.461  66.231  1.00  0.00    -0.344 C  
BRANCH  31  34
HETATM   34  C   UNL     1      -8.547  18.136  68.088  1.00  0.00    -0.282 C  
HETATM   35  C   UNL     1      -6.342  19.257  67.517  1.00  0.00    -0.215 C  
HETATM   36  C   UNL     1      -6.990  20.636  67.465  1.00  0.00    -0.395 C  
HETATM   37  C   UNL     1      -8.498  20.577  67.228  1.00  0.00    -0.365 C  
HETATM   38  C   UNL     1      -7.080  18.352  68.497  1.00  0.00    -0.285 C  
HETATM   39  C   UNL     1      -9.222  19.531  68.084  1.00  0.00    -0.411 C  
ENDBRANCH  31  34
ENDBRANCH  23  24
ENDBRANCH  11  23
ENDBRANCH  10  11
ENDBRANCH   6  10
ENDBRANCH   5   6
ENDBRANCH   3   5
ENDBRANCH   2   3
TORSDOF 13
ENDMDL
MODEL       35
REMARK 921   NORMALIZED FREE ENERGY PREDICTED BY IDOCK:   -6.04 KCAL/MOL
REMARK 922        TOTAL FREE ENERGY PREDICTED BY IDOCK:  -13.10 KCAL/MOL
REMARK 923 INTER-LIGAND FREE ENERGY PREDICTED BY IDOCK:  -11.83 KCAL/MOL
REMARK 924 INTRA-LIGAND FREE ENERGY PREDICTED BY IDOCK:   -1.27 KCAL/MOL
REMARK 927      BINDING AFFINITY PREDICTED BY RF-SCORE:    0.00 PKD
ROOT
HETATM    1  C   UNL     1      -6.353   8.860  69.249  1.00  0.00    -0.042 C  
HETATM    2  C   UNL     1      -6.618   8.439  67.815  1.00  0.00    -0.062 C  
ENDROOT
BRANCH   2   3
HETATM    3  C   UNL     1      -7.316   9.437  66.896  1.00  0.00    -0.090 C  
HETATM    4  O   UNL     1      -6.804  10.505  66.574  1.00  0.00    -0.098 OA 
BRANCH   3   5
HETATM    5  O   UNL     1      -8.484   8.963  66.398  1.00  0.00    -0.112 OA 
BRANCH   5   6
HETATM    6  C   UNL     1      -9.393   8.267  67.307  1.00  0.00    -0.147 C  
HETATM    7  C   UNL     1      -9.903   6.979  66.563  1.00  0.00    -0.175 C  
HETATM    8  C   UNL     1     -10.891   6.142  67.374  1.00  0.00    -0.431 C  
HETATM    9  C   UNL     1      -8.767   6.076  66.080  1.00  0.00    -0.154 C  
BRANCH   6  10
HETATM   10  O   UNL     1     -10.508   9.060  67.819  1.00  0.00    -0.237 OA 
BRANCH  10  11
HETATM   11  P   UNL     1     -10.388   9.642  69.375  1.00  0.00    -0.240 P  
HETATM   12  O   UNL     1     -10.849   8.288  69.968  1.00  0.00    -0.247 OA 
BRANCH  11  13
HETATM   13  C   UNL     1     -12.154  10.427  69.733  1.00  0.00    -0.138 C  
BRANCH  13  14
HETATM   14  C   UNL     1     -12.607  10.206  71.180  1.00  0.00    -0.486 C  
BRANCH  14  15
HETATM   15  C   UNL     1     -12.946  11.484  71.926  1.00  0.00    -0.453 C  
BRANCH  15  16
HETATM   16  C   UNL     1     -13.155  12.621  70.912  1.00  0.00     0.057 C  
BRANCH  16  17
HETATM   17  C   UNL     1     -12.786  13.945  71.521  1.00  0.00    -0.440 A  
HETATM   18  C   UNL     1     -13.234  14.289  72.803  1.00  0.00    -0.614 A  
HETATM   19  C   UNL     1     -11.938  14.818  70.830  1.00  0.00    -0.384 A  
HETATM   20  C   UNL     1     -11.991  16.359  72.692  1.00  0.00    -0.595 A  
HETATM   21  C   UNL     1     -12.840  15.501  73.382  1.00  0.00    -0.660 A  
HETATM   22  C   UNL     1     -11.541  16.019  71.419  1.00  0.00    -0.520 A  
ENDBRANCH  16  17
ENDBRANCH  15  16
ENDBRANCH  14  15
ENDBRANCH  13  14
ENDBRANCH  11  13
BRANCH  11  23
HETATM   23  C   UNL     1      -9.843  11.242  68.674  1.00  0.00    -0.202 C  
BRANCH  23  24
HETATM   24  C   UNL     1     -10.946  12.016  67.929  1.00  0.00    -0.220 C  
HETATM   25  C   UNL     1     -11.910  14.092  66.909  1.00  0.00    -0.431 C  
HETATM   26  O   UNL     1     -12.038  11.472  67.717  1.00  0.00    -0.626 OA 
HETATM   27  N   UNL     1     -10.775  13.287  67.428  1.00  0.00    -0.256 N  
HETATM   28  C   UNL     1     -12.544  13.706  65.544  1.00  0.00    -0.496 C  
HETATM   29  O   UNL     1     -13.080  14.509  64.788  1.00  0.00    -0.485 OA 
HETATM   30  C   UNL     1      -9.534  13.947  67.073  1.00  0.00    -0.254 C  
HETATM   31  C   UNL     1      -9.839  15.456  67.082  1.00  0.00    -0.221 C  
HETATM   32  O   UNL     1     -12.588  12.380  65.294  1.00  0.00    -0.636 OA 
HETATM   33  C   UNL     1     -11.358  15.528  66.819  1.00  0.00    -0.054 C  
BRANCH  31  34
HETATM   34  C   UNL     1      -9.440  16.231  68.376  1.00  0.00    -0.216 C  
HETATM   35  C   UNL     1      -7.603  17.649  67.348  1.00  0.00    -0.213 C  
HETATM   36  C   UNL     1      -8.421  18.926  67.504  1.00  0.00    -0.296 C  
HETATM   37  C   UNL     1      -9.920  18.661  67.626  1.00  0.00    -0.375 C  
HETATM   38  C   UNL     1      -7.960  16.644  68.437  1.00  0.00    -0.205 C  
HETATM   39  C   UNL     1     -10.275  17.519  68.586  1.00  0.00    -0.373 C  
ENDBRANCH  31  34
ENDBRANCH  23  24
ENDBRANCH  11  23
ENDBRANCH  10  11
ENDBRANCH   6  10
ENDBRANCH   5   6
ENDBRANCH   3   5
ENDBRANCH   2   3
TORSDOF 13
ENDMDL
MODEL       36
REMARK 921   NORMALIZED FREE ENERGY PREDICTED BY IDOCK:   -6.01 KCAL/MOL
REMARK 922        TOTAL FREE ENERGY PREDICTED BY IDOCK:  -13.04 KCAL/MOL
REMARK 923 INTER-LIGAND FREE ENERGY PREDICTED BY IDOCK:  -11.26 KCAL/MOL
REMARK 924 INTRA-LIGAND FREE ENERGY PREDICTED BY IDOCK:   -1.77 KCAL/MOL
REMARK 927      BINDING AFFINITY PREDICTED BY RF-SCORE:    0.00 PKD
ROOT
HETATM    1  C   UNL     1      -7.842   7.434  64.493  1.00  0.00    -0.129 C  
HETATM    2  C   UNL     1      -8.475   8.495  65.375  1.00  0.00    -0.190 C  
ENDROOT
BRANCH   2   3
HETATM    3  C   UNL     1      -8.420   9.944  64.900  1.00  0.00    -0.161 C  
HETATM    4  O   UNL     1      -8.093  10.250  63.758  1.00  0.00    -0.157 OA 
BRANCH   3   5
HETATM    5  O   UNL     1      -8.876  10.819  65.830  1.00  0.00    -0.177 OA 
BRANCH   5   6
HETATM    6  C   UNL     1     -10.320  10.913  66.043  1.00  0.00    -0.245 C  
HETATM    7  C   UNL     1     -10.742  12.396  65.733  1.00  0.00    -0.301 C  
HETATM    8  C   UNL     1     -12.231  12.673  65.930  1.00  0.00    -0.375 C  
HETATM    9  C   UNL     1     -10.333  12.854  64.331  1.00  0.00    -0.393 C  
BRANCH   6  10
HETATM   10  O   UNL     1     -10.796  10.491  67.357  1.00  0.00    -0.266 OA 
BRANCH  10  11
HETATM   11  P   UNL     1     -10.273  11.357  68.680  1.00  0.00    -0.171 P  
HETATM   12  O   UNL     1      -8.800  11.279  68.208  1.00  0.00    -0.145 OA 
BRANCH  11  13
HETATM   13  C   UNL     1      -9.932   9.987  70.048  1.00  0.00    -0.222 C  
BRANCH  13  14
HETATM   14  C   UNL     1     -11.057   8.949  70.124  1.00  0.00    -0.217 C  
BRANCH  14  15
HETATM   15  C   UNL     1     -10.571   7.521  70.297  1.00  0.00    -0.235 C  
BRANCH  15  16
HETATM   16  C   UNL     1     -11.467   6.579  69.477  1.00  0.00    -0.384 C  
BRANCH  16  17
HETATM   17  C   UNL     1     -10.639   5.754  68.531  1.00  0.00    -0.299 A  
HETATM   18  C   UNL     1      -9.683   4.855  69.020  1.00  0.00    -0.245 A  
HETATM   19  C   UNL     1     -10.864   5.838  67.152  1.00  0.00    -0.308 A  
HETATM   20  C   UNL     1      -9.191   4.137  66.765  1.00  0.00    -0.169 A  
HETATM   21  C   UNL     1      -8.956   4.053  68.132  1.00  0.00    -0.156 A  
HETATM   22  C   UNL     1     -10.143   5.027  66.276  1.00  0.00    -0.275 A  
ENDBRANCH  16  17
ENDBRANCH  15  16
ENDBRANCH  14  15
ENDBRANCH  13  14
ENDBRANCH  11  13
BRANCH  11  23
HETATM   23  C   UNL     1     -12.013  11.450  69.238  1.00  0.00    -0.332 C  
BRANCH  23  24
HETATM   24  C   UNL     1     -12.242  12.375  70.448  1.00  0.00    -0.287 C  
HETATM   25  C   UNL     1     -12.145  14.597  71.602  1.00  0.00    -0.335 C  
HETATM   26  O   UNL     1     -12.585  11.888  71.533  1.00  0.00    -0.291 OA 
HETATM   27  N   UNL     1     -12.135  13.747  70.385  1.00  0.00    -0.342 N  
HETATM   28  C   UNL     1     -13.483  14.797  72.368  1.00  0.00    -0.428 C  
HETATM   29  O   UNL     1     -13.754  15.802  73.017  1.00  0.00    -0.570 OA 
HETATM   30  C   UNL     1     -12.259  14.599  69.219  1.00  0.00    -0.212 C  
HETATM   31  C   UNL     1     -11.553  15.918  69.582  1.00  0.00    -0.339 C  
HETATM   32  O   UNL     1     -14.294  13.718  72.386  1.00  0.00    -0.664 OA 
HETATM   33  C   UNL     1     -11.630  15.968  71.123  1.00  0.00    -0.492 C  
BRANCH  31  34
HETATM   34  C   UNL     1     -10.087  16.076  69.073  1.00  0.00    -0.239 C  
HETATM   35  C   UNL     1     -10.606  16.062  66.588  1.00  0.00    -0.297 C  
HETATM   36  C   UNL     1     -10.224  17.531  66.441  1.00  0.00    -0.354 C  
HETATM   37  C   UNL     1     -10.289  18.298  67.761  1.00  0.00    -0.419 C  
HETATM   38  C   UNL     1      -9.812  15.410  67.714  1.00  0.00    -0.220 C  
HETATM   39  C   UNL     1      -9.652  17.557  68.943  1.00  0.00    -0.224 C  
ENDBRANCH  31  34
ENDBRANCH  23  24
ENDBRANCH  11  23
ENDBRANCH  10  11
ENDBRANCH   6  10
ENDBRANCH   5   6
ENDBRANCH   3   5
ENDBRANCH   2   3
TORSDOF 13
ENDMDL
MODEL       37
REMARK 921   NORMALIZED FREE ENERGY PREDICTED BY IDOCK:   -6.00 KCAL/MOL
REMARK 922        TOTAL FREE ENERGY PREDICTED BY IDOCK:  -13.02 KCAL/MOL
REMARK 923 INTER-LIGAND FREE ENERGY PREDICTED BY IDOCK:  -10.67 KCAL/MOL
REMARK 924 INTRA-LIGAND FREE ENERGY PREDICTED BY IDOCK:   -2.35 KCAL/MOL
REMARK 927      BINDING AFFINITY PREDICTED BY RF-SCORE:    0.00 PKD
ROOT
HETATM    1  C   UNL     1     -11.575  12.161  63.200  1.00  0.00    -0.275 C  
HETATM    2  C   UNL     1     -11.386  12.320  64.697  1.00  0.00    -0.375 C  
ENDROOT
BRANCH   2   3
HETATM    3  C   UNL     1     -10.031  11.940  65.290  1.00  0.00    -0.251 C  
HETATM    4  O   UNL     1      -9.299  11.102  64.774  1.00  0.00    -0.216 OA 
BRANCH   3   5
HETATM    5  O   UNL     1      -9.694  12.704  66.358  1.00  0.00    -0.249 OA 
BRANCH   5   6
HETATM    6  C   UNL     1      -9.102  12.046  67.522  1.00  0.00    -0.177 C  
HETATM    7  C   UNL     1      -7.552  12.308  67.468  1.00  0.00    -0.155 C  
HETATM    8  C   UNL     1      -6.772  11.663  68.612  1.00  0.00    -0.074 C  
HETATM    9  C   UNL     1      -7.198  13.795  67.403  1.00  0.00    -0.107 C  
BRANCH   6  10
HETATM   10  O   UNL     1      -9.393  10.622  67.661  1.00  0.00    -0.145 OA 
BRANCH  10  11
HETATM   11  P   UNL     1     -10.107  10.118  69.080  1.00  0.00    -0.241 P  
HETATM   12  O   UNL     1      -8.889   9.229  69.432  1.00  0.00    -0.137 OA 
BRANCH  11  13
HETATM   13  C   UNL     1     -11.145   8.532  68.560  1.00  0.00     0.353 C  
BRANCH  13  14
HETATM   14  C   UNL     1     -10.355   7.233  68.745  1.00  0.00    -0.209 C  
BRANCH  14  15
HETATM   15  C   UNL     1     -11.131   6.127  69.438  1.00  0.00    -0.479 C  
BRANCH  15  16
HETATM   16  C   UNL     1     -10.974   6.276  70.960  1.00  0.00    -0.340 C  
BRANCH  16  17
HETATM   17  C   UNL     1     -12.054   7.160  71.517  1.00  0.00    -0.377 A  
HETATM   18  C   UNL     1     -11.730   8.362  72.160  1.00  0.00    -0.442 A  
HETATM   19  C   UNL     1     -13.399   6.814  71.341  1.00  0.00    -0.150 A  
HETATM   20  C   UNL     1     -14.080   8.856  72.442  1.00  0.00    -0.493 A  
HETATM   21  C   UNL     1     -12.747   9.204  72.628  1.00  0.00    -0.254 A  
HETATM   22  C   UNL     1     -14.405   7.664  71.800  1.00  0.00    -0.586 A  
ENDBRANCH  16  17
ENDBRANCH  15  16
ENDBRANCH  14  15
ENDBRANCH  13  14
ENDBRANCH  11  13
BRANCH  11  23
HETATM   23  C   UNL     1     -11.546  11.169  68.664  1.00  0.00    -0.315 C  
BRANCH  23  24
HETATM   24  C   UNL     1     -11.892  12.222  69.734  1.00  0.00    -0.318 C  
HETATM   25  C   UNL     1     -12.033  14.578  70.578  1.00  0.00    -0.318 C  
HETATM   26  O   UNL     1     -12.217  11.854  70.871  1.00  0.00    -0.357 OA 
HETATM   27  N   UNL     1     -11.911  13.577  69.487  1.00  0.00    -0.330 N  
HETATM   28  C   UNL     1     -13.403  14.750  71.290  1.00  0.00    -0.399 C  
HETATM   29  O   UNL     1     -13.785  15.802  71.792  1.00  0.00    -0.435 OA 
HETATM   30  C   UNL     1     -12.082  14.250  68.215  1.00  0.00    -0.243 C  
HETATM   31  C   UNL     1     -11.512  15.667  68.405  1.00  0.00    -0.374 C  
HETATM   32  O   UNL     1     -14.111  13.610  71.443  1.00  0.00    -0.060 OA 
HETATM   33  C   UNL     1     -11.635  15.915  69.924  1.00  0.00    -0.337 C  
BRANCH  31  34
HETATM   34  C   UNL     1     -10.053  15.894  67.900  1.00  0.00    -0.235 C  
HETATM   35  C   UNL     1     -10.627  17.366  65.912  1.00  0.00    -0.201 C  
HETATM   36  C   UNL     1      -9.999  18.592  66.565  1.00  0.00    -0.408 C  
HETATM   37  C   UNL     1      -9.897  18.472  68.085  1.00  0.00    -0.376 C  
HETATM   38  C   UNL     1      -9.932  16.092  66.379  1.00  0.00    -0.315 C  
HETATM   39  C   UNL     1      -9.370  17.115  68.568  1.00  0.00    -0.274 C  
ENDBRANCH  31  34
ENDBRANCH  23  24
ENDBRANCH  11  23
ENDBRANCH  10  11
ENDBRANCH   6  10
ENDBRANCH   5   6
ENDBRANCH   3   5
ENDBRANCH   2   3
TORSDOF 13
ENDMDL
MODEL       38
REMARK 921   NORMALIZED FREE ENERGY PREDICTED BY IDOCK:   -5.99 KCAL/MOL
REMARK 922        TOTAL FREE ENERGY PREDICTED BY IDOCK:  -13.01 KCAL/MOL
REMARK 923 INTER-LIGAND FREE ENERGY PREDICTED BY IDOCK:  -11.10 KCAL/MOL
REMARK 924 INTRA-LIGAND FREE ENERGY PREDICTED BY IDOCK:   -1.92 KCAL/MOL
REMARK 927      BINDING AFFINITY PREDICTED BY RF-SCORE:    0.00 PKD
ROOT
HETATM    1  C   UNL     1      -5.757   7.838  71.730  1.00  0.00    -0.035 C  
HETATM    2  C   UNL     1      -6.082   6.881  70.598  1.00  0.00    -0.028 C  
ENDROOT
BRANCH   2   3
HETATM    3  C   UNL     1      -7.551   6.553  70.342  1.00  0.00    -0.096 C  
HETATM    4  O   UNL     1      -8.188   5.786  71.056  1.00  0.00    -0.117 OA 
BRANCH   3   5
HETATM    5  O   UNL     1      -8.081   7.282  69.329  1.00  0.00    -0.120 OA 
BRANCH   5   6
HETATM    6  C   UNL     1      -9.472   7.035  68.952  1.00  0.00    -0.137 C  
HETATM    7  C   UNL     1      -9.471   6.549  67.457  1.00  0.00    -0.131 C  
HETATM    8  C   UNL     1     -10.863   6.265  66.894  1.00  0.00    -0.428 C  
HETATM    9  C   UNL     1      -8.584   5.324  67.225  1.00  0.00    -0.105 C  
BRANCH   6  10
HETATM   10  O   UNL     1     -10.390   8.155  69.144  1.00  0.00    -0.215 OA 
BRANCH  10  11
HETATM   11  P   UNL     1      -9.771   9.550  69.813  1.00  0.00    -0.243 P  
HETATM   12  O   UNL     1      -9.974   9.008  71.249  1.00  0.00    -0.260 OA 
BRANCH  11  13
HETATM   13  C   UNL     1     -11.336  10.723  70.009  1.00  0.00    -0.319 C  
BRANCH  13  14
HETATM   14  C   UNL     1     -12.180  10.368  71.238  1.00  0.00    -0.491 C  
BRANCH  14  15
HETATM   15  C   UNL     1     -13.143  11.460  71.667  1.00  0.00    -0.498 C  
BRANCH  15  16
HETATM   16  C   UNL     1     -13.023  12.649  70.699  1.00  0.00     0.121 C  
BRANCH  16  17
HETATM   17  C   UNL     1     -12.675  13.905  71.448  1.00  0.00    -0.445 A  
HETATM   18  C   UNL     1     -12.077  14.986  70.787  1.00  0.00    -0.377 A  
HETATM   19  C   UNL     1     -13.005  14.023  72.803  1.00  0.00    -0.473 A  
HETATM   20  C   UNL     1     -12.145  16.282  72.826  1.00  0.00    -0.637 A  
HETATM   21  C   UNL     1     -11.807  16.171  71.482  1.00  0.00    -0.528 A  
HETATM   22  C   UNL     1     -12.743  15.212  73.484  1.00  0.00    -0.678 A  
ENDBRANCH  16  17
ENDBRANCH  15  16
ENDBRANCH  14  15
ENDBRANCH  13  14
ENDBRANCH  11  13
BRANCH  11  23
HETATM   23  C   UNL     1      -9.532  10.190  68.116  1.00  0.00    -0.142 C  
BRANCH  23  24
HETATM   24  C   UNL     1     -10.671  11.097  67.615  1.00  0.00    -0.230 C  
HETATM   25  C   UNL     1     -11.669  13.336  67.089  1.00  0.00    -0.376 C  
HETATM   26  O   UNL     1     -11.783  10.608  67.377  1.00  0.00    -0.391 OA 
HETATM   27  N   UNL     1     -10.514  12.442  67.360  1.00  0.00    -0.214 N  
HETATM   28  C   UNL     1     -12.400  13.225  65.723  1.00  0.00    -0.447 C  
HETATM   29  O   UNL     1     -12.973  14.162  65.177  1.00  0.00    -0.729 OA 
HETATM   30  C   UNL     1      -9.290  13.156  67.055  1.00  0.00    -0.238 C  
HETATM   31  C   UNL     1      -9.569  14.635  67.379  1.00  0.00    -0.215 C  
HETATM   32  O   UNL     1     -12.482  11.974  65.221  1.00  0.00    -0.427 OA 
HETATM   33  C   UNL     1     -11.102  14.760  67.243  1.00  0.00    -0.334 C  
BRANCH  31  34
HETATM   34  C   UNL     1      -9.071  15.140  68.768  1.00  0.00    -0.200 C  
HETATM   35  C   UNL     1      -6.612  15.349  68.171  1.00  0.00    -0.141 C  
HETATM   36  C   UNL     1      -6.661  16.870  68.258  1.00  0.00    -0.159 C  
HETATM   37  C   UNL     1      -8.072  17.431  68.096  1.00  0.00    -0.232 C  
HETATM   38  C   UNL     1      -7.632  14.723  69.116  1.00  0.00    -0.151 C  
HETATM   39  C   UNL     1      -9.137  16.682  68.905  1.00  0.00    -0.238 C  
ENDBRANCH  31  34
ENDBRANCH  23  24
ENDBRANCH  11  23
ENDBRANCH  10  11
ENDBRANCH   6  10
ENDBRANCH   5   6
ENDBRANCH   3   5
ENDBRANCH   2   3
TORSDOF 13
ENDMDL
MODEL       39
REMARK 921   NORMALIZED FREE ENERGY PREDICTED BY IDOCK:   -5.99 KCAL/MOL
REMARK 922        TOTAL FREE ENERGY PREDICTED BY IDOCK:  -13.00 KCAL/MOL
REMARK 923 INTER-LIGAND FREE ENERGY PREDICTED BY IDOCK:  -10.67 KCAL/MOL
REMARK 924 INTRA-LIGAND FREE ENERGY PREDICTED BY IDOCK:   -2.34 KCAL/MOL
REMARK 927      BINDING AFFINITY PREDICTED BY RF-SCORE:    0.00 PKD
ROOT
HETATM    1  C   UNL     1      -9.486   5.898  66.560  1.00  0.00    -0.171 C  
HETATM    2  C   UNL     1      -9.771   4.718  67.472  1.00  0.00    -0.209 C  
ENDROOT
BRANCH   2   3
HETATM    3  C   UNL     1      -9.304   4.810  68.923  1.00  0.00    -0.135 C  
HETATM    4  O   UNL     1      -8.164   5.144  69.228  1.00  0.00    -0.083 OA 
BRANCH   3   5
HETATM    5  O   UNL     1     -10.308   4.597  69.810  1.00  0.00    -0.182 OA 
BRANCH   5   6
HETATM    6  C   UNL     1     -10.304   5.361  71.057  1.00  0.00    -0.236 C  
HETATM    7  C   UNL     1     -10.259   4.325  72.239  1.00  0.00    -0.244 C  
HETATM    8  C   UNL     1     -10.272   4.964  73.627  1.00  0.00    -0.228 C  
HETATM    9  C   UNL     1      -9.074   3.362  72.147  1.00  0.00    -0.149 C  
BRANCH   6  10
HETATM   10  O   UNL     1     -11.402   6.309  71.224  1.00  0.00    -0.286 OA 
BRANCH  10  11
HETATM   11  P   UNL     1     -11.009   7.914  71.435  1.00  0.00    -0.244 P  
HETATM   12  O   UNL     1     -11.428   7.870  72.924  1.00  0.00    -0.403 OA 
BRANCH  11  13
HETATM   13  C   UNL     1     -12.659   8.878  70.973  1.00  0.00    -0.101 C  
BRANCH  13  14
HETATM   14  C   UNL     1     -12.969  10.007  71.961  1.00  0.00    -0.514 C  
BRANCH  14  15
HETATM   15  C   UNL     1     -12.883  11.399  71.360  1.00  0.00    -0.502 C  
BRANCH  15  16
HETATM   16  C   UNL     1     -13.532  12.407  72.323  1.00  0.00    -0.428 C  
BRANCH  16  17
HETATM   17  C   UNL     1     -12.874  13.752  72.199  1.00  0.00    -0.367 A  
HETATM   18  C   UNL     1     -12.268  14.142  70.998  1.00  0.00    -0.432 A  
HETATM   19  C   UNL     1     -12.919  14.651  73.271  1.00  0.00    -0.569 A  
HETATM   20  C   UNL     1     -11.762  16.308  71.944  1.00  0.00    -0.518 A  
HETATM   21  C   UNL     1     -11.706  15.418  70.877  1.00  0.00    -0.395 A  
HETATM   22  C   UNL     1     -12.367  15.925  73.138  1.00  0.00    -0.619 A  
ENDBRANCH  16  17
ENDBRANCH  15  16
ENDBRANCH  14  15
ENDBRANCH  13  14
ENDBRANCH  11  13
BRANCH  11  23
HETATM   23  C   UNL     1     -10.513   7.965  69.674  1.00  0.00    -0.226 C  
BRANCH  23  24
HETATM   24  C   UNL     1      -9.183   8.697  69.412  1.00  0.00    -0.150 C  
HETATM   25  C   UNL     1      -7.830  10.600  68.500  1.00  0.00    -0.115 C  
HETATM   26  O   UNL     1      -8.113   8.130  69.665  1.00  0.00    -0.113 OA 
HETATM   27  N   UNL     1      -9.109   9.993  68.950  1.00  0.00    -0.150 N  
HETATM   28  C   UNL     1      -6.765  10.983  69.565  1.00  0.00    -0.126 C  
HETATM   29  O   UNL     1      -5.960  11.897  69.427  1.00  0.00    -0.067 OA 
HETATM   30  C   UNL     1     -10.110  11.036  69.053  1.00  0.00    -0.180 C  
HETATM   31  C   UNL     1      -9.765  12.064  67.960  1.00  0.00    -0.198 C  
HETATM   32  O   UNL     1      -6.690  10.145  70.621  1.00  0.00    -0.249 OA 
HETATM   33  C   UNL     1      -8.251  11.866  67.731  1.00  0.00    -0.148 C  
BRANCH  31  34
HETATM   34  C   UNL     1     -10.570  11.947  66.628  1.00  0.00    -0.273 C  
HETATM   35  C   UNL     1     -12.116  13.924  67.013  1.00  0.00    -0.451 C  
HETATM   36  C   UNL     1     -11.460  14.728  65.896  1.00  0.00    -0.319 C  
HETATM   37  C   UNL     1     -10.046  14.251  65.569  1.00  0.00    -0.370 C  
HETATM   38  C   UNL     1     -12.027  12.430  66.723  1.00  0.00    -0.282 C  
HETATM   39  C   UNL     1      -9.914  12.727  65.460  1.00  0.00    -0.234 C  
ENDBRANCH  31  34
ENDBRANCH  23  24
ENDBRANCH  11  23
ENDBRANCH  10  11
ENDBRANCH   6  10
ENDBRANCH   5   6
ENDBRANCH   3   5
ENDBRANCH   2   3
TORSDOF 13
ENDMDL
MODEL       40
REMARK 921   NORMALIZED FREE ENERGY PREDICTED BY IDOCK:   -5.98 KCAL/MOL
REMARK 922        TOTAL FREE ENERGY PREDICTED BY IDOCK:  -13.00 KCAL/MOL
REMARK 923 INTER-LIGAND FREE ENERGY PREDICTED BY IDOCK:  -10.76 KCAL/MOL
REMARK 924 INTRA-LIGAND FREE ENERGY PREDICTED BY IDOCK:   -2.24 KCAL/MOL
REMARK 927      BINDING AFFINITY PREDICTED BY RF-SCORE:    0.00 PKD
ROOT
HETATM    1  C   UNL     1      -9.794  11.927  63.249  1.00  0.00    -0.354 C  
HETATM    2  C   UNL     1      -9.750  10.410  63.243  1.00  0.00    -0.308 C  
ENDROOT
BRANCH   2   3
HETATM    3  C   UNL     1      -8.937   9.716  64.333  1.00  0.00    -0.234 C  
HETATM    4  O   UNL     1      -7.711   9.670  64.311  1.00  0.00    -0.117 OA 
BRANCH   3   5
HETATM    5  O   UNL     1      -9.706   9.271  65.357  1.00  0.00    -0.251 OA 
BRANCH   5   6
HETATM    6  C   UNL     1      -9.039   8.793  66.568  1.00  0.00    -0.162 C  
HETATM    7  C   UNL     1      -9.325   7.252  66.681  1.00  0.00    -0.215 C  
HETATM    8  C   UNL     1      -8.711   6.594  67.916  1.00  0.00    -0.116 C  
HETATM    9  C   UNL     1      -8.896   6.470  65.438  1.00  0.00     0.050 C  
BRANCH   6  10
HETATM   10  O   UNL     1      -9.390   9.489  67.802  1.00  0.00    -0.128 OA 
BRANCH  10  11
HETATM   11  P   UNL     1      -8.413  10.752  68.279  1.00  0.00    -0.143 P  
HETATM   12  O   UNL     1      -7.196  10.154  67.532  1.00  0.00    -0.087 OA 
BRANCH  11  13
HETATM   13  C   UNL     1      -7.674  10.163  70.003  1.00  0.00    -0.136 C  
BRANCH  13  14
HETATM   14  C   UNL     1      -8.136   8.752  70.383  1.00  0.00    -0.118 C  
BRANCH  14  15
HETATM   15  C   UNL     1      -9.190   8.717  71.475  1.00  0.00    -0.332 C  
BRANCH  15  16
HETATM   16  C   UNL     1     -10.140   7.535  71.224  1.00  0.00    -0.197 C  
BRANCH  16  17
HETATM   17  C   UNL     1     -11.570   7.957  71.413  1.00  0.00    -0.304 A  
HETATM   18  C   UNL     1     -12.611   7.030  71.278  1.00  0.00    -0.418 A  
HETATM   19  C   UNL     1     -11.864   9.274  71.787  1.00  0.00    -0.454 A  
HETATM   20  C   UNL     1     -14.217   8.729  71.888  1.00  0.00    -0.467 A  
HETATM   21  C   UNL     1     -13.934   7.422  71.509  1.00  0.00    -0.517 A  
HETATM   22  C   UNL     1     -13.185   9.652  72.027  1.00  0.00    -0.546 A  
ENDBRANCH  16  17
ENDBRANCH  15  16
ENDBRANCH  14  15
ENDBRANCH  13  14
ENDBRANCH  11  13
BRANCH  11  23
HETATM   23  C   UNL     1      -9.852  11.458  69.162  1.00  0.00     0.057 C  
BRANCH  23  24
HETATM   24  C   UNL     1     -10.939  12.038  68.239  1.00  0.00    -0.234 C  
HETATM   25  C   UNL     1     -11.967  13.890  66.898  1.00  0.00    -0.433 C  
HETATM   26  O   UNL     1     -11.958  11.376  68.002  1.00  0.00    -0.613 OA 
HETATM   27  N   UNL     1     -10.825  13.256  67.604  1.00  0.00    -0.254 N  
HETATM   28  C   UNL     1     -12.435  13.295  65.541  1.00  0.00    -0.474 C  
HETATM   29  O   UNL     1     -12.961  13.956  64.651  1.00  0.00    -0.654 OA 
HETATM   30  C   UNL     1      -9.614  13.983  67.279  1.00  0.00    -0.238 C  
HETATM   31  C   UNL     1     -10.039  15.449  67.080  1.00  0.00    -0.249 C  
HETATM   32  O   UNL     1     -12.347  11.951  65.449  1.00  0.00    -0.352 OA 
HETATM   33  C   UNL     1     -11.528  15.351  66.683  1.00  0.00    -0.019 C  
BRANCH  31  34
HETATM   34  C   UNL     1      -9.829  16.397  68.301  1.00  0.00    -0.229 C  
HETATM   35  C   UNL     1      -7.932  17.769  67.319  1.00  0.00    -0.223 C  
HETATM   36  C   UNL     1      -8.808  19.012  67.213  1.00  0.00    -0.302 C  
HETATM   37  C   UNL     1     -10.301  18.688  67.192  1.00  0.00    -0.442 C  
HETATM   38  C   UNL     1      -8.383  16.890  68.480  1.00  0.00    -0.257 C  
HETATM   39  C   UNL     1     -10.729  17.657  68.244  1.00  0.00    -0.285 C  
ENDBRANCH  31  34
ENDBRANCH  23  24
ENDBRANCH  11  23
ENDBRANCH  10  11
ENDBRANCH   6  10
ENDBRANCH   5   6
ENDBRANCH   3   5
ENDBRANCH   2   3
TORSDOF 13
ENDMDL
MODEL       41
REMARK 921   NORMALIZED FREE ENERGY PREDICTED BY IDOCK:   -5.95 KCAL/MOL
REMARK 922        TOTAL FREE ENERGY PREDICTED BY IDOCK:  -12.94 KCAL/MOL
REMARK 923 INTER-LIGAND FREE ENERGY PREDICTED BY IDOCK:  -10.92 KCAL/MOL
REMARK 924 INTRA-LIGAND FREE ENERGY PREDICTED BY IDOCK:   -2.02 KCAL/MOL
REMARK 927      BINDING AFFINITY PREDICTED BY RF-SCORE:    0.00 PKD
ROOT
HETATM    1  C   UNL     1      -5.860  10.560  65.232  1.00  0.00    -0.133 C  
HETATM    2  C   UNL     1      -7.091   9.673  65.280  1.00  0.00    -0.109 C  
ENDROOT
BRANCH   2   3
HETATM    3  C   UNL     1      -7.867   9.601  66.592  1.00  0.00    -0.105 C  
HETATM    4  O   UNL     1      -7.359   9.879  67.673  1.00  0.00    -0.088 OA 
BRANCH   3   5
HETATM    5  O   UNL     1      -9.179   9.314  66.409  1.00  0.00    -0.158 OA 
BRANCH   5   6
HETATM    6  C   UNL     1      -9.893   8.620  67.481  1.00  0.00    -0.180 C  
HETATM    7  C   UNL     1     -10.430   7.268  66.885  1.00  0.00    -0.369 C  
HETATM    8  C   UNL     1     -11.227   6.423  67.878  1.00  0.00    -0.262 C  
HETATM    9  C   UNL     1      -9.327   6.404  66.271  1.00  0.00    -0.149 C  
BRANCH   6  10
HETATM   10  O   UNL     1     -10.963   9.378  68.124  1.00  0.00    -0.166 OA 
BRANCH  10  11
HETATM   11  P   UNL     1     -10.722   9.864  69.699  1.00  0.00    -0.282 P  
HETATM   12  O   UNL     1      -9.401   9.062  69.795  1.00  0.00    -0.159 OA 
BRANCH  11  13
HETATM   13  C   UNL     1     -11.653   8.504  70.770  1.00  0.00    -0.231 C  
BRANCH  13  14
HETATM   14  C   UNL     1     -11.292   8.587  72.258  1.00  0.00    -0.441 C  
BRANCH  14  15
HETATM   15  C   UNL     1     -10.910   7.255  72.878  1.00  0.00    -0.380 C  
BRANCH  15  16
HETATM   16  C   UNL     1     -10.343   6.332  71.788  1.00  0.00    -0.240 C  
BRANCH  16  17
HETATM   17  C   UNL     1     -10.396   4.897  72.230  1.00  0.00    -0.267 A  
HETATM   18  C   UNL     1     -11.200   4.514  73.311  1.00  0.00    -0.388 A  
HETATM   19  C   UNL     1      -9.684   3.922  71.522  1.00  0.00    -0.247 A  
HETATM   20  C   UNL     1     -10.579   2.203  72.966  1.00  0.00    -0.245 A  
HETATM   21  C   UNL     1     -11.283   3.166  73.681  1.00  0.00    -0.288 A  
HETATM   22  C   UNL     1      -9.782   2.580  71.890  1.00  0.00    -0.221 A  
ENDBRANCH  16  17
ENDBRANCH  15  16
ENDBRANCH  14  15
ENDBRANCH  13  14
ENDBRANCH  11  13
BRANCH  11  23
HETATM   23  C   UNL     1     -12.283  10.812  69.586  1.00  0.00    -0.254 C  
BRANCH  23  24
HETATM   24  C   UNL     1     -12.447  11.893  70.671  1.00  0.00    -0.257 C  
HETATM   25  C   UNL     1     -12.172  14.224  71.551  1.00  0.00    -0.301 C  
HETATM   26  O   UNL     1     -12.847  11.574  71.798  1.00  0.00    -0.399 OA 
HETATM   27  N   UNL     1     -12.219  13.233  70.446  1.00  0.00    -0.353 N  
HETATM   28  C   UNL     1     -13.497  14.630  72.254  1.00  0.00    -0.408 C  
HETATM   29  O   UNL     1     -13.688  15.726  72.770  1.00  0.00    -0.561 OA 
HETATM   30  C   UNL     1     -12.250  13.945  69.183  1.00  0.00    -0.267 C  
HETATM   31  C   UNL     1     -11.436  15.233  69.402  1.00  0.00    -0.329 C  
HETATM   32  O   UNL     1     -14.401  13.635  72.381  1.00  0.00    -0.661 OA 
HETATM   33  C   UNL     1     -11.531  15.476  70.924  1.00  0.00    -0.410 C  
BRANCH  31  34
HETATM   34  C   UNL     1      -9.954  15.200  68.915  1.00  0.00    -0.227 C  
HETATM   35  C   UNL     1     -10.437  15.130  66.423  1.00  0.00    -0.300 C  
HETATM   36  C   UNL     1      -9.890  16.538  66.219  1.00  0.00    -0.336 C  
HETATM   37  C   UNL     1      -9.886  17.368  67.501  1.00  0.00    -0.277 C  
HETATM   38  C   UNL     1      -9.737  14.445  67.593  1.00  0.00    -0.219 C  
HETATM   39  C   UNL     1      -9.353  16.616  68.727  1.00  0.00    -0.256 C  
ENDBRANCH  31  34
ENDBRANCH  23  24
ENDBRANCH  11  23
ENDBRANCH  10  11
ENDBRANCH   6  10
ENDBRANCH   5   6
ENDBRANCH   3   5
ENDBRANCH   2   3
TORSDOF 13
ENDMDL
MODEL       42
REMARK 921   NORMALIZED FREE ENERGY PREDICTED BY IDOCK:   -5.94 KCAL/MOL
REMARK 922        TOTAL FREE ENERGY PREDICTED BY IDOCK:  -12.92 KCAL/MOL
REMARK 923 INTER-LIGAND FREE ENERGY PREDICTED BY IDOCK:  -11.30 KCAL/MOL
REMARK 924 INTRA-LIGAND FREE ENERGY PREDICTED BY IDOCK:   -1.62 KCAL/MOL
REMARK 927      BINDING AFFINITY PREDICTED BY RF-SCORE:    0.00 PKD
ROOT
HETATM    1  C   UNL     1      -6.698   7.807  65.974  1.00  0.00    -0.049 C  
HETATM    2  C   UNL     1      -8.162   8.206  66.006  1.00  0.00    -0.121 C  
ENDROOT
BRANCH   2   3
HETATM    3  C   UNL     1      -8.610   9.347  65.097  1.00  0.00    -0.167 C  
HETATM    4  O   UNL     1      -8.718   9.217  63.882  1.00  0.00    -0.197 OA 
BRANCH   3   5
HETATM    5  O   UNL     1      -8.978  10.454  65.788  1.00  0.00    -0.157 OA 
BRANCH   5   6
HETATM    6  C   UNL     1     -10.403  10.680  66.028  1.00  0.00    -0.225 C  
HETATM    7  C   UNL     1     -10.685  12.203  65.761  1.00  0.00    -0.303 C  
HETATM    8  C   UNL     1     -12.138  12.616  65.990  1.00  0.00    -0.429 C  
HETATM    9  C   UNL     1     -10.255  12.657  64.364  1.00  0.00    -0.344 C  
BRANCH   6  10
HETATM   10  O   UNL     1     -10.898  10.271  67.339  1.00  0.00    -0.279 OA 
BRANCH  10  11
HETATM   11  P   UNL     1     -10.334  11.103  68.668  1.00  0.00    -0.211 P  
HETATM   12  O   UNL     1      -8.870  10.991  68.176  1.00  0.00    -0.131 OA 
BRANCH  11  13
HETATM   13  C   UNL     1     -10.014   9.703  70.011  1.00  0.00    -0.247 C  
BRANCH  13  14
HETATM   14  C   UNL     1      -9.500   8.402  69.385  1.00  0.00    -0.158 C  
BRANCH  14  15
HETATM   15  C   UNL     1     -10.554   7.318  69.255  1.00  0.00    -0.230 C  
BRANCH  15  16
HETATM   16  C   UNL     1     -11.390   7.268  70.544  1.00  0.00    -0.308 C  
BRANCH  16  17
HETATM   17  C   UNL     1     -11.018   6.067  71.368  1.00  0.00    -0.336 A  
HETATM   18  C   UNL     1     -11.469   5.942  72.688  1.00  0.00    -0.319 A  
HETATM   19  C   UNL     1     -10.266   5.035  70.796  1.00  0.00    -0.299 A  
HETATM   20  C   UNL     1     -10.420   3.770  72.850  1.00  0.00    -0.246 A  
HETATM   21  C   UNL     1     -11.162   4.794  73.428  1.00  0.00    -0.425 A  
HETATM   22  C   UNL     1      -9.974   3.890  71.537  1.00  0.00    -0.209 A  
ENDBRANCH  16  17
ENDBRANCH  15  16
ENDBRANCH  14  15
ENDBRANCH  13  14
ENDBRANCH  11  13
BRANCH  11  23
HETATM   23  C   UNL     1     -12.064  11.234  69.250  1.00  0.00    -0.303 C  
BRANCH  23  24
HETATM   24  C   UNL     1     -12.255  12.167  70.461  1.00  0.00    -0.304 C  
HETATM   25  C   UNL     1     -12.127  14.397  71.596  1.00  0.00    -0.262 C  
HETATM   26  O   UNL     1     -12.561  11.687  71.560  1.00  0.00    -0.317 OA 
HETATM   27  N   UNL     1     -12.154  13.539  70.385  1.00  0.00    -0.351 N  
HETATM   28  C   UNL     1     -13.439  14.599  72.404  1.00  0.00    -0.436 C  
HETATM   29  O   UNL     1     -13.692  15.608  73.055  1.00  0.00    -0.541 OA 
HETATM   30  C   UNL     1     -12.318  14.383  69.218  1.00  0.00    -0.153 C  
HETATM   31  C   UNL     1     -11.605  15.706  69.548  1.00  0.00    -0.366 C  
HETATM   32  O   UNL     1     -14.246  13.518  72.456  1.00  0.00    -0.734 OA 
HETATM   33  C   UNL     1     -11.631  15.766  71.091  1.00  0.00    -0.469 C  
BRANCH  31  34
HETATM   34  C   UNL     1     -10.156  15.864  68.991  1.00  0.00    -0.228 C  
HETATM   35  C   UNL     1     -10.775  16.031  66.534  1.00  0.00    -0.238 C  
HETATM   36  C   UNL     1     -10.362  17.497  66.470  1.00  0.00    -0.325 C  
HETATM   37  C   UNL     1     -10.354  18.174  67.839  1.00  0.00    -0.410 C  
HETATM   38  C   UNL     1      -9.953  15.285  67.580  1.00  0.00    -0.222 C  
HETATM   39  C   UNL     1      -9.689  17.341  68.942  1.00  0.00    -0.251 C  
ENDBRANCH  31  34
ENDBRANCH  23  24
ENDBRANCH  11  23
ENDBRANCH  10  11
ENDBRANCH   6  10
ENDBRANCH   5   6
ENDBRANCH   3   5
ENDBRANCH   2   3
TORSDOF 13
ENDMDL
MODEL       43
REMARK 921   NORMALIZED FREE ENERGY PREDICTED BY IDOCK:   -5.91 KCAL/MOL
REMARK 922        TOTAL FREE ENERGY PREDICTED BY IDOCK:  -12.87 KCAL/MOL
REMARK 923 INTER-LIGAND FREE ENERGY PREDICTED BY IDOCK:   -9.22 KCAL/MOL
REMARK 924 INTRA-LIGAND FREE ENERGY PREDICTED BY IDOCK:   -3.65 KCAL/MOL
REMARK 927      BINDING AFFINITY PREDICTED BY RF-SCORE:    0.00 PKD
ROOT
HETATM    1  C   UNL     1     -11.837  15.726  72.453  1.00  0.00    -0.606 C  
HETATM    2  C   UNL     1     -12.088  16.002  70.982  1.00  0.00    -0.372 C  
ENDROOT
BRANCH   2   3
HETATM    3  C   UNL     1     -12.055  14.819  70.019  1.00  0.00    -0.329 C  
HETATM    4  O   UNL     1     -12.254  13.666  70.386  1.00  0.00    -0.334 OA 
BRANCH   3   5
HETATM    5  O   UNL     1     -11.901  15.200  68.727  1.00  0.00    -0.330 OA 
BRANCH   5   6
HETATM    6  C   UNL     1     -10.589  15.025  68.104  1.00  0.00    -0.248 C  
HETATM    7  C   UNL     1     -10.399  16.200  67.077  1.00  0.00    -0.290 C  
HETATM    8  C   UNL     1      -9.075  16.153  66.316  1.00  0.00    -0.373 C  
HETATM    9  C   UNL     1     -10.558  17.583  67.712  1.00  0.00    -0.375 C  
BRANCH   6  10
HETATM   10  O   UNL     1     -10.353  13.728  67.475  1.00  0.00    -0.239 OA 
BRANCH  10  11
HETATM   11  P   UNL     1      -9.403  12.635  68.299  1.00  0.00    -0.110 P  
HETATM   12  O   UNL     1      -8.517  13.766  68.874  1.00  0.00    -0.030 OA 
BRANCH  11  13
HETATM   13  C   UNL     1      -7.997  12.154  67.012  1.00  0.00    -0.138 C  
BRANCH  13  14
HETATM   14  C   UNL     1      -8.365  10.918  66.183  1.00  0.00    -0.168 C  
BRANCH  14  15
HETATM   15  C   UNL     1      -7.725   9.631  66.672  1.00  0.00    -0.098 C  
BRANCH  15  16
HETATM   16  C   UNL     1      -7.927   8.533  65.615  1.00  0.00    -0.107 C  
BRANCH  16  17
HETATM   17  C   UNL     1      -8.889   7.491  66.114  1.00  0.00    -0.185 A  
HETATM   18  C   UNL     1      -8.511   6.143  66.174  1.00  0.00    -0.137 A  
HETATM   19  C   UNL     1     -10.152   7.874  66.580  1.00  0.00    -0.310 A  
HETATM   20  C   UNL     1     -10.646   5.580  67.159  1.00  0.00    -0.313 A  
HETATM   21  C   UNL     1      -9.396   5.190  66.691  1.00  0.00    -0.137 A  
HETATM   22  C   UNL     1     -11.022   6.919  67.104  1.00  0.00    -0.427 A  
ENDBRANCH  16  17
ENDBRANCH  15  16
ENDBRANCH  14  15
ENDBRANCH  13  14
ENDBRANCH  11  13
BRANCH  11  23
HETATM   23  C   UNL     1     -10.452  11.297  67.619  1.00  0.00    -0.193 C  
BRANCH  23  24
HETATM   24  C   UNL     1     -11.311  10.570  68.671  1.00  0.00    -0.252 C  
HETATM   25  C   UNL     1     -11.652   8.865  70.475  1.00  0.00    -0.160 C  
HETATM   26  O   UNL     1     -12.529  10.782  68.718  1.00  0.00    -0.366 OA 
HETATM   27  N   UNL     1     -10.789   9.717  69.618  1.00  0.00    -0.238 N  
HETATM   28  C   UNL     1     -12.471   9.531  71.615  1.00  0.00    -0.391 C  
HETATM   29  O   UNL     1     -12.783   8.961  72.655  1.00  0.00    -0.369 OA 
HETATM   30  C   UNL     1      -9.433   9.672  70.129  1.00  0.00    -0.253 C  
HETATM   31  C   UNL     1      -9.253   8.265  70.728  1.00  0.00    -0.174 C  
HETATM   32  O   UNL     1     -12.942  10.764  71.331  1.00  0.00    -0.390 OA 
HETATM   33  C   UNL     1     -10.689   7.828  71.086  1.00  0.00    -0.245 C  
BRANCH  31  34
HETATM   34  C   UNL     1      -8.541   7.217  69.818  1.00  0.00    -0.141 C  
HETATM   35  C   UNL     1      -6.226   7.424  70.839  1.00  0.00    -0.035 C  
HETATM   36  C   UNL     1      -6.303   6.025  71.440  1.00  0.00    -0.048 C  
HETATM   37  C   UNL     1      -7.737   5.525  71.605  1.00  0.00    -0.107 C  
HETATM   38  C   UNL     1      -7.053   7.506  69.561  1.00  0.00    -0.069 C  
HETATM   39  C   UNL     1      -8.628   5.776  70.382  1.00  0.00    -0.133 C  
ENDBRANCH  31  34
ENDBRANCH  23  24
ENDBRANCH  11  23
ENDBRANCH  10  11
ENDBRANCH   6  10
ENDBRANCH   5   6
ENDBRANCH   3   5
ENDBRANCH   2   3
TORSDOF 13
ENDMDL
MODEL       44
REMARK 921   NORMALIZED FREE ENERGY PREDICTED BY IDOCK:   -5.91 KCAL/MOL
REMARK 922        TOTAL FREE ENERGY PREDICTED BY IDOCK:  -12.86 KCAL/MOL
REMARK 923 INTER-LIGAND FREE ENERGY PREDICTED BY IDOCK:   -9.97 KCAL/MOL
REMARK 924 INTRA-LIGAND FREE ENERGY PREDICTED BY IDOCK:   -2.89 KCAL/MOL
REMARK 927      BINDING AFFINITY PREDICTED BY RF-SCORE:    0.00 PKD
ROOT
HETATM    1  C   UNL     1     -12.181  13.719  69.913  1.00  0.00    -0.383 C  
HETATM    2  C   UNL     1     -12.282  12.357  70.576  1.00  0.00    -0.382 C  
ENDROOT
BRANCH   2   3
HETATM    3  C   UNL     1     -12.236  11.122  69.680  1.00  0.00    -0.290 C  
HETATM    4  O   UNL     1     -12.182  11.198  68.457  1.00  0.00    -0.600 OA 
BRANCH   3   5
HETATM    5  O   UNL     1     -12.147   9.967  70.384  1.00  0.00    -0.258 OA 
BRANCH   5   6
HETATM    6  C   UNL     1     -10.828   9.358  70.551  1.00  0.00    -0.277 C  
HETATM    7  C   UNL     1     -10.718   8.885  72.046  1.00  0.00    -0.389 C  
HETATM    8  C   UNL     1      -9.378   8.239  72.397  1.00  0.00    -0.338 C  
HETATM    9  C   UNL     1     -11.847   7.940  72.460  1.00  0.00    -0.390 C  
BRANCH   6  10
HETATM   10  O   UNL     1      -9.691  10.194  70.175  1.00  0.00    -0.190 OA 
BRANCH  10  11
HETATM   11  P   UNL     1      -8.554   9.532  69.152  1.00  0.00    -0.160 P  
HETATM   12  O   UNL     1      -7.433  10.416  69.748  1.00  0.00    -0.150 OA 
BRANCH  11  13
HETATM   13  C   UNL     1      -8.630  10.668  67.549  1.00  0.00    -0.122 C  
BRANCH  13  14
HETATM   14  C   UNL     1      -8.213  12.114  67.840  1.00  0.00    -0.155 C  
BRANCH  14  15
HETATM   15  C   UNL     1      -9.372  13.093  67.908  1.00  0.00    -0.215 C  
BRANCH  15  16
HETATM   16  C   UNL     1      -9.413  13.918  66.611  1.00  0.00    -0.296 C  
BRANCH  16  17
HETATM   17  C   UNL     1     -10.454  13.376  65.673  1.00  0.00    -0.293 A  
HETATM   18  C   UNL     1     -10.079  12.696  64.508  1.00  0.00    -0.271 A  
HETATM   19  C   UNL     1     -11.811  13.496  65.994  1.00  0.00    -0.414 A  
HETATM   20  C   UNL     1     -12.403  12.266  63.999  1.00  0.00    -0.569 A  
HETATM   21  C   UNL     1     -11.057  12.149  63.669  1.00  0.00    -0.528 A  
HETATM   22  C   UNL     1     -12.779  12.938  65.159  1.00  0.00    -0.443 A  
ENDBRANCH  16  17
ENDBRANCH  15  16
ENDBRANCH  14  15
ENDBRANCH  13  14
ENDBRANCH  11  13
BRANCH  11  23
HETATM   23  C   UNL     1      -9.880   8.487  68.446  1.00  0.00    -0.173 C  
BRANCH  23  24
HETATM   24  C   UNL     1      -9.393   7.136  67.889  1.00  0.00    -0.128 C  
HETATM   25  C   UNL     1      -8.891   4.690  68.103  1.00  0.00    -0.106 C  
HETATM   26  O   UNL     1      -8.865   7.090  66.771  1.00  0.00    -0.117 OA 
HETATM   27  N   UNL     1      -9.556   5.939  68.552  1.00  0.00    -0.120 N  
HETATM   28  C   UNL     1      -9.411   3.981  66.821  1.00  0.00    -0.183 C  
HETATM   29  O   UNL     1      -9.335   2.772  66.631  1.00  0.00    -0.127 OA 
HETATM   30  C   UNL     1     -10.536   5.607  69.567  1.00  0.00    -0.314 C  
HETATM   31  C   UNL     1      -9.969   4.393  70.324  1.00  0.00    -0.248 C  
HETATM   32  O   UNL     1      -9.843   4.811  65.848  1.00  0.00    -0.178 OA 
HETATM   33  C   UNL     1      -9.024   3.728  69.299  1.00  0.00    -0.172 C  
BRANCH  31  34
HETATM   34  C   UNL     1      -9.238   4.699  71.667  1.00  0.00    -0.183 C  
HETATM   35  C   UNL     1     -10.896   3.546  73.205  1.00  0.00    -0.288 C  
HETATM   36  C   UNL     1      -9.896   2.449  73.555  1.00  0.00    -0.148 C  
HETATM   37  C   UNL     1      -8.793   2.293  72.511  1.00  0.00    -0.087 C  
HETATM   38  C   UNL     1     -10.173   4.848  72.879  1.00  0.00    -0.217 C  
HETATM   39  C   UNL     1      -8.189   3.621  72.039  1.00  0.00    -0.072 C  
ENDBRANCH  31  34
ENDBRANCH  23  24
ENDBRANCH  11  23
ENDBRANCH  10  11
ENDBRANCH   6  10
ENDBRANCH   5   6
ENDBRANCH   3   5
ENDBRANCH   2   3
TORSDOF 13
ENDMDL
MODEL       45
REMARK 921   NORMALIZED FREE ENERGY PREDICTED BY IDOCK:   -5.90 KCAL/MOL
REMARK 922        TOTAL FREE ENERGY PREDICTED BY IDOCK:  -12.85 KCAL/MOL
REMARK 923 INTER-LIGAND FREE ENERGY PREDICTED BY IDOCK:  -11.76 KCAL/MOL
REMARK 924 INTRA-LIGAND FREE ENERGY PREDICTED BY IDOCK:   -1.10 KCAL/MOL
REMARK 927      BINDING AFFINITY PREDICTED BY RF-SCORE:    0.00 PKD
ROOT
HETATM    1  C   UNL     1     -10.431   4.470  72.991  1.00  0.00    -0.258 C  
HETATM    2  C   UNL     1     -11.449   5.584  72.827  1.00  0.00    -0.339 C  
ENDROOT
BRANCH   2   3
HETATM    3  C   UNL     1     -10.932   7.019  72.761  1.00  0.00    -0.294 C  
HETATM    4  O   UNL     1     -10.085   7.450  73.537  1.00  0.00    -0.297 OA 
BRANCH   3   5
HETATM    5  O   UNL     1     -11.421   7.703  71.698  1.00  0.00    -0.250 OA 
BRANCH   5   6
HETATM    6  C   UNL     1     -11.294   9.161  71.694  1.00  0.00    -0.376 C  
HETATM    7  C   UNL     1     -12.712   9.751  71.360  1.00  0.00    -0.483 C  
HETATM    8  C   UNL     1     -12.750  11.277  71.293  1.00  0.00    -0.510 C  
HETATM    9  C   UNL     1     -13.803   9.269  72.317  1.00  0.00    -0.492 C  
BRANCH   6  10
HETATM   10  O   UNL     1     -10.271   9.706  70.806  1.00  0.00    -0.290 OA 
BRANCH  10  11
HETATM   11  P   UNL     1     -10.392   9.352  69.183  1.00  0.00    -0.219 P  
HETATM   12  O   UNL     1     -10.795   7.888  69.483  1.00  0.00    -0.221 OA 
BRANCH  11  13
HETATM   13  C   UNL     1      -8.582   8.777  68.678  1.00  0.00    -0.134 C  
BRANCH  13  14
HETATM   14  C   UNL     1      -8.583   7.435  67.938  1.00  0.00    -0.125 C  
BRANCH  14  15
HETATM   15  C   UNL     1      -8.675   7.560  66.427  1.00  0.00    -0.158 C  
BRANCH  15  16
HETATM   16  C   UNL     1      -7.688   8.636  65.947  1.00  0.00    -0.101 C  
BRANCH  16  17
HETATM   17  C   UNL     1      -8.319   9.498  64.890  1.00  0.00    -0.151 A  
HETATM   18  C   UNL     1      -9.578  10.074  65.099  1.00  0.00    -0.356 A  
HETATM   19  C   UNL     1      -7.620   9.779  63.711  1.00  0.00    -0.131 A  
HETATM   20  C   UNL     1      -9.428  11.199  62.965  1.00  0.00    -0.386 A  
HETATM   21  C   UNL     1     -10.133  10.919  64.131  1.00  0.00    -0.416 A  
HETATM   22  C   UNL     1      -8.175  10.631  62.756  1.00  0.00    -0.161 A  
ENDBRANCH  16  17
ENDBRANCH  15  16
ENDBRANCH  14  15
ENDBRANCH  13  14
ENDBRANCH  11  13
BRANCH  11  23
HETATM   23  C   UNL     1      -9.917  11.083  68.828  1.00  0.00    -0.207 C  
BRANCH  23  24
HETATM   24  C   UNL     1     -10.994  11.897  68.086  1.00  0.00    -0.227 C  
HETATM   25  C   UNL     1     -11.927  14.027  67.152  1.00  0.00    -0.430 C  
HETATM   26  O   UNL     1     -12.074  11.364  67.801  1.00  0.00    -0.637 OA 
HETATM   27  N   UNL     1     -10.809  13.196  67.666  1.00  0.00    -0.250 N  
HETATM   28  C   UNL     1     -12.506  13.719  65.744  1.00  0.00    -0.485 C  
HETATM   29  O   UNL     1     -13.016  14.564  65.015  1.00  0.00    -0.564 OA 
HETATM   30  C   UNL     1      -9.558  13.877  67.398  1.00  0.00    -0.235 C  
HETATM   31  C   UNL     1      -9.869  15.383  67.482  1.00  0.00    -0.217 C  
HETATM   32  O   UNL     1     -12.535  12.410  65.415  1.00  0.00    -0.637 OA 
HETATM   33  C   UNL     1     -11.378  15.467  67.166  1.00  0.00    -0.203 C  
BRANCH  31  34
HETATM   34  C   UNL     1      -9.523  16.081  68.834  1.00  0.00    -0.235 C  
HETATM   35  C   UNL     1      -7.079  16.553  68.335  1.00  0.00    -0.160 C  
HETATM   36  C   UNL     1      -7.324  18.056  68.261  1.00  0.00    -0.259 C  
HETATM   37  C   UNL     1      -8.782  18.408  67.974  1.00  0.00    -0.302 C  
HETATM   38  C   UNL     1      -8.067  15.893  69.291  1.00  0.00    -0.228 C  
HETATM   39  C   UNL     1      -9.792  17.607  68.806  1.00  0.00    -0.334 C  
ENDBRANCH  31  34
ENDBRANCH  23  24
ENDBRANCH  11  23
ENDBRANCH  10  11
ENDBRANCH   6  10
ENDBRANCH   5   6
ENDBRANCH   3   5
ENDBRANCH   2   3
TORSDOF 13
ENDMDL
MODEL       46
REMARK 921   NORMALIZED FREE ENERGY PREDICTED BY IDOCK:   -5.89 KCAL/MOL
REMARK 922        TOTAL FREE ENERGY PREDICTED BY IDOCK:  -12.84 KCAL/MOL
REMARK 923 INTER-LIGAND FREE ENERGY PREDICTED BY IDOCK:   -9.92 KCAL/MOL
REMARK 924 INTRA-LIGAND FREE ENERGY PREDICTED BY IDOCK:   -2.92 KCAL/MOL
REMARK 927      BINDING AFFINITY PREDICTED BY RF-SCORE:    0.00 PKD
ROOT
HETATM    1  C   UNL     1      -6.381  21.157  67.284  1.00  0.00    -0.425 C  
HETATM    2  C   UNL     1      -6.424  19.710  67.741  1.00  0.00    -0.244 C  
ENDROOT
BRANCH   2   3
HETATM    3  C   UNL     1      -7.137  19.397  69.053  1.00  0.00    -0.362 C  
HETATM    4  O   UNL     1      -6.810  19.910  70.119  1.00  0.00    -0.263 OA 
BRANCH   3   5
HETATM    5  O   UNL     1      -8.220  18.599  68.883  1.00  0.00    -0.290 OA 
BRANCH   5   6
HETATM    6  C   UNL     1      -8.646  18.290  67.519  1.00  0.00    -0.250 C  
HETATM    7  C   UNL     1     -10.047  18.969  67.302  1.00  0.00    -0.436 C  
HETATM    8  C   UNL     1     -10.651  18.723  65.921  1.00  0.00    -0.405 C  
HETATM    9  C   UNL     1     -10.032  20.474  67.576  1.00  0.00    -0.497 C  
BRANCH   6  10
HETATM   10  O   UNL     1      -8.685  16.872  67.172  1.00  0.00    -0.193 OA 
BRANCH  10  11
HETATM   11  P   UNL     1      -8.362  15.775  68.384  1.00  0.00    -0.182 P  
HETATM   12  O   UNL     1      -6.852  16.117  68.355  1.00  0.00    -0.123 OA 
BRANCH  11  13
HETATM   13  C   UNL     1      -8.023  14.090  67.429  1.00  0.00    -0.175 C  
BRANCH  13  14
HETATM   14  C   UNL     1      -7.552  12.974  68.367  1.00  0.00    -0.133 C  
BRANCH  14  15
HETATM   15  C   UNL     1      -6.182  12.414  68.028  1.00  0.00    -0.082 C  
BRANCH  15  16
HETATM   16  C   UNL     1      -6.289  11.547  66.763  1.00  0.00    -0.134 C  
BRANCH  16  17
HETATM   17  C   UNL     1      -6.307  10.088  67.122  1.00  0.00    -0.067 A  
HETATM   18  C   UNL     1      -6.356   9.108  66.122  1.00  0.00    -0.064 A  
HETATM   19  C   UNL     1      -6.212   9.699  68.464  1.00  0.00    -0.047 A  
HETATM   20  C   UNL     1      -6.215   7.375  67.801  1.00  0.00    -0.044 A  
HETATM   21  C   UNL     1      -6.318   7.752  66.467  1.00  0.00    -0.046 A  
HETATM   22  C   UNL     1      -6.162   8.346  68.797  1.00  0.00    -0.045 A  
ENDBRANCH  16  17
ENDBRANCH  15  16
ENDBRANCH  14  15
ENDBRANCH  13  14
ENDBRANCH  11  13
BRANCH  11  23
HETATM   23  C   UNL     1     -10.146  15.370  68.418  1.00  0.00    -0.215 C  
BRANCH  23  24
HETATM   24  C   UNL     1     -10.663  14.682  67.141  1.00  0.00    -0.292 C  
HETATM   25  C   UNL     1     -11.307  12.662  65.804  1.00  0.00    -0.333 C  
HETATM   26  O   UNL     1     -10.819  15.346  66.108  1.00  0.00    -0.321 OA 
HETATM   27  N   UNL     1     -11.021  13.353  67.087  1.00  0.00    -0.276 N  
HETATM   28  C   UNL     1     -12.631  12.985  65.056  1.00  0.00    -0.454 C  
HETATM   29  O   UNL     1     -13.219  12.187  64.333  1.00  0.00    -0.758 OA 
HETATM   30  C   UNL     1     -11.427  12.492  68.181  1.00  0.00    -0.319 C  
HETATM   31  C   UNL     1     -11.199  11.050  67.693  1.00  0.00    -0.373 C  
HETATM   32  O   UNL     1     -13.036  14.269  65.147  1.00  0.00    -0.704 OA 
HETATM   33  C   UNL     1     -11.281  11.162  66.155  1.00  0.00    -0.059 C  
BRANCH  31  34
HETATM   34  C   UNL     1      -9.872  10.371  68.152  1.00  0.00    -0.168 C  
HETATM   35  C   UNL     1     -10.766   9.328  70.287  1.00  0.00    -0.284 C  
HETATM   36  C   UNL     1     -10.640   7.918  69.719  1.00  0.00    -0.242 C  
HETATM   37  C   UNL     1     -10.612   7.891  68.192  1.00  0.00    -0.179 C  
HETATM   38  C   UNL     1      -9.716  10.249  69.677  1.00  0.00    -0.216 C  
HETATM   39  C   UNL     1      -9.693   8.947  67.567  1.00  0.00    -0.216 C  
ENDBRANCH  31  34
ENDBRANCH  23  24
ENDBRANCH  11  23
ENDBRANCH  10  11
ENDBRANCH   6  10
ENDBRANCH   5   6
ENDBRANCH   3   5
ENDBRANCH   2   3
TORSDOF 13
ENDMDL
MODEL       47
REMARK 921   NORMALIZED FREE ENERGY PREDICTED BY IDOCK:   -5.89 KCAL/MOL
REMARK 922        TOTAL FREE ENERGY PREDICTED BY IDOCK:  -12.83 KCAL/MOL
REMARK 923 INTER-LIGAND FREE ENERGY PREDICTED BY IDOCK:  -10.79 KCAL/MOL
REMARK 924 INTRA-LIGAND FREE ENERGY PREDICTED BY IDOCK:   -2.04 KCAL/MOL
REMARK 927      BINDING AFFINITY PREDICTED BY RF-SCORE:    0.00 PKD
ROOT
HETATM    1  C   UNL     1      -7.750  10.561  62.337  1.00  0.00    -0.189 C  
HETATM    2  C   UNL     1      -9.110  10.006  62.718  1.00  0.00    -0.304 C  
ENDROOT
BRANCH   2   3
HETATM    3  C   UNL     1      -9.940  10.786  63.735  1.00  0.00    -0.351 C  
HETATM    4  O   UNL     1     -11.101  11.118  63.521  1.00  0.00    -0.300 OA 
BRANCH   3   5
HETATM    5  O   UNL     1      -9.294  10.960  64.914  1.00  0.00    -0.208 OA 
BRANCH   5   6
HETATM    6  C   UNL     1      -9.924  10.446  66.131  1.00  0.00    -0.231 C  
HETATM    7  C   UNL     1      -9.788   8.880  66.101  1.00  0.00    -0.326 C  
HETATM    8  C   UNL     1     -10.420   8.179  67.302  1.00  0.00    -0.379 C  
HETATM    9  C   UNL     1      -8.340   8.407  65.956  1.00  0.00    -0.128 C  
BRANCH   6  10
HETATM   10  O   UNL     1     -11.309  10.854  66.348  1.00  0.00    -0.133 OA 
BRANCH  10  11
HETATM   11  P   UNL     1     -11.572  12.281  67.166  1.00  0.00    -0.275 P  
HETATM   12  O   UNL     1     -12.226  12.929  65.921  1.00  0.00    -0.444 OA 
BRANCH  11  13
HETATM   13  C   UNL     1      -9.927  13.315  66.870  1.00  0.00    -0.250 C  
BRANCH  13  14
HETATM   14  C   UNL     1     -10.007  14.190  65.614  1.00  0.00    -0.331 C  
BRANCH  14  15
HETATM   15  C   UNL     1      -9.513  15.611  65.816  1.00  0.00    -0.338 C  
BRANCH  15  16
HETATM   16  C   UNL     1     -10.042  16.145  67.156  1.00  0.00    -0.269 C  
BRANCH  16  17
HETATM   17  C   UNL     1     -10.032  17.648  67.167  1.00  0.00    -0.316 A  
HETATM   18  C   UNL     1      -9.834  18.351  68.362  1.00  0.00    -0.396 A  
HETATM   19  C   UNL     1     -10.160  18.355  65.965  1.00  0.00    -0.293 A  
HETATM   20  C   UNL     1      -9.892  20.443  67.153  1.00  0.00    -0.601 A  
HETATM   21  C   UNL     1      -9.772  19.749  68.352  1.00  0.00    -0.480 A  
HETATM   22  C   UNL     1     -10.085  19.747  65.963  1.00  0.00    -0.574 A  
ENDBRANCH  16  17
ENDBRANCH  15  16
ENDBRANCH  14  15
ENDBRANCH  13  14
ENDBRANCH  11  13
BRANCH  11  23
HETATM   23  C   UNL     1     -10.800  11.515  68.638  1.00  0.00    -0.212 C  
BRANCH  23  24
HETATM   24  C   UNL     1     -11.782  10.744  69.539  1.00  0.00    -0.312 C  
HETATM   25  C   UNL     1     -12.385   8.853  71.070  1.00  0.00    -0.171 C  
HETATM   26  O   UNL     1     -12.975  11.072  69.564  1.00  0.00    -0.092 OA 
HETATM   27  N   UNL     1     -11.398   9.721  70.378  1.00  0.00    -0.279 N  
HETATM   28  C   UNL     1     -13.198   9.439  72.257  1.00  0.00    -0.446 C  
HETATM   29  O   UNL     1     -13.621   8.768  73.192  1.00  0.00    -0.191 OA 
HETATM   30  C   UNL     1     -10.083   9.468  70.934  1.00  0.00    -0.260 C  
HETATM   31  C   UNL     1     -10.072   7.982  71.336  1.00  0.00    -0.228 C  
HETATM   32  O   UNL     1     -13.533  10.741  72.129  1.00  0.00    -0.379 OA 
HETATM   33  C   UNL     1     -11.561   7.650  71.569  1.00  0.00    -0.304 C  
BRANCH  31  34
HETATM   34  C   UNL     1      -9.414   7.000  70.319  1.00  0.00    -0.165 C  
HETATM   35  C   UNL     1      -7.087   6.995  71.334  1.00  0.00    -0.070 C  
HETATM   36  C   UNL     1      -7.227   5.547  71.791  1.00  0.00    -0.089 C  
HETATM   37  C   UNL     1      -8.682   5.100  71.917  1.00  0.00    -0.135 C  
HETATM   38  C   UNL     1      -7.915   7.244  70.078  1.00  0.00    -0.117 C  
HETATM   39  C   UNL     1      -9.566   5.514  70.734  1.00  0.00    -0.220 C  
ENDBRANCH  31  34
ENDBRANCH  23  24
ENDBRANCH  11  23
ENDBRANCH  10  11
ENDBRANCH   6  10
ENDBRANCH   5   6
ENDBRANCH   3   5
ENDBRANCH   2   3
TORSDOF 13
ENDMDL
MODEL       48
REMARK 921   NORMALIZED FREE ENERGY PREDICTED BY IDOCK:   -5.88 KCAL/MOL
REMARK 922        TOTAL FREE ENERGY PREDICTED BY IDOCK:  -12.81 KCAL/MOL
REMARK 923 INTER-LIGAND FREE ENERGY PREDICTED BY IDOCK:  -10.82 KCAL/MOL
REMARK 924 INTRA-LIGAND FREE ENERGY PREDICTED BY IDOCK:   -1.99 KCAL/MOL
REMARK 927      BINDING AFFINITY PREDICTED BY RF-SCORE:    0.00 PKD
ROOT
HETATM    1  C   UNL     1     -14.069   7.133  71.569  1.00  0.00    -0.467 C  
HETATM    2  C   UNL     1     -14.327   8.600  71.861  1.00  0.00    -0.492 C  
ENDROOT
BRANCH   2   3
HETATM    3  C   UNL     1     -13.145   9.563  71.775  1.00  0.00    -0.418 C  
HETATM    4  O   UNL     1     -13.233  10.667  71.248  1.00  0.00    -0.351 OA 
BRANCH   3   5
HETATM    5  O   UNL     1     -12.052   9.111  72.436  1.00  0.00    -0.297 OA 
BRANCH   5   6
HETATM    6  C   UNL     1     -10.967   8.514  71.657  1.00  0.00    -0.292 C  
HETATM    7  C   UNL     1      -9.998   7.806  72.672  1.00  0.00    -0.298 C  
HETATM    8  C   UNL     1      -8.786   7.145  72.017  1.00  0.00    -0.135 C  
HETATM    9  C   UNL     1     -10.704   6.779  73.559  1.00  0.00    -0.319 C  
BRANCH   6  10
HETATM   10  O   UNL     1     -10.241   9.428  70.780  1.00  0.00    -0.259 OA 
BRANCH  10  11
HETATM   11  P   UNL     1     -10.403   9.208  69.136  1.00  0.00    -0.205 P  
HETATM   12  O   UNL     1     -10.727   7.705  69.321  1.00  0.00    -0.221 OA 
BRANCH  11  13
HETATM   13  C   UNL     1      -8.586   8.766  68.529  1.00  0.00    -0.134 C  
BRANCH  13  14
HETATM   14  C   UNL     1      -8.249   9.413  67.181  1.00  0.00    -0.113 C  
BRANCH  14  15
HETATM   15  C   UNL     1      -8.423   8.490  65.989  1.00  0.00    -0.150 C  
BRANCH  15  16
HETATM   16  C   UNL     1      -7.556   7.236  66.189  1.00  0.00    -0.088 C  
BRANCH  16  17
HETATM   17  C   UNL     1      -8.285   6.009  65.716  1.00  0.00    -0.136 A  
HETATM   18  C   UNL     1      -9.288   5.429  66.503  1.00  0.00    -0.150 A  
HETATM   19  C   UNL     1      -8.004   5.475  64.454  1.00  0.00    -0.120 A  
HETATM   20  C   UNL     1      -9.717   3.799  64.770  1.00  0.00    -0.184 A  
HETATM   21  C   UNL     1      -9.997   4.319  66.029  1.00  0.00    -0.234 A  
HETATM   22  C   UNL     1      -8.723   4.376  63.985  1.00  0.00    -0.136 A  
ENDBRANCH  16  17
ENDBRANCH  15  16
ENDBRANCH  14  15
ENDBRANCH  13  14
ENDBRANCH  11  13
BRANCH  11  23
HETATM   23  C   UNL     1     -10.019  10.984  68.917  1.00  0.00    -0.188 C  
BRANCH  23  24
HETATM   24  C   UNL     1     -11.082  11.768  68.125  1.00  0.00    -0.243 C  
HETATM   25  C   UNL     1     -12.033  13.875  67.156  1.00  0.00    -0.420 C  
HETATM   26  O   UNL     1     -12.127  11.203  67.779  1.00  0.00    -0.606 OA 
HETATM   27  N   UNL     1     -10.917  13.076  67.724  1.00  0.00    -0.244 N  
HETATM   28  C   UNL     1     -12.526  13.560  65.717  1.00  0.00    -0.462 C  
HETATM   29  O   UNL     1     -13.024  14.393  64.967  1.00  0.00    -0.643 OA 
HETATM   30  C   UNL     1      -9.677  13.800  67.527  1.00  0.00    -0.230 C  
HETATM   31  C   UNL     1     -10.041  15.293  67.605  1.00  0.00    -0.235 C  
HETATM   32  O   UNL     1     -12.494  12.253  65.379  1.00  0.00    -0.596 OA 
HETATM   33  C   UNL     1     -11.533  15.331  67.209  1.00  0.00    -0.227 C  
BRANCH  31  34
HETATM   34  C   UNL     1      -9.791  15.992  68.977  1.00  0.00    -0.239 C  
HETATM   35  C   UNL     1      -7.326  16.496  68.636  1.00  0.00    -0.194 C  
HETATM   36  C   UNL     1      -7.585  17.996  68.550  1.00  0.00    -0.296 C  
HETATM   37  C   UNL     1      -9.027  18.330  68.172  1.00  0.00    -0.314 C  
HETATM   38  C   UNL     1      -8.364  15.820  69.525  1.00  0.00    -0.135 C  
HETATM   39  C   UNL     1     -10.076  17.514  68.936  1.00  0.00    -0.346 C  
ENDBRANCH  31  34
ENDBRANCH  23  24
ENDBRANCH  11  23
ENDBRANCH  10  11
ENDBRANCH   6  10
ENDBRANCH   5   6
ENDBRANCH   3   5
ENDBRANCH   2   3
TORSDOF 13
ENDMDL
MODEL       49
REMARK 921   NORMALIZED FREE ENERGY PREDICTED BY IDOCK:   -5.81 KCAL/MOL
REMARK 922        TOTAL FREE ENERGY PREDICTED BY IDOCK:  -12.70 KCAL/MOL
REMARK 923 INTER-LIGAND FREE ENERGY PREDICTED BY IDOCK:  -10.32 KCAL/MOL
REMARK 924 INTRA-LIGAND FREE ENERGY PREDICTED BY IDOCK:   -2.38 KCAL/MOL
REMARK 927      BINDING AFFINITY PREDICTED BY RF-SCORE:    0.00 PKD
ROOT
HETATM    1  C   UNL     1      -7.596   6.826  65.910  1.00  0.00    -0.087 C  
HETATM    2  C   UNL     1      -6.826   8.091  66.244  1.00  0.00    -0.058 C  
ENDROOT
BRANCH   2   3
HETATM    3  C   UNL     1      -7.603   9.403  66.307  1.00  0.00    -0.097 C  
HETATM    4  O   UNL     1      -7.072  10.468  66.605  1.00  0.00    -0.104 OA 
BRANCH   3   5
HETATM    5  O   UNL     1      -8.886   9.273  65.890  1.00  0.00    -0.147 OA 
BRANCH   5   6
HETATM    6  C   UNL     1      -9.449  10.322  65.040  1.00  0.00    -0.257 C  
HETATM    7  C   UNL     1      -8.618  10.337  63.705  1.00  0.00    -0.190 C  
HETATM    8  C   UNL     1      -9.067  11.402  62.706  1.00  0.00    -0.266 C  
HETATM    9  C   UNL     1      -8.588   8.979  63.002  1.00  0.00    -0.166 C  
BRANCH   6  10
HETATM   10  O   UNL     1      -9.517  11.653  65.637  1.00  0.00    -0.226 OA 
BRANCH  10  11
HETATM   11  P   UNL     1     -10.947  12.094  66.370  1.00  0.00    -0.316 P  
HETATM   12  O   UNL     1     -11.528  12.611  65.032  1.00  0.00    -0.308 OA 
BRANCH  11  13
HETATM   13  C   UNL     1     -10.628  13.938  66.972  1.00  0.00    -0.279 C  
BRANCH  13  14
HETATM   14  C   UNL     1      -9.758  13.997  68.232  1.00  0.00    -0.225 C  
BRANCH  14  15
HETATM   15  C   UNL     1     -10.044  15.189  69.129  1.00  0.00    -0.245 C  
BRANCH  15  16
HETATM   16  C   UNL     1     -11.543  15.525  69.060  1.00  0.00    -0.377 C  
BRANCH  16  17
HETATM   17  C   UNL     1     -12.153  15.498  70.433  1.00  0.00    -0.426 A  
HETATM   18  C   UNL     1     -13.254  14.675  70.707  1.00  0.00    -0.333 A  
HETATM   19  C   UNL     1     -11.584  16.253  71.465  1.00  0.00    -0.435 A  
HETATM   20  C   UNL     1     -13.204  15.364  73.023  1.00  0.00    -0.638 A  
HETATM   21  C   UNL     1     -13.780  14.617  72.003  1.00  0.00    -0.527 A  
HETATM   22  C   UNL     1     -12.108  16.180  72.755  1.00  0.00    -0.653 A  
ENDBRANCH  16  17
ENDBRANCH  15  16
ENDBRANCH  14  15
ENDBRANCH  13  14
ENDBRANCH  11  13
BRANCH  11  23
HETATM   23  C   UNL     1     -10.259  11.483  67.952  1.00  0.00    -0.184 C  
BRANCH  23  24
HETATM   24  C   UNL     1     -11.307  10.884  68.909  1.00  0.00    -0.288 C  
HETATM   25  C   UNL     1     -12.101   9.159  70.545  1.00  0.00     0.028 C  
HETATM   26  O   UNL     1     -12.450  11.357  68.937  1.00  0.00    -0.386 OA 
HETATM   27  N   UNL     1     -11.032   9.864  69.792  1.00  0.00    -0.255 N  
HETATM   28  C   UNL     1     -12.809   9.899  71.714  1.00  0.00    -0.442 C  
HETATM   29  O   UNL     1     -13.290   9.332  72.689  1.00  0.00    -0.430 OA 
HETATM   30  C   UNL     1      -9.745   9.478  70.339  1.00  0.00    -0.271 C  
HETATM   31  C   UNL     1      -9.906   8.024  70.817  1.00  0.00    -0.197 C  
HETATM   32  O   UNL     1     -12.985  11.224  71.525  1.00  0.00    -0.428 OA 
HETATM   33  C   UNL     1     -11.420   7.890  71.091  1.00  0.00    -0.297 C  
BRANCH  31  34
HETATM   34  C   UNL     1      -9.398   6.919  69.840  1.00  0.00    -0.150 C  
HETATM   35  C   UNL     1      -7.047   6.719  70.777  1.00  0.00    -0.068 C  
HETATM   36  C   UNL     1      -7.322   5.324  71.327  1.00  0.00    -0.082 C  
HETATM   37  C   UNL     1      -8.810   5.046  71.528  1.00  0.00    -0.146 C  
HETATM   38  C   UNL     1      -7.891   6.985  69.536  1.00  0.00    -0.119 C  
HETATM   39  C   UNL     1      -9.690   5.486  70.351  1.00  0.00    -0.242 C  
ENDBRANCH  31  34
ENDBRANCH  23  24
ENDBRANCH  11  23
ENDBRANCH  10  11
ENDBRANCH   6  10
ENDBRANCH   5   6
ENDBRANCH   3   5
ENDBRANCH   2   3
TORSDOF 13
ENDMDL
MODEL       50
REMARK 921   NORMALIZED FREE ENERGY PREDICTED BY IDOCK:   -5.80 KCAL/MOL
REMARK 922        TOTAL FREE ENERGY PREDICTED BY IDOCK:  -12.68 KCAL/MOL
REMARK 923 INTER-LIGAND FREE ENERGY PREDICTED BY IDOCK:   -9.11 KCAL/MOL
REMARK 924 INTRA-LIGAND FREE ENERGY PREDICTED BY IDOCK:   -3.56 KCAL/MOL
REMARK 927      BINDING AFFINITY PREDICTED BY RF-SCORE:    0.00 PKD
ROOT
HETATM    1  C   UNL     1     -10.902  15.482  66.378  1.00  0.00    -0.277 C  
HETATM    2  C   UNL     1     -11.563  14.262  66.992  1.00  0.00    -0.406 C  
ENDROOT
BRANCH   2   3
HETATM    3  C   UNL     1     -11.082  12.886  66.538  1.00  0.00    -0.286 C  
HETATM    4  O   UNL     1     -11.856  11.970  66.280  1.00  0.00    -0.563 OA 
BRANCH   3   5
HETATM    5  O   UNL     1      -9.741  12.837  66.348  1.00  0.00    -0.251 OA 
BRANCH   5   6
HETATM    6  C   UNL     1      -8.920  12.177  67.363  1.00  0.00    -0.180 C  
HETATM    7  C   UNL     1      -7.628  13.052  67.560  1.00  0.00    -0.166 C  
HETATM    8  C   UNL     1      -6.643  12.486  68.581  1.00  0.00    -0.083 C  
HETATM    9  C   UNL     1      -7.938  14.506  67.922  1.00  0.00    -0.152 C  
BRANCH   6  10
HETATM   10  O   UNL     1      -8.580  10.783  67.096  1.00  0.00    -0.127 OA 
BRANCH  10  11
HETATM   11  P   UNL     1      -8.976   9.658  68.260  1.00  0.00    -0.122 P  
HETATM   12  O   UNL     1      -8.179   8.550  67.529  1.00  0.00    -0.115 OA 
BRANCH  11  13
HETATM   13  C   UNL     1     -10.671   8.889  67.627  1.00  0.00    -0.151 C  
BRANCH  13  14
HETATM   14  C   UNL     1     -10.458   7.633  66.775  1.00  0.00    -0.319 C  
BRANCH  14  15
HETATM   15  C   UNL     1     -10.976   6.355  67.412  1.00  0.00    -0.463 C  
BRANCH  15  16
HETATM   16  C   UNL     1     -10.411   5.145  66.651  1.00  0.00    -0.325 C  
BRANCH  16  17
HETATM   17  C   UNL     1      -9.246   4.552  67.393  1.00  0.00    -0.154 A  
HETATM   18  C   UNL     1      -7.951   5.051  67.202  1.00  0.00    -0.100 A  
HETATM   19  C   UNL     1      -9.462   3.533  68.328  1.00  0.00    -0.210 A  
HETATM   20  C   UNL     1      -7.106   3.519  68.871  1.00  0.00    -0.050 A  
HETATM   21  C   UNL     1      -6.882   4.526  67.938  1.00  0.00    -0.055 A  
HETATM   22  C   UNL     1      -8.393   3.025  69.065  1.00  0.00    -0.085 A  
ENDBRANCH  16  17
ENDBRANCH  15  16
ENDBRANCH  14  15
ENDBRANCH  13  14
ENDBRANCH  11  13
BRANCH  11  23
HETATM   23  C   UNL     1      -9.919  10.967  69.124  1.00  0.00    -0.161 C  
BRANCH  23  24
HETATM   24  C   UNL     1     -11.219  10.477  69.789  1.00  0.00    -0.298 C  
HETATM   25  C   UNL     1     -12.558   8.817  71.105  1.00  0.00    -0.168 C  
HETATM   26  O   UNL     1     -12.275  11.090  69.593  1.00  0.00    -0.330 OA 
HETATM   27  N   UNL     1     -11.272   9.402  70.650  1.00  0.00    -0.265 N  
HETATM   28  C   UNL     1     -13.420   9.603  72.132  1.00  0.00    -0.429 C  
HETATM   29  O   UNL     1     -14.172   9.071  72.942  1.00  0.00    -0.528 OA 
HETATM   30  C   UNL     1     -10.196   8.839  71.442  1.00  0.00    -0.280 C  
HETATM   31  C   UNL     1     -10.630   7.402  71.786  1.00  0.00    -0.228 C  
HETATM   32  O   UNL     1     -13.392  10.945  71.987  1.00  0.00    -0.448 OA 
HETATM   33  C   UNL     1     -12.172   7.454  71.712  1.00  0.00    -0.359 C  
BRANCH  31  34
HETATM   34  C   UNL     1     -10.048   6.273  70.882  1.00  0.00    -0.227 C  
HETATM   35  C   UNL     1      -7.683   6.310  71.805  1.00  0.00    -0.100 C  
HETATM   36  C   UNL     1      -7.852   4.940  72.451  1.00  0.00    -0.093 C  
HETATM   37  C   UNL     1      -9.314   4.568  72.686  1.00  0.00    -0.154 C  
HETATM   38  C   UNL     1      -8.552   6.428  70.558  1.00  0.00    -0.143 C  
HETATM   39  C   UNL     1     -10.231   4.860  71.492  1.00  0.00    -0.264 C  
ENDBRANCH  31  34
ENDBRANCH  23  24
ENDBRANCH  11  23
ENDBRANCH  10  11
ENDBRANCH   6  10
ENDBRANCH   5   6
ENDBRANCH   3   5
ENDBRANCH   2   3
TORSDOF 13
ENDMDL
MODEL       51
REMARK 921   NORMALIZED FREE ENERGY PREDICTED BY IDOCK:   -5.77 KCAL/MOL
REMARK 922        TOTAL FREE ENERGY PREDICTED BY IDOCK:  -12.62 KCAL/MOL
REMARK 923 INTER-LIGAND FREE ENERGY PREDICTED BY IDOCK:   -9.62 KCAL/MOL
REMARK 924 INTRA-LIGAND FREE ENERGY PREDICTED BY IDOCK:   -3.00 KCAL/MOL
REMARK 927      BINDING AFFINITY PREDICTED BY RF-SCORE:    0.00 PKD
ROOT
HETATM    1  C   UNL     1      -9.441   4.143  69.888  1.00  0.00    -0.265 C  
HETATM    2  C   UNL     1      -9.339   5.448  69.120  1.00  0.00    -0.158 C  
ENDROOT
BRANCH   2   3
HETATM    3  C   UNL     1     -10.460   5.790  68.143  1.00  0.00    -0.217 C  
HETATM    4  O   UNL     1     -10.592   5.218  67.066  1.00  0.00    -0.244 OA 
BRANCH   3   5
HETATM    5  O   UNL     1     -11.336   6.694  68.646  1.00  0.00    -0.201 OA 
BRANCH   5   6
HETATM    6  C   UNL     1     -10.804   7.922  69.236  1.00  0.00    -0.064 C  
HETATM    7  C   UNL     1     -11.503   8.111  70.631  1.00  0.00    -0.237 C  
HETATM    8  C   UNL     1     -11.071   9.372  71.377  1.00  0.00    -0.450 C  
HETATM    9  C   UNL     1     -11.331   6.904  71.556  1.00  0.00    -0.302 C  
BRANCH   6  10
HETATM   10  O   UNL     1     -10.925   9.124  68.415  1.00  0.00    -0.097 OA 
BRANCH  10  11
HETATM   11  P   UNL     1      -9.522   9.782  67.802  1.00  0.00    -0.135 P  
HETATM   12  O   UNL     1      -9.052   8.405  67.272  1.00  0.00    -0.134 OA 
BRANCH  11  13
HETATM   13  C   UNL     1      -8.247   9.670  69.294  1.00  0.00    -0.123 C  
BRANCH  13  14
HETATM   14  C   UNL     1      -7.202   8.569  69.085  1.00  0.00    -0.068 C  
BRANCH  14  15
HETATM   15  C   UNL     1      -6.729   7.910  70.368  1.00  0.00    -0.038 C  
BRANCH  15  16
HETATM   16  C   UNL     1      -7.401   8.599  71.567  1.00  0.00    -0.118 C  
BRANCH  16  17
HETATM   17  C   UNL     1      -7.904   7.577  72.548  1.00  0.00    -0.114 A  
HETATM   18  C   UNL     1      -8.721   7.961  73.620  1.00  0.00    -0.329 A  
HETATM   19  C   UNL     1      -7.606   6.223  72.359  1.00  0.00    -0.098 A  
HETATM   20  C   UNL     1      -8.934   5.650  74.296  1.00  0.00    -0.122 A  
HETATM   21  C   UNL     1      -9.228   6.994  74.496  1.00  0.00    -0.204 A  
HETATM   22  C   UNL     1      -8.126   5.265  73.230  1.00  0.00    -0.111 A  
ENDBRANCH  16  17
ENDBRANCH  15  16
ENDBRANCH  14  15
ENDBRANCH  13  14
ENDBRANCH  11  13
BRANCH  11  23
HETATM   23  C   UNL     1     -10.078  11.409  68.429  1.00  0.00    -0.201 C  
BRANCH  23  24
HETATM   24  C   UNL     1     -10.986  12.185  67.456  1.00  0.00    -0.257 C  
HETATM   25  C   UNL     1     -11.554  14.184  66.055  1.00  0.00    -0.361 C  
HETATM   26  O   UNL     1     -12.111  11.746  67.187  1.00  0.00    -0.592 OA 
HETATM   27  N   UNL     1     -10.596  13.339  66.813  1.00  0.00    -0.274 N  
HETATM   28  C   UNL     1     -12.088  13.673  64.688  1.00  0.00    -0.412 C  
HETATM   29  O   UNL     1     -12.430  14.411  63.770  1.00  0.00    -0.814 OA 
HETATM   30  C   UNL     1      -9.249  13.790  66.526  1.00  0.00    -0.192 C  
HETATM   31  C   UNL     1      -9.350  15.308  66.294  1.00  0.00    -0.345 C  
HETATM   32  O   UNL     1     -12.280  12.339  64.615  1.00  0.00    -0.411 OA 
HETATM   33  C   UNL     1     -10.811  15.516  65.840  1.00  0.00    -0.317 C  
BRANCH  31  34
HETATM   34  C   UNL     1      -8.990  16.216  67.510  1.00  0.00    -0.197 C  
HETATM   35  C   UNL     1      -7.149  17.551  66.381  1.00  0.00    -0.321 C  
HETATM   36  C   UNL     1      -7.988  18.824  66.391  1.00  0.00    -0.300 C  
HETATM   37  C   UNL     1      -9.486  18.550  66.508  1.00  0.00    -0.322 C  
HETATM   38  C   UNL     1      -7.517  16.656  67.559  1.00  0.00    -0.176 C  
HETATM   39  C   UNL     1      -9.846  17.506  67.571  1.00  0.00    -0.293 C  
ENDBRANCH  31  34
ENDBRANCH  23  24
ENDBRANCH  11  23
ENDBRANCH  10  11
ENDBRANCH   6  10
ENDBRANCH   5   6
ENDBRANCH   3   5
ENDBRANCH   2   3
TORSDOF 13
ENDMDL
MODEL       52
REMARK 921   NORMALIZED FREE ENERGY PREDICTED BY IDOCK:   -5.77 KCAL/MOL
REMARK 922        TOTAL FREE ENERGY PREDICTED BY IDOCK:  -12.61 KCAL/MOL
REMARK 923 INTER-LIGAND FREE ENERGY PREDICTED BY IDOCK:   -9.89 KCAL/MOL
REMARK 924 INTRA-LIGAND FREE ENERGY PREDICTED BY IDOCK:   -2.72 KCAL/MOL
REMARK 927      BINDING AFFINITY PREDICTED BY RF-SCORE:    0.00 PKD
ROOT
HETATM    1  C   UNL     1      -9.470  16.434  69.050  1.00  0.00    -0.258 C  
HETATM    2  C   UNL     1      -8.869  16.886  67.731  1.00  0.00    -0.217 C  
ENDROOT
BRANCH   2   3
HETATM    3  C   UNL     1      -8.247  15.823  66.829  1.00  0.00    -0.267 C  
HETATM    4  O   UNL     1      -7.252  15.185  67.154  1.00  0.00    -0.187 OA 
BRANCH   3   5
HETATM    5  O   UNL     1      -8.977  15.595  65.709  1.00  0.00    -0.268 OA 
BRANCH   5   6
HETATM    6  C   UNL     1      -9.924  14.480  65.715  1.00  0.00    -0.334 C  
HETATM    7  C   UNL     1     -11.358  15.085  65.491  1.00  0.00    -0.312 C  
HETATM    8  C   UNL     1     -12.478  14.046  65.492  1.00  0.00    -0.533 C  
HETATM    9  C   UNL     1     -11.462  15.926  64.217  1.00  0.00    -0.197 C  
BRANCH   6  10
HETATM   10  O   UNL     1      -9.889  13.624  66.897  1.00  0.00    -0.247 OA 
BRANCH  10  11
HETATM   11  P   UNL     1      -9.356  12.058  66.697  1.00  0.00    -0.223 P  
HETATM   12  O   UNL     1      -9.803  12.045  65.215  1.00  0.00    -0.246 OA 
BRANCH  11  13
HETATM   13  C   UNL     1     -10.904  10.955  67.199  1.00  0.00    -0.280 C  
BRANCH  13  14
HETATM   14  C   UNL     1     -11.934  11.738  68.020  1.00  0.00    -0.195 C  
BRANCH  14  15
HETATM   15  C   UNL     1     -12.382  11.033  69.288  1.00  0.00    -0.160 C  
BRANCH  15  16
HETATM   16  C   UNL     1     -11.695  11.685  70.499  1.00  0.00    -0.196 C  
BRANCH  16  17
HETATM   17  C   UNL     1     -12.378  12.973  70.864  1.00  0.00    -0.376 A  
HETATM   18  C   UNL     1     -12.136  14.141  70.129  1.00  0.00    -0.411 A  
HETATM   19  C   UNL     1     -13.311  12.996  71.907  1.00  0.00    -0.539 A  
HETATM   20  C   UNL     1     -13.750  15.334  71.476  1.00  0.00    -0.610 A  
HETATM   21  C   UNL     1     -12.819  15.321  70.443  1.00  0.00    -0.360 A  
HETATM   22  C   UNL     1     -13.995  14.174  72.206  1.00  0.00    -0.646 A  
ENDBRANCH  16  17
ENDBRANCH  15  16
ENDBRANCH  14  15
ENDBRANCH  13  14
ENDBRANCH  11  13
BRANCH  11  23
HETATM   23  C   UNL     1      -8.827  12.074  68.449  1.00  0.00    -0.149 C  
BRANCH  23  24
HETATM   24  C   UNL     1      -7.706  11.072  68.782  1.00  0.00    -0.135 C  
HETATM   25  C   UNL     1      -6.814   9.026  69.922  1.00  0.00    -0.047 C  
HETATM   26  O   UNL     1      -6.545  11.312  68.427  1.00  0.00    -0.056 OA 
HETATM   27  N   UNL     1      -7.927   9.871  69.421  1.00  0.00    -0.121 N  
HETATM   28  C   UNL     1      -5.939   8.250  68.898  1.00  0.00    -0.043 C  
HETATM   29  O   UNL     1      -5.377   7.188  69.145  1.00  0.00    -0.014 OA 
HETATM   30  C   UNL     1      -9.159   9.109  69.489  1.00  0.00    -0.155 C  
HETATM   31  C   UNL     1      -9.015   8.181  70.708  1.00  0.00    -0.156 C  
HETATM   32  O   UNL     1      -5.721   8.896  67.732  1.00  0.00    -0.038 OA 
HETATM   33  C   UNL     1      -7.489   8.018  70.872  1.00  0.00    -0.069 C  
BRANCH  31  34
HETATM   34  C   UNL     1      -9.688   8.670  72.028  1.00  0.00    -0.391 C  
HETATM   35  C   UNL     1     -11.586   6.985  72.065  1.00  0.00    -0.322 C  
HETATM   36  C   UNL     1     -11.006   6.271  73.281  1.00  0.00    -0.221 C  
HETATM   37  C   UNL     1      -9.510   6.521  73.461  1.00  0.00    -0.161 C  
HETATM   38  C   UNL     1     -11.211   8.462  72.079  1.00  0.00    -0.404 C  
HETATM   39  C   UNL     1      -9.100   7.989  73.290  1.00  0.00    -0.349 C  
ENDBRANCH  31  34
ENDBRANCH  23  24
ENDBRANCH  11  23
ENDBRANCH  10  11
ENDBRANCH   6  10
ENDBRANCH   5   6
ENDBRANCH   3   5
ENDBRANCH   2   3
TORSDOF 13
ENDMDL
MODEL       53
REMARK 921   NORMALIZED FREE ENERGY PREDICTED BY IDOCK:   -5.76 KCAL/MOL
REMARK 922        TOTAL FREE ENERGY PREDICTED BY IDOCK:  -12.60 KCAL/MOL
REMARK 923 INTER-LIGAND FREE ENERGY PREDICTED BY IDOCK:   -9.97 KCAL/MOL
REMARK 924 INTRA-LIGAND FREE ENERGY PREDICTED BY IDOCK:   -2.63 KCAL/MOL
REMARK 927      BINDING AFFINITY PREDICTED BY RF-SCORE:    0.00 PKD
ROOT
HETATM    1  C   UNL     1     -12.203   6.385  71.867  1.00  0.00    -0.332 C  
HETATM    2  C   UNL     1     -13.017   7.620  71.528  1.00  0.00    -0.378 C  
ENDROOT
BRANCH   2   3
HETATM    3  C   UNL     1     -12.445   8.981  71.916  1.00  0.00    -0.384 C  
HETATM    4  O   UNL     1     -13.151   9.972  72.071  1.00  0.00    -0.430 OA 
BRANCH   3   5
HETATM    5  O   UNL     1     -11.116   8.935  72.178  1.00  0.00    -0.362 OA 
BRANCH   5   6
HETATM    6  C   UNL     1     -10.185   9.030  71.054  1.00  0.00    -0.277 C  
HETATM    7  C   UNL     1      -8.746   8.733  71.614  1.00  0.00    -0.255 C  
HETATM    8  C   UNL     1      -7.640   8.815  70.562  1.00  0.00    -0.085 C  
HETATM    9  C   UNL     1      -8.648   7.386  72.332  1.00  0.00    -0.138 C  
BRANCH   6  10
HETATM   10  O   UNL     1     -10.215  10.286  70.310  1.00  0.00    -0.203 OA 
BRANCH  10  11
HETATM   11  P   UNL     1     -10.811  10.245  68.754  1.00  0.00    -0.234 P  
HETATM   12  O   UNL     1     -11.256   8.771  68.913  1.00  0.00     0.143 OA 
BRANCH  11  13
HETATM   13  C   UNL     1      -9.272   9.688  67.665  1.00  0.00    -0.130 C  
BRANCH  13  14
HETATM   14  C   UNL     1      -9.698   8.950  66.391  1.00  0.00    -0.332 C  
BRANCH  14  15
HETATM   15  C   UNL     1      -9.360   7.470  66.388  1.00  0.00    -0.211 C  
BRANCH  15  16
HETATM   16  C   UNL     1      -8.156   7.224  67.312  1.00  0.00    -0.112 C  
BRANCH  16  17
HETATM   17  C   UNL     1      -8.493   6.196  68.356  1.00  0.00    -0.114 A  
HETATM   18  C   UNL     1      -9.821   5.994  68.754  1.00  0.00    -0.170 A  
HETATM   19  C   UNL     1      -7.482   5.390  68.892  1.00  0.00    -0.075 A  
HETATM   20  C   UNL     1      -9.120   4.195  70.209  1.00  0.00    -0.173 A  
HETATM   21  C   UNL     1     -10.129   4.997  69.686  1.00  0.00    -0.321 A  
HETATM   22  C   UNL     1      -7.800   4.392  69.812  1.00  0.00    -0.057 A  
ENDBRANCH  16  17
ENDBRANCH  15  16
ENDBRANCH  14  15
ENDBRANCH  13  14
ENDBRANCH  11  13
BRANCH  11  23
HETATM   23  C   UNL     1     -10.285  11.987  68.566  1.00  0.00    -0.212 C  
BRANCH  23  24
HETATM   24  C   UNL     1     -11.138  12.803  67.577  1.00  0.00    -0.263 C  
HETATM   25  C   UNL     1     -11.527  14.758  66.058  1.00  0.00    -0.316 C  
HETATM   26  O   UNL     1     -12.319  12.489  67.385  1.00  0.00    -0.338 OA 
HETATM   27  N   UNL     1     -10.643  13.854  66.836  1.00  0.00    -0.279 N  
HETATM   28  C   UNL     1     -12.183  14.227  64.753  1.00  0.00    -0.443 C  
HETATM   29  O   UNL     1     -12.478  14.938  63.798  1.00  0.00    -0.768 OA 
HETATM   30  C   UNL     1      -9.266  14.115  66.465  1.00  0.00    -0.224 C  
HETATM   31  C   UNL     1      -9.195  15.615  66.127  1.00  0.00    -0.378 C  
HETATM   32  O   UNL     1     -12.539  12.925  64.785  1.00  0.00    -0.570 OA 
HETATM   33  C   UNL     1     -10.640  15.971  65.717  1.00  0.00    -0.366 C  
BRANCH  31  34
HETATM   34  C   UNL     1      -8.669  16.550  67.259  1.00  0.00    -0.204 C  
HETATM   35  C   UNL     1      -6.224  15.885  67.117  1.00  0.00    -0.014 C  
HETATM   36  C   UNL     1      -5.824  17.250  66.568  1.00  0.00    -0.240 C  
HETATM   37  C   UNL     1      -6.990  17.996  65.922  1.00  0.00    -0.319 C  
HETATM   38  C   UNL     1      -7.448  16.004  68.018  1.00  0.00    -0.134 C  
HETATM   39  C   UNL     1      -8.285  17.960  66.743  1.00  0.00    -0.273 C  
ENDBRANCH  31  34
ENDBRANCH  23  24
ENDBRANCH  11  23
ENDBRANCH  10  11
ENDBRANCH   6  10
ENDBRANCH   5   6
ENDBRANCH   3   5
ENDBRANCH   2   3
TORSDOF 13
ENDMDL
MODEL       54
REMARK 921   NORMALIZED FREE ENERGY PREDICTED BY IDOCK:   -5.75 KCAL/MOL
REMARK 922        TOTAL FREE ENERGY PREDICTED BY IDOCK:  -12.59 KCAL/MOL
REMARK 923 INTER-LIGAND FREE ENERGY PREDICTED BY IDOCK:  -10.08 KCAL/MOL
REMARK 924 INTRA-LIGAND FREE ENERGY PREDICTED BY IDOCK:   -2.51 KCAL/MOL
REMARK 927      BINDING AFFINITY PREDICTED BY RF-SCORE:    0.00 PKD
ROOT
HETATM    1  C   UNL     1     -10.660  16.211  69.772  1.00  0.00    -0.312 C  
HETATM    2  C   UNL     1     -11.728  15.742  68.802  1.00  0.00    -0.387 C  
ENDROOT
BRANCH   2   3
HETATM    3  C   UNL     1     -12.197  14.293  68.901  1.00  0.00    -0.205 C  
HETATM    4  O   UNL     1     -12.461  13.759  69.974  1.00  0.00    -0.314 OA 
BRANCH   3   5
HETATM    5  O   UNL     1     -12.393  13.721  67.688  1.00  0.00    -0.260 OA 
BRANCH   5   6
HETATM    6  C   UNL     1     -11.219  13.361  66.893  1.00  0.00    -0.308 C  
HETATM    7  C   UNL     1     -11.565  13.658  65.389  1.00  0.00    -0.334 C  
HETATM    8  C   UNL     1     -10.442  13.312  64.412  1.00  0.00    -0.424 C  
HETATM    9  C   UNL     1     -12.004  15.103  65.148  1.00  0.00    -0.051 C  
BRANCH   6  10
HETATM   10  O   UNL     1     -10.731  11.995  67.066  1.00  0.00    -0.227 OA 
BRANCH  10  11
HETATM   11  P   UNL     1      -9.249  11.795  67.799  1.00  0.00    -0.195 P  
HETATM   12  O   UNL     1      -9.625  12.777  68.935  1.00  0.00     0.033 OA 
BRANCH  11  13
HETATM   13  C   UNL     1      -8.109  13.161  66.962  1.00  0.00    -0.019 C  
BRANCH  13  14
HETATM   14  C   UNL     1      -8.572  14.585  67.289  1.00  0.00    -0.231 C  
BRANCH  14  15
HETATM   15  C   UNL     1      -7.480  15.633  67.177  1.00  0.00    -0.253 C  
BRANCH  15  16
HETATM   16  C   UNL     1      -7.922  16.721  66.185  1.00  0.00    -0.273 C  
BRANCH  16  17
HETATM   17  C   UNL     1      -8.700  17.795  66.892  1.00  0.00    -0.262 A  
HETATM   18  C   UNL     1     -10.013  18.095  66.506  1.00  0.00    -0.374 A  
HETATM   19  C   UNL     1      -8.134  18.462  67.984  1.00  0.00    -0.288 A  
HETATM   20  C   UNL     1     -10.179  19.712  68.295  1.00  0.00    -0.567 A  
HETATM   21  C   UNL     1     -10.747  19.059  67.206  1.00  0.00    -0.556 A  
HETATM   22  C   UNL     1      -8.876  19.413  68.683  1.00  0.00    -0.417 A  
ENDBRANCH  16  17
ENDBRANCH  15  16
ENDBRANCH  14  15
ENDBRANCH  13  14
ENDBRANCH  11  13
BRANCH  11  23
HETATM   23  C   UNL     1      -8.805  10.634  66.456  1.00  0.00    -0.151 C  
BRANCH  23  24
HETATM   24  C   UNL     1      -8.392   9.232  66.942  1.00  0.00    -0.123 C  
HETATM   25  C   UNL     1      -8.539   7.288  68.517  1.00  0.00    -0.124 C  
HETATM   26  O   UNL     1      -7.429   8.660  66.415  1.00  0.00    -0.085 OA 
HETATM   27  N   UNL     1      -9.075   8.535  67.914  1.00  0.00    -0.140 N  
HETATM   28  C   UNL     1      -8.536   5.985  67.671  1.00  0.00    -0.106 C  
HETATM   29  O   UNL     1      -8.621   4.859  68.150  1.00  0.00    -0.102 OA 
HETATM   30  C   UNL     1     -10.457   8.694  68.323  1.00  0.00    -0.184 C  
HETATM   31  C   UNL     1     -10.555   8.086  69.734  1.00  0.00    -0.238 C  
HETATM   32  O   UNL     1      -8.297   6.162  66.354  1.00  0.00    -0.113 OA 
HETATM   33  C   UNL     1      -9.396   7.067  69.779  1.00  0.00    -0.146 C  
BRANCH  31  34
HETATM   34  C   UNL     1     -10.483   9.094  70.922  1.00  0.00    -0.347 C  
HETATM   35  C   UNL     1     -12.863   9.960  70.754  1.00  0.00    -0.290 C  
HETATM   36  C   UNL     1     -13.259   9.296  72.069  1.00  0.00    -0.519 C  
HETATM   37  C   UNL     1     -12.340   8.138  72.452  1.00  0.00    -0.345 C  
HETATM   38  C   UNL     1     -11.385  10.329  70.762  1.00  0.00    -0.421 C  
HETATM   39  C   UNL     1     -10.847   8.445  72.282  1.00  0.00    -0.422 C  
ENDBRANCH  31  34
ENDBRANCH  23  24
ENDBRANCH  11  23
ENDBRANCH  10  11
ENDBRANCH   6  10
ENDBRANCH   5   6
ENDBRANCH   3   5
ENDBRANCH   2   3
TORSDOF 13
ENDMDL
MODEL       55
REMARK 921   NORMALIZED FREE ENERGY PREDICTED BY IDOCK:   -5.74 KCAL/MOL
REMARK 922        TOTAL FREE ENERGY PREDICTED BY IDOCK:  -12.56 KCAL/MOL
REMARK 923 INTER-LIGAND FREE ENERGY PREDICTED BY IDOCK:   -9.59 KCAL/MOL
REMARK 924 INTRA-LIGAND FREE ENERGY PREDICTED BY IDOCK:   -2.97 KCAL/MOL
REMARK 927      BINDING AFFINITY PREDICTED BY RF-SCORE:    0.00 PKD
ROOT
HETATM    1  C   UNL     1     -10.762  15.128  66.007  1.00  0.00    -0.333 C  
HETATM    2  C   UNL     1     -11.921  14.152  65.919  1.00  0.00    -0.420 C  
ENDROOT
BRANCH   2   3
HETATM    3  C   UNL     1     -11.798  12.985  64.942  1.00  0.00    -0.361 C  
HETATM    4  O   UNL     1     -12.765  12.316  64.592  1.00  0.00    -0.555 OA 
BRANCH   3   5
HETATM    5  O   UNL     1     -10.549  12.858  64.433  1.00  0.00    -0.351 OA 
BRANCH   5   6
HETATM    6  C   UNL     1      -9.712  11.759  64.915  1.00  0.00    -0.175 C  
HETATM    7  C   UNL     1      -9.688  10.663  63.789  1.00  0.00    -0.382 C  
HETATM    8  C   UNL     1      -8.868   9.424  64.145  1.00  0.00    -0.216 C  
HETATM    9  C   UNL     1      -9.213  11.201  62.438  1.00  0.00    -0.244 C  
BRANCH   6  10
HETATM   10  O   UNL     1     -10.096  11.188  66.203  1.00  0.00    -0.222 OA 
BRANCH  10  11
HETATM   11  P   UNL     1      -9.128  11.530  67.515  1.00  0.00    -0.175 P  
HETATM   12  O   UNL     1      -8.346  12.602  66.720  1.00  0.00    -0.126 OA 
BRANCH  11  13
HETATM   13  C   UNL     1      -7.626  10.273  67.345  1.00  0.00    -0.094 C  
BRANCH  13  14
HETATM   14  C   UNL     1      -7.740   9.094  68.317  1.00  0.00    -0.091 C  
BRANCH  14  15
HETATM   15  C   UNL     1      -6.766   9.153  69.480  1.00  0.00    -0.047 C  
BRANCH  15  16
HETATM   16  C   UNL     1      -6.404   7.721  69.910  1.00  0.00    -0.030 C  
BRANCH  16  17
HETATM   17  C   UNL     1      -6.772   7.493  71.349  1.00  0.00    -0.049 A  
HETATM   18  C   UNL     1      -6.306   6.363  72.033  1.00  0.00    -0.046 A  
HETATM   19  C   UNL     1      -7.535   8.446  72.033  1.00  0.00    -0.135 A  
HETATM   20  C   UNL     1      -7.362   7.144  74.062  1.00  0.00    -0.106 A  
HETATM   21  C   UNL     1      -6.610   6.189  73.388  1.00  0.00    -0.074 A  
HETATM   22  C   UNL     1      -7.823   8.270  73.386  1.00  0.00    -0.203 A  
ENDBRANCH  16  17
ENDBRANCH  15  16
ENDBRANCH  14  15
ENDBRANCH  13  14
ENDBRANCH  11  13
BRANCH  11  23
HETATM   23  C   UNL     1     -10.053  10.261  68.456  1.00  0.00    -0.165 C  
BRANCH  23  24
HETATM   24  C   UNL     1     -11.257  10.810  69.245  1.00  0.00    -0.272 C  
HETATM   25  C   UNL     1     -13.026  10.641  71.012  1.00  0.00    -0.363 C  
HETATM   26  O   UNL     1     -11.806  11.855  68.873  1.00  0.00    -0.296 OA 
HETATM   27  N   UNL     1     -11.741  10.225  70.394  1.00  0.00    -0.296 N  
HETATM   28  C   UNL     1     -13.097  12.007  71.750  1.00  0.00    -0.355 C  
HETATM   29  O   UNL     1     -13.854  12.238  72.688  1.00  0.00    -0.078 OA 
HETATM   30  C   UNL     1     -11.040   9.355  71.317  1.00  0.00    -0.376 C  
HETATM   31  C   UNL     1     -12.129   8.587  72.087  1.00  0.00    -0.449 C  
HETATM   32  O   UNL     1     -12.353  12.989  71.200  1.00  0.00    -0.322 OA 
HETATM   33  C   UNL     1     -13.362   9.513  72.007  1.00  0.00    -0.535 C  
BRANCH  31  34
HETATM   34  C   UNL     1     -12.453   7.151  71.571  1.00  0.00    -0.418 C  
HETATM   35  C   UNL     1     -10.305   6.786  70.268  1.00  0.00    -0.224 C  
HETATM   36  C   UNL     1      -9.822   5.723  71.248  1.00  0.00    -0.223 C  
HETATM   37  C   UNL     1     -10.488   5.830  72.619  1.00  0.00    -0.243 C  
HETATM   38  C   UNL     1     -11.828   6.811  70.208  1.00  0.00    -0.359 C  
HETATM   39  C   UNL     1     -12.005   6.043  72.559  1.00  0.00    -0.176 C  
ENDBRANCH  31  34
ENDBRANCH  23  24
ENDBRANCH  11  23
ENDBRANCH  10  11
ENDBRANCH   6  10
ENDBRANCH   5   6
ENDBRANCH   3   5
ENDBRANCH   2   3
TORSDOF 13
ENDMDL
MODEL       56
REMARK 921   NORMALIZED FREE ENERGY PREDICTED BY IDOCK:   -5.73 KCAL/MOL
REMARK 922        TOTAL FREE ENERGY PREDICTED BY IDOCK:  -12.55 KCAL/MOL
REMARK 923 INTER-LIGAND FREE ENERGY PREDICTED BY IDOCK:   -9.28 KCAL/MOL
REMARK 924 INTRA-LIGAND FREE ENERGY PREDICTED BY IDOCK:   -3.27 KCAL/MOL
REMARK 927      BINDING AFFINITY PREDICTED BY RF-SCORE:    0.00 PKD
ROOT
HETATM    1  C   UNL     1     -11.235  15.619  64.353  1.00  0.00    -0.249 C  
HETATM    2  C   UNL     1     -12.291  14.575  64.665  1.00  0.00    -0.419 C  
ENDROOT
BRANCH   2   3
HETATM    3  C   UNL     1     -11.972  13.118  64.339  1.00  0.00    -0.397 C  
HETATM    4  O   UNL     1     -12.816  12.339  63.910  1.00  0.00    -0.720 OA 
BRANCH   3   5
HETATM    5  O   UNL     1     -10.653  12.830  64.466  1.00  0.00    -0.318 OA 
BRANCH   5   6
HETATM    6  C   UNL     1     -10.241  11.922  65.536  1.00  0.00    -0.254 C  
HETATM    7  C   UNL     1     -10.283  10.463  64.953  1.00  0.00    -0.330 C  
HETATM    8  C   UNL     1      -9.899   9.380  65.959  1.00  0.00    -0.366 C  
HETATM    9  C   UNL     1      -9.431  10.296  63.693  1.00  0.00    -0.348 C  
BRANCH   6  10
HETATM   10  O   UNL     1     -11.003  12.019  66.778  1.00  0.00    -0.256 OA 
BRANCH  10  11
HETATM   11  P   UNL     1     -10.284  12.798  68.063  1.00  0.00    -0.236 P  
HETATM   12  O   UNL     1     -10.473  14.180  67.393  1.00  0.00    -0.267 OA 
BRANCH  11  13
HETATM   13  C   UNL     1      -8.372  12.812  67.609  1.00  0.00    -0.175 C  
BRANCH  13  14
HETATM   14  C   UNL     1      -7.533  11.994  68.597  1.00  0.00    -0.113 C  
BRANCH  14  15
HETATM   15  C   UNL     1      -6.208  11.511  68.035  1.00  0.00    -0.046 C  
BRANCH  15  16
HETATM   16  C   UNL     1      -6.367  11.238  66.530  1.00  0.00    -0.119 C  
BRANCH  16  17
HETATM   17  C   UNL     1      -6.307   9.763  66.252  1.00  0.00    -0.070 A  
HETATM   18  C   UNL     1      -6.466   8.835  67.289  1.00  0.00    -0.058 A  
HETATM   19  C   UNL     1      -6.152   9.307  64.937  1.00  0.00    -0.066 A  
HETATM   20  C   UNL     1      -6.316   7.019  65.701  1.00  0.00    -0.046 A  
HETATM   21  C   UNL     1      -6.463   7.463  67.010  1.00  0.00    -0.060 A  
HETATM   22  C   UNL     1      -6.161   7.939  64.667  1.00  0.00    -0.048 A  
ENDBRANCH  16  17
ENDBRANCH  15  16
ENDBRANCH  14  15
ENDBRANCH  13  14
ENDBRANCH  11  13
BRANCH  11  23
HETATM   23  C   UNL     1     -10.061  11.164  68.856  1.00  0.00    -0.186 C  
BRANCH  23  24
HETATM   24  C   UNL     1     -11.300  10.655  69.618  1.00  0.00    -0.294 C  
HETATM   25  C   UNL     1     -12.535   8.947  70.973  1.00  0.00    -0.140 C  
HETATM   26  O   UNL     1     -12.360  11.290  69.554  1.00  0.00    -0.277 OA 
HETATM   27  N   UNL     1     -11.288   9.540  70.426  1.00  0.00    -0.260 N  
HETATM   28  C   UNL     1     -13.283   9.690  72.114  1.00  0.00    -0.444 C  
HETATM   29  O   UNL     1     -13.962   9.127  72.966  1.00  0.00    -0.365 OA 
HETATM   30  C   UNL     1     -10.151   8.925  71.083  1.00  0.00    -0.271 C  
HETATM   31  C   UNL     1     -10.574   7.478  71.396  1.00  0.00    -0.229 C  
HETATM   32  O   UNL     1     -13.247  11.038  72.034  1.00  0.00    -0.499 OA 
HETATM   33  C   UNL     1     -12.114   7.551  71.473  1.00  0.00    -0.345 C  
BRANCH  31  34
HETATM   34  C   UNL     1     -10.098   6.389  70.386  1.00  0.00    -0.221 C  
HETATM   35  C   UNL     1      -7.663   6.327  71.105  1.00  0.00    -0.102 C  
HETATM   36  C   UNL     1      -7.811   4.926  71.688  1.00  0.00    -0.106 C  
HETATM   37  C   UNL     1      -9.258   4.572  72.027  1.00  0.00    -0.170 C  
HETATM   38  C   UNL     1      -8.631   6.532  69.944  1.00  0.00    -0.139 C  
HETATM   39  C   UNL     1     -10.264   4.949  70.933  1.00  0.00    -0.272 C  
ENDBRANCH  31  34
ENDBRANCH  23  24
ENDBRANCH  11  23
ENDBRANCH  10  11
ENDBRANCH   6  10
ENDBRANCH   5   6
ENDBRANCH   3   5
ENDBRANCH   2   3
TORSDOF 13
ENDMDL
MODEL       57
REMARK 921   NORMALIZED FREE ENERGY PREDICTED BY IDOCK:   -5.73 KCAL/MOL
REMARK 922        TOTAL FREE ENERGY PREDICTED BY IDOCK:  -12.55 KCAL/MOL
REMARK 923 INTER-LIGAND FREE ENERGY PREDICTED BY IDOCK:   -9.80 KCAL/MOL
REMARK 924 INTRA-LIGAND FREE ENERGY PREDICTED BY IDOCK:   -2.75 KCAL/MOL
REMARK 927      BINDING AFFINITY PREDICTED BY RF-SCORE:    0.00 PKD
ROOT
HETATM    1  C   UNL     1      -5.300   5.447  70.168  1.00  0.00    -0.004 C  
HETATM    2  C   UNL     1      -6.081   6.680  70.585  1.00  0.00    -0.027 C  
ENDROOT
BRANCH   2   3
HETATM    3  C   UNL     1      -7.016   6.560  71.786  1.00  0.00    -0.076 C  
HETATM    4  O   UNL     1      -6.916   7.282  72.773  1.00  0.00    -0.067 OA 
BRANCH   3   5
HETATM    5  O   UNL     1      -8.014   5.665  71.585  1.00  0.00    -0.112 OA 
BRANCH   5   6
HETATM    6  C   UNL     1      -9.344   5.980  72.106  1.00  0.00    -0.148 C  
HETATM    7  C   UNL     1      -9.921   4.662  72.739  1.00  0.00    -0.201 C  
HETATM    8  C   UNL     1     -11.328   4.814  73.315  1.00  0.00    -0.408 C  
HETATM    9  C   UNL     1      -9.008   4.060  73.809  1.00  0.00    -0.091 C  
BRANCH   6  10
HETATM   10  O   UNL     1     -10.279   6.562  71.148  1.00  0.00    -0.190 OA 
BRANCH  10  11
HETATM   11  P   UNL     1     -10.520   8.210  71.211  1.00  0.00    -0.226 P  
HETATM   12  O   UNL     1     -10.377   8.219  72.753  1.00  0.00    -0.318 OA 
BRANCH  11  13
HETATM   13  C   UNL     1     -12.470   8.405  71.367  1.00  0.00    -0.288 C  
BRANCH  13  14
HETATM   14  C   UNL     1     -12.868   9.629  72.198  1.00  0.00    -0.460 C  
BRANCH  14  15
HETATM   15  C   UNL     1     -12.602  10.958  71.512  1.00  0.00    -0.480 C  
BRANCH  15  16
HETATM   16  C   UNL     1     -13.534  12.028  72.102  1.00  0.00    -0.338 C  
BRANCH  16  17
HETATM   17  C   UNL     1     -12.956  13.400  71.902  1.00  0.00    -0.422 A  
HETATM   18  C   UNL     1     -13.139  14.398  72.868  1.00  0.00    -0.612 A  
HETATM   19  C   UNL     1     -12.177  13.670  70.771  1.00  0.00    -0.424 A  
HETATM   20  C   UNL     1     -11.771  15.914  71.574  1.00  0.00    -0.545 A  
HETATM   21  C   UNL     1     -12.550  15.656  72.697  1.00  0.00    -0.532 A  
HETATM   22  C   UNL     1     -11.585  14.923  70.614  1.00  0.00    -0.341 A  
ENDBRANCH  16  17
ENDBRANCH  15  16
ENDBRANCH  14  15
ENDBRANCH  13  14
ENDBRANCH  11  13
BRANCH  11  23
HETATM   23  C   UNL     1     -10.689   8.198  69.389  1.00  0.00    -0.156 C  
BRANCH  23  24
HETATM   24  C   UNL     1      -9.461   8.741  68.636  1.00  0.00    -0.141 C  
HETATM   25  C   UNL     1      -8.265  10.484  67.288  1.00  0.00    -0.119 C  
HETATM   26  O   UNL     1      -8.485   8.004  68.444  1.00  0.00    -0.126 OA 
HETATM   27  N   UNL     1      -9.355  10.043  68.195  1.00  0.00    -0.131 N  
HETATM   28  C   UNL     1      -6.825  10.624  67.856  1.00  0.00    -0.073 C  
HETATM   29  O   UNL     1      -5.995  11.416  67.423  1.00  0.00    -0.057 OA 
HETATM   30  C   UNL     1     -10.051  11.213  68.693  1.00  0.00    -0.200 C  
HETATM   31  C   UNL     1      -9.987  12.257  67.563  1.00  0.00    -0.201 C  
HETATM   32  O   UNL     1      -6.491   9.708  68.789  1.00  0.00    -0.047 OA 
HETATM   33  C   UNL     1      -8.732  11.854  66.758  1.00  0.00    -0.193 C  
BRANCH  31  34
HETATM   34  C   UNL     1     -11.248  12.361  66.651  1.00  0.00    -0.366 C  
HETATM   35  C   UNL     1     -11.644  14.852  66.934  1.00  0.00    -0.286 C  
HETATM   36  C   UNL     1     -11.259  15.137  65.487  1.00  0.00    -0.320 C  
HETATM   37  C   UNL     1     -10.394  14.038  64.873  1.00  0.00    -0.434 C  
HETATM   38  C   UNL     1     -12.243  13.457  67.067  1.00  0.00    -0.321 C  
HETATM   39  C   UNL     1     -10.894  12.617  65.164  1.00  0.00    -0.321 C  
ENDBRANCH  31  34
ENDBRANCH  23  24
ENDBRANCH  11  23
ENDBRANCH  10  11
ENDBRANCH   6  10
ENDBRANCH   5   6
ENDBRANCH   3   5
ENDBRANCH   2   3
TORSDOF 13
ENDMDL
MODEL       58
REMARK 921   NORMALIZED FREE ENERGY PREDICTED BY IDOCK:   -5.72 KCAL/MOL
REMARK 922        TOTAL FREE ENERGY PREDICTED BY IDOCK:  -12.53 KCAL/MOL
REMARK 923 INTER-LIGAND FREE ENERGY PREDICTED BY IDOCK:  -10.83 KCAL/MOL
REMARK 924 INTRA-LIGAND FREE ENERGY PREDICTED BY IDOCK:   -1.70 KCAL/MOL
REMARK 927      BINDING AFFINITY PREDICTED BY RF-SCORE:    0.00 PKD
ROOT
HETATM    1  C   UNL     1     -10.286   4.349  73.149  1.00  0.00    -0.232 C  
HETATM    2  C   UNL     1     -11.383   5.299  72.705  1.00  0.00    -0.342 C  
ENDROOT
BRANCH   2   3
HETATM    3  C   UNL     1     -11.124   6.798  72.835  1.00  0.00    -0.243 C  
HETATM    4  O   UNL     1     -10.481   7.277  73.763  1.00  0.00    -0.370 OA 
BRANCH   3   5
HETATM    5  O   UNL     1     -11.577   7.502  71.768  1.00  0.00    -0.256 OA 
BRANCH   5   6
HETATM    6  C   UNL     1     -11.439   8.958  71.789  1.00  0.00    -0.353 C  
HETATM    7  C   UNL     1     -12.838   9.565  71.404  1.00  0.00    -0.443 C  
HETATM    8  C   UNL     1     -12.861  11.092  71.358  1.00  0.00    -0.548 C  
HETATM    9  C   UNL     1     -13.972   9.078  72.309  1.00  0.00    -0.522 C  
BRANCH   6  10
HETATM   10  O   UNL     1     -10.375   9.506  70.953  1.00  0.00    -0.291 OA 
BRANCH  10  11
HETATM   11  P   UNL     1     -10.490   9.270  69.308  1.00  0.00    -0.201 P  
HETATM   12  O   UNL     1     -10.848   7.776  69.500  1.00  0.00    -0.230 OA 
BRANCH  11  13
HETATM   13  C   UNL     1      -8.664   8.788  68.762  1.00  0.00    -0.137 C  
BRANCH  13  14
HETATM   14  C   UNL     1      -8.375   9.161  67.305  1.00  0.00    -0.121 C  
BRANCH  14  15
HETATM   15  C   UNL     1      -7.132  10.014  67.118  1.00  0.00    -0.089 C  
BRANCH  15  16
HETATM   16  C   UNL     1      -6.420  10.173  68.470  1.00  0.00    -0.049 C  
BRANCH  16  17
HETATM   17  C   UNL     1      -6.125  11.621  68.745  1.00  0.00    -0.050 A  
HETATM   18  C   UNL     1      -5.945  12.076  70.057  1.00  0.00    -0.159 A  
HETATM   19  C   UNL     1      -5.968  12.515  67.679  1.00  0.00    -0.136 A  
HETATM   20  C   UNL     1      -5.456  14.294  69.232  1.00  0.00    -0.081 A  
HETATM   21  C   UNL     1      -5.618  13.415  70.297  1.00  0.00    -0.143 A  
HETATM   22  C   UNL     1      -5.630  13.845  67.926  1.00  0.00    -0.103 A  
ENDBRANCH  16  17
ENDBRANCH  15  16
ENDBRANCH  14  15
ENDBRANCH  13  14
ENDBRANCH  11  13
BRANCH  11  23
HETATM   23  C   UNL     1     -10.068  11.036  69.082  1.00  0.00    -0.146 C  
BRANCH  23  24
HETATM   24  C   UNL     1     -11.086  11.828  68.240  1.00  0.00    -0.240 C  
HETATM   25  C   UNL     1     -11.923  13.923  67.149  1.00  0.00    -0.420 C  
HETATM   26  O   UNL     1     -12.157  11.298  67.918  1.00  0.00    -0.634 OA 
HETATM   27  N   UNL     1     -10.853  13.101  67.768  1.00  0.00    -0.240 N  
HETATM   28  C   UNL     1     -12.426  13.553  65.726  1.00  0.00    -0.462 C  
HETATM   29  O   UNL     1     -12.878  14.368  64.928  1.00  0.00    -0.645 OA 
HETATM   30  C   UNL     1      -9.576  13.749  67.540  1.00  0.00    -0.219 C  
HETATM   31  C   UNL     1      -9.864  15.261  67.531  1.00  0.00    -0.213 C  
HETATM   32  O   UNL     1     -12.460  12.230  65.461  1.00  0.00    -0.597 OA 
HETATM   33  C   UNL     1     -11.350  15.353  67.124  1.00  0.00    -0.203 C  
BRANCH  31  34
HETATM   34  C   UNL     1      -9.583  16.021  68.864  1.00  0.00    -0.236 C  
HETATM   35  C   UNL     1      -7.772  17.564  67.979  1.00  0.00    -0.211 C  
HETATM   36  C   UNL     1      -8.667  18.790  68.118  1.00  0.00    -0.335 C  
HETATM   37  C   UNL     1     -10.154  18.442  68.145  1.00  0.00    -0.408 C  
HETATM   38  C   UNL     1      -8.134  16.513  69.022  1.00  0.00    -0.214 C  
HETATM   39  C   UNL     1     -10.500  17.257  69.055  1.00  0.00    -0.309 C  
ENDBRANCH  31  34
ENDBRANCH  23  24
ENDBRANCH  11  23
ENDBRANCH  10  11
ENDBRANCH   6  10
ENDBRANCH   5   6
ENDBRANCH   3   5
ENDBRANCH   2   3
TORSDOF 13
ENDMDL
MODEL       59
REMARK 921   NORMALIZED FREE ENERGY PREDICTED BY IDOCK:   -5.67 KCAL/MOL
REMARK 922        TOTAL FREE ENERGY PREDICTED BY IDOCK:  -12.45 KCAL/MOL
REMARK 923 INTER-LIGAND FREE ENERGY PREDICTED BY IDOCK:  -10.65 KCAL/MOL
REMARK 924 INTRA-LIGAND FREE ENERGY PREDICTED BY IDOCK:   -1.79 KCAL/MOL
REMARK 927      BINDING AFFINITY PREDICTED BY RF-SCORE:    0.00 PKD
ROOT
HETATM    1  C   UNL     1     -10.162  20.202  66.872  1.00  0.00    -0.566 C  
HETATM    2  C   UNL     1     -10.521  18.909  66.162  1.00  0.00    -0.521 C  
ENDROOT
BRANCH   2   3
HETATM    3  C   UNL     1     -10.310  17.599  66.915  1.00  0.00    -0.329 C  
HETATM    4  O   UNL     1     -10.902  17.336  67.957  1.00  0.00    -0.381 OA 
BRANCH   3   5
HETATM    5  O   UNL     1      -9.501  16.737  66.251  1.00  0.00    -0.268 OA 
BRANCH   5   6
HETATM    6  C   UNL     1      -8.918  15.621  66.994  1.00  0.00    -0.222 C  
HETATM    7  C   UNL     1      -7.370  15.879  67.084  1.00  0.00    -0.258 C  
HETATM    8  C   UNL     1      -6.598  14.783  67.819  1.00  0.00    -0.188 C  
HETATM    9  C   UNL     1      -7.023  17.232  67.707  1.00  0.00    -0.172 C  
BRANCH   6  10
HETATM   10  O   UNL     1      -9.203  14.289  66.467  1.00  0.00    -0.270 OA 
BRANCH  10  11
HETATM   11  P   UNL     1     -10.402  13.406  67.215  1.00  0.00    -0.246 P  
HETATM   12  O   UNL     1     -11.505  14.326  66.639  1.00  0.00    -0.336 OA 
BRANCH  11  13
HETATM   13  C   UNL     1     -10.588  14.248  68.982  1.00  0.00    -0.232 C  
BRANCH  13  14
HETATM   14  C   UNL     1     -11.983  14.040  69.581  1.00  0.00    -0.393 C  
BRANCH  14  15
HETATM   15  C   UNL     1     -12.073  12.879  70.555  1.00  0.00    -0.364 C  
BRANCH  15  16
HETATM   16  C   UNL     1     -12.034  11.557  69.771  1.00  0.00    -0.415 C  
BRANCH  16  17
HETATM   17  C   UNL     1     -11.867  10.393  70.707  1.00  0.00    -0.466 A  
HETATM   18  C   UNL     1     -10.605   9.822  70.917  1.00  0.00    -0.344 A  
HETATM   19  C   UNL     1     -12.969   9.911  71.424  1.00  0.00    -0.504 A  
HETATM   20  C   UNL     1     -11.551   8.306  72.545  1.00  0.00    -0.454 A  
HETATM   21  C   UNL     1     -10.453   8.774  71.831  1.00  0.00    -0.423 A  
HETATM   22  C   UNL     1     -12.805   8.874  72.342  1.00  0.00    -0.446 A  
ENDBRANCH  16  17
ENDBRANCH  15  16
ENDBRANCH  14  15
ENDBRANCH  13  14
ENDBRANCH  11  13
BRANCH  11  23
HETATM   23  C   UNL     1      -9.097  12.318  67.896  1.00  0.00    -0.190 C  
BRANCH  23  24
HETATM   24  C   UNL     1      -8.525  11.307  66.885  1.00  0.00    -0.152 C  
HETATM   25  C   UNL     1      -8.356   9.019  65.875  1.00  0.00    -0.125 C  
HETATM   26  O   UNL     1      -7.572  11.634  66.165  1.00  0.00     0.083 OA 
HETATM   27  N   UNL     1      -9.050  10.049  66.690  1.00  0.00    -0.146 N  
HETATM   28  C   UNL     1      -8.327   9.179  64.330  1.00  0.00    -0.173 C  
HETATM   29  O   UNL     1      -8.271   8.237  63.546  1.00  0.00    -0.153 OA 
HETATM   30  C   UNL     1     -10.394   9.588  66.978  1.00  0.00    -0.250 C  
HETATM   31  C   UNL     1     -10.304   8.055  67.081  1.00  0.00    -0.395 C  
HETATM   32  O   UNL     1      -8.232  10.453  63.892  1.00  0.00    -0.159 OA 
HETATM   33  C   UNL     1      -9.065   7.699  66.231  1.00  0.00    -0.204 C  
BRANCH  31  34
HETATM   34  C   UNL     1     -10.201   7.468  68.523  1.00  0.00    -0.216 C  
HETATM   35  C   UNL     1     -10.639   5.042  67.915  1.00  0.00     0.055 C  
HETATM   36  C   UNL     1      -9.207   4.640  68.249  1.00  0.00    -0.166 C  
HETATM   37  C   UNL     1      -8.233   5.815  68.210  1.00  0.00    -0.108 C  
HETATM   38  C   UNL     1     -11.077   6.228  68.767  1.00  0.00    -0.424 C  
HETATM   39  C   UNL     1      -8.752   7.077  68.910  1.00  0.00    -0.131 C  
ENDBRANCH  31  34
ENDBRANCH  23  24
ENDBRANCH  11  23
ENDBRANCH  10  11
ENDBRANCH   6  10
ENDBRANCH   5   6
ENDBRANCH   3   5
ENDBRANCH   2   3
TORSDOF 13
ENDMDL
MODEL       60
REMARK 921   NORMALIZED FREE ENERGY PREDICTED BY IDOCK:   -5.64 KCAL/MOL
REMARK 922        TOTAL FREE ENERGY PREDICTED BY IDOCK:  -12.39 KCAL/MOL
REMARK 923 INTER-LIGAND FREE ENERGY PREDICTED BY IDOCK:  -10.98 KCAL/MOL
REMARK 924 INTRA-LIGAND FREE ENERGY PREDICTED BY IDOCK:   -1.41 KCAL/MOL
REMARK 927      BINDING AFFINITY PREDICTED BY RF-SCORE:    0.00 PKD
ROOT
HETATM    1  C   UNL     1     -13.207  10.037  71.337  1.00  0.00    -0.486 C  
HETATM    2  C   UNL     1     -11.852   9.418  71.628  1.00  0.00    -0.464 C  
ENDROOT
BRANCH   2   3
HETATM    3  C   UNL     1     -11.348   8.328  70.685  1.00  0.00    -0.244 C  
HETATM    4  O   UNL     1     -11.945   7.269  70.526  1.00  0.00    -0.255 OA 
BRANCH   3   5
HETATM    5  O   UNL     1     -10.257   8.711  69.977  1.00  0.00    -0.186 OA 
BRANCH   5   6
HETATM    6  C   UNL     1     -10.350   8.732  68.518  1.00  0.00    -0.199 C  
HETATM    7  C   UNL     1      -9.141   7.894  67.961  1.00  0.00    -0.132 C  
HETATM    8  C   UNL     1      -9.077   7.833  66.436  1.00  0.00    -0.216 C  
HETATM    9  C   UNL     1      -9.093   6.470  68.517  1.00  0.00    -0.127 C  
BRANCH   6  10
HETATM   10  O   UNL     1     -10.404  10.056  67.904  1.00  0.00    -0.180 OA 
BRANCH  10  11
HETATM   11  P   UNL     1      -9.110  11.075  68.158  1.00  0.00    -0.167 P  
HETATM   12  O   UNL     1      -9.058  10.711  69.662  1.00  0.00    -0.050 OA 
BRANCH  11  13
HETATM   13  C   UNL     1      -9.938  12.807  68.582  1.00  0.00    -0.091 C  
BRANCH  13  14
HETATM   14  C   UNL     1     -11.207  12.654  69.428  1.00  0.00    -0.205 C  
BRANCH  14  15
HETATM   15  C   UNL     1     -12.341  13.577  69.019  1.00  0.00    -0.049 C  
BRANCH  15  16
HETATM   16  C   UNL     1     -11.989  15.019  69.419  1.00  0.00    -0.336 C  
BRANCH  16  17
HETATM   17  C   UNL     1     -12.369  15.276  70.850  1.00  0.00    -0.433 A  
HETATM   18  C   UNL     1     -13.716  15.358  71.226  1.00  0.00    -0.558 A  
HETATM   19  C   UNL     1     -11.374  15.375  71.829  1.00  0.00    -0.457 A  
HETATM   20  C   UNL     1     -13.064  15.634  73.537  1.00  0.00    -0.638 A  
HETATM   21  C   UNL     1     -14.059  15.545  72.570  1.00  0.00    -0.595 A  
HETATM   22  C   UNL     1     -11.725  15.549  73.167  1.00  0.00    -0.455 A  
ENDBRANCH  16  17
ENDBRANCH  15  16
ENDBRANCH  14  15
ENDBRANCH  13  14
ENDBRANCH  11  13
BRANCH  11  23
HETATM   23  C   UNL     1      -9.173  11.505  66.380  1.00  0.00    -0.208 C  
BRANCH  23  24
HETATM   24  C   UNL     1     -10.384  12.368  65.980  1.00  0.00    -0.251 C  
HETATM   25  C   UNL     1     -11.566  14.563  65.722  1.00  0.00    -0.347 C  
HETATM   26  O   UNL     1     -11.449  11.821  65.670  1.00  0.00    -0.290 OA 
HETATM   27  N   UNL     1     -10.341  13.743  65.895  1.00  0.00    -0.301 N  
HETATM   28  C   UNL     1     -12.282  14.561  64.343  1.00  0.00    -0.458 C  
HETATM   29  O   UNL     1     -12.932  15.507  63.909  1.00  0.00    -0.478 OA 
HETATM   30  C   UNL     1      -9.181  14.589  65.696  1.00  0.00     0.318 C  
HETATM   31  C   UNL     1      -9.585  15.988  66.196  1.00  0.00    -0.366 C  
HETATM   32  O   UNL     1     -12.257  13.379  63.690  1.00  0.00    -0.616 OA 
HETATM   33  C   UNL     1     -11.123  16.000  66.056  1.00  0.00     0.016 C  
BRANCH  31  34
HETATM   34  C   UNL     1      -9.135  16.357  67.643  1.00  0.00    -0.198 C  
HETATM   35  C   UNL     1      -7.120  17.763  67.003  1.00  0.00    -0.209 C  
HETATM   36  C   UNL     1      -7.790  19.046  67.482  1.00  0.00    -0.263 C  
HETATM   37  C   UNL     1      -9.313  18.937  67.538  1.00  0.00    -0.327 C  
HETATM   38  C   UNL     1      -7.619  16.564  67.802  1.00  0.00    -0.162 C  
HETATM   39  C   UNL     1      -9.822  17.640  68.177  1.00  0.00    -0.318 C  
ENDBRANCH  31  34
ENDBRANCH  23  24
ENDBRANCH  11  23
ENDBRANCH  10  11
ENDBRANCH   6  10
ENDBRANCH   5   6
ENDBRANCH   3   5
ENDBRANCH   2   3
TORSDOF 13
ENDMDL
MODEL       61
REMARK 921   NORMALIZED FREE ENERGY PREDICTED BY IDOCK:   -5.57 KCAL/MOL
REMARK 922        TOTAL FREE ENERGY PREDICTED BY IDOCK:  -12.28 KCAL/MOL
REMARK 923 INTER-LIGAND FREE ENERGY PREDICTED BY IDOCK:   -9.83 KCAL/MOL
REMARK 924 INTRA-LIGAND FREE ENERGY PREDICTED BY IDOCK:   -2.45 KCAL/MOL
REMARK 927      BINDING AFFINITY PREDICTED BY RF-SCORE:    0.00 PKD
ROOT
HETATM    1  C   UNL     1     -11.151   7.388  72.867  1.00  0.00    -0.397 C  
HETATM    2  C   UNL     1     -11.204   8.797  72.305  1.00  0.00    -0.343 C  
ENDROOT
BRANCH   2   3
HETATM    3  C   UNL     1     -11.527   8.961  70.822  1.00  0.00    -0.275 C  
HETATM    4  O   UNL     1     -11.905  10.026  70.345  1.00  0.00    -0.266 OA 
BRANCH   3   5
HETATM    5  O   UNL     1     -11.241   7.851  70.098  1.00  0.00    -0.242 OA 
BRANCH   5   6
HETATM    6  C   UNL     1     -10.151   7.920  69.126  1.00  0.00    -0.197 C  
HETATM    7  C   UNL     1      -8.898   7.232  69.781  1.00  0.00    -0.142 C  
HETATM    8  C   UNL     1      -7.652   7.239  68.897  1.00  0.00    -0.103 C  
HETATM    9  C   UNL     1      -9.172   5.799  70.241  1.00  0.00    -0.174 C  
BRANCH   6  10
HETATM   10  O   UNL     1      -9.825   9.255  68.632  1.00  0.00    -0.155 OA 
BRANCH  10  11
HETATM   11  P   UNL     1     -10.314   9.644  67.087  1.00  0.00    -0.231 P  
HETATM   12  O   UNL     1     -10.513   8.153  66.723  1.00  0.00    -0.326 OA 
BRANCH  11  13
HETATM   13  C   UNL     1      -8.643   9.699  66.053  1.00  0.00    -0.132 C  
BRANCH  13  14
HETATM   14  C   UNL     1      -8.663   8.733  64.863  1.00  0.00    -0.161 C  
BRANCH  14  15
HETATM   15  C   UNL     1      -7.546   7.705  64.880  1.00  0.00    -0.099 C  
BRANCH  15  16
HETATM   16  C   UNL     1      -8.073   6.377  64.313  1.00  0.00    -0.063 C  
BRANCH  16  17
HETATM   17  C   UNL     1      -8.185   5.346  65.402  1.00  0.00    -0.130 A  
HETATM   18  C   UNL     1      -7.035   4.797  65.984  1.00  0.00    -0.066 A  
HETATM   19  C   UNL     1      -9.446   4.975  65.883  1.00  0.00    -0.171 A  
HETATM   20  C   UNL     1      -8.407   3.521  67.511  1.00  0.00    -0.095 A  
HETATM   21  C   UNL     1      -7.151   3.879  67.034  1.00  0.00    -0.063 A  
HETATM   22  C   UNL     1      -9.551   4.068  66.937  1.00  0.00    -0.232 A  
ENDBRANCH  16  17
ENDBRANCH  15  16
ENDBRANCH  14  15
ENDBRANCH  13  14
ENDBRANCH  11  13
BRANCH  11  23
HETATM   23  C   UNL     1     -10.079  11.407  67.518  1.00  0.00    -0.183 C  
BRANCH  23  24
HETATM   24  C   UNL     1     -11.056  12.367  66.814  1.00  0.00    -0.285 C  
HETATM   25  C   UNL     1     -11.718  14.614  65.922  1.00  0.00    -0.301 C  
HETATM   26  O   UNL     1     -12.206  11.988  66.556  1.00  0.00    -0.548 OA 
HETATM   27  N   UNL     1     -10.709  13.633  66.398  1.00  0.00    -0.280 N  
HETATM   28  C   UNL     1     -12.372  14.402  64.529  1.00  0.00    -0.418 C  
HETATM   29  O   UNL     1     -12.783  15.316  63.821  1.00  0.00    -0.687 OA 
HETATM   30  C   UNL     1      -9.385  14.143  66.098  1.00  0.00    -0.136 C  
HETATM   31  C   UNL     1      -9.487  15.675  66.202  1.00  0.00    -0.376 C  
HETATM   32  O   UNL     1     -12.587  13.112  64.192  1.00  0.00    -0.621 OA 
HETATM   33  C   UNL     1     -10.979  15.966  65.931  1.00  0.00    -0.151 C  
BRANCH  31  34
HETATM   34  C   UNL     1      -9.013  16.306  67.548  1.00  0.00    -0.193 C  
HETATM   35  C   UNL     1      -7.980  18.409  66.570  1.00  0.00    -0.294 C  
HETATM   36  C   UNL     1      -9.061  19.294  67.180  1.00  0.00    -0.346 C  
HETATM   37  C   UNL     1     -10.341  18.528  67.510  1.00  0.00    -0.440 C  
HETATM   38  C   UNL     1      -7.747  17.172  67.431  1.00  0.00    -0.191 C  
HETATM   39  C   UNL     1     -10.100  17.187  68.214  1.00  0.00    -0.314 C  
ENDBRANCH  31  34
ENDBRANCH  23  24
ENDBRANCH  11  23
ENDBRANCH  10  11
ENDBRANCH   6  10
ENDBRANCH   5   6
ENDBRANCH   3   5
ENDBRANCH   2   3
TORSDOF 13
ENDMDL
MODEL       62
REMARK 921   NORMALIZED FREE ENERGY PREDICTED BY IDOCK:   -5.56 KCAL/MOL
REMARK 922        TOTAL FREE ENERGY PREDICTED BY IDOCK:  -12.25 KCAL/MOL
REMARK 923 INTER-LIGAND FREE ENERGY PREDICTED BY IDOCK:   -8.92 KCAL/MOL
REMARK 924 INTRA-LIGAND FREE ENERGY PREDICTED BY IDOCK:   -3.33 KCAL/MOL
REMARK 927      BINDING AFFINITY PREDICTED BY RF-SCORE:    0.00 PKD
ROOT
HETATM    1  C   UNL     1      -9.982   6.967  66.342  1.00  0.00    -0.077 C  
HETATM    2  C   UNL     1     -10.602   5.872  67.190  1.00  0.00    -0.373 C  
ENDROOT
BRANCH   2   3
HETATM    3  C   UNL     1     -10.107   5.715  68.626  1.00  0.00    -0.183 C  
HETATM    4  O   UNL     1      -8.914   5.669  68.908  1.00  0.00    -0.111 OA 
BRANCH   3   5
HETATM    5  O   UNL     1     -11.112   5.752  69.534  1.00  0.00    -0.366 OA 
BRANCH   5   6
HETATM    6  C   UNL     1     -10.934   6.570  70.733  1.00  0.00    -0.276 C  
HETATM    7  C   UNL     1     -11.034   5.608  71.973  1.00  0.00    -0.302 C  
HETATM    8  C   UNL     1     -10.890   6.314  73.320  1.00  0.00    -0.269 C  
HETATM    9  C   UNL     1     -10.039   4.447  71.912  1.00  0.00    -0.245 C  
BRANCH   6  10
HETATM   10  O   UNL     1     -11.844   7.704  70.868  1.00  0.00    -0.289 OA 
BRANCH  10  11
HETATM   11  P   UNL     1     -11.167   9.218  71.031  1.00  0.00    -0.383 P  
HETATM   12  O   UNL     1     -11.647   9.326  72.499  1.00  0.00     0.038 OA 
BRANCH  11  13
HETATM   13  C   UNL     1     -12.589  10.445  70.450  1.00  0.00    -0.254 C  
BRANCH  13  14
HETATM   14  C   UNL     1     -12.471  11.825  71.107  1.00  0.00    -0.390 C  
BRANCH  14  15
HETATM   15  C   UNL     1     -12.523  12.984  70.129  1.00  0.00    -0.166 C  
BRANCH  15  16
HETATM   16  C   UNL     1     -11.952  14.242  70.803  1.00  0.00    -0.390 C  
BRANCH  16  17
HETATM   17  C   UNL     1     -11.144  15.046  69.824  1.00  0.00    -0.297 A  
HETATM   18  C   UNL     1     -11.777  15.807  68.833  1.00  0.00    -0.404 A  
HETATM   19  C   UNL     1      -9.749  15.085  69.937  1.00  0.00     0.062 A  
HETATM   20  C   UNL     1      -9.633  16.633  68.084  1.00  0.00    -0.228 A  
HETATM   21  C   UNL     1     -11.017  16.594  67.960  1.00  0.00    -0.311 A  
HETATM   22  C   UNL     1      -9.001  15.881  69.070  1.00  0.00    -0.245 A  
ENDBRANCH  16  17
ENDBRANCH  15  16
ENDBRANCH  14  15
ENDBRANCH  13  14
ENDBRANCH  11  13
BRANCH  11  23
HETATM   23  C   UNL     1     -10.600   9.090  69.296  1.00  0.00    -0.213 C  
BRANCH  23  24
HETATM   24  C   UNL     1      -9.230   9.741  69.028  1.00  0.00    -0.165 C  
HETATM   25  C   UNL     1      -7.745  11.430  67.922  1.00  0.00    -0.114 C  
HETATM   26  O   UNL     1      -8.203   9.210  69.470  1.00  0.00    -0.109 OA 
HETATM   27  N   UNL     1      -9.076  10.933  68.356  1.00  0.00    -0.157 N  
HETATM   28  C   UNL     1      -6.761  11.977  68.992  1.00  0.00    -0.100 C  
HETATM   29  O   UNL     1      -5.918  12.839  68.768  1.00  0.00    -0.066 OA 
HETATM   30  C   UNL     1     -10.048  11.995  68.186  1.00  0.00    -0.200 C  
HETATM   31  C   UNL     1      -9.580  12.808  66.965  1.00  0.00    -0.229 C  
HETATM   32  O   UNL     1      -6.802  11.338  70.181  1.00  0.00    -0.136 OA 
HETATM   33  C   UNL     1      -8.059  12.547  66.909  1.00  0.00    -0.039 C  
BRANCH  31  34
HETATM   34  C   UNL     1     -10.273  12.471  65.609  1.00  0.00    -0.287 C  
HETATM   35  C   UNL     1     -12.519  13.538  66.123  1.00  0.00    -0.424 C  
HETATM   36  C   UNL     1     -12.294  14.642  65.096  1.00  0.00    -0.248 C  
HETATM   37  C   UNL     1     -10.819  14.857  64.765  1.00  0.00    -0.382 C  
HETATM   38  C   UNL     1     -11.794  12.262  65.708  1.00  0.00    -0.417 C  
HETATM   39  C   UNL     1     -10.038  13.558  64.529  1.00  0.00    -0.179 C  
ENDBRANCH  31  34
ENDBRANCH  23  24
ENDBRANCH  11  23
ENDBRANCH  10  11
ENDBRANCH   6  10
ENDBRANCH   5   6
ENDBRANCH   3   5
ENDBRANCH   2   3
TORSDOF 13
ENDMDL
MODEL       63
REMARK 921   NORMALIZED FREE ENERGY PREDICTED BY IDOCK:   -5.56 KCAL/MOL
REMARK 922        TOTAL FREE ENERGY PREDICTED BY IDOCK:  -12.25 KCAL/MOL
REMARK 923 INTER-LIGAND FREE ENERGY PREDICTED BY IDOCK:  -11.45 KCAL/MOL
REMARK 924 INTRA-LIGAND FREE ENERGY PREDICTED BY IDOCK:   -0.80 KCAL/MOL
REMARK 927      BINDING AFFINITY PREDICTED BY RF-SCORE:    0.00 PKD
ROOT
HETATM    1  C   UNL     1      -8.780   5.356  66.130  1.00  0.00    -0.129 C  
HETATM    2  C   UNL     1      -8.349   6.500  65.229  1.00  0.00    -0.121 C  
ENDROOT
BRANCH   2   3
HETATM    3  C   UNL     1      -7.377   7.529  65.799  1.00  0.00    -0.070 C  
HETATM    4  O   UNL     1      -6.464   7.222  66.558  1.00  0.00    -0.048 OA 
BRANCH   3   5
HETATM    5  O   UNL     1      -7.567   8.769  65.286  1.00  0.00    -0.087 OA 
BRANCH   5   6
HETATM    6  C   UNL     1      -8.931   9.182  64.956  1.00  0.00    -0.171 C  
HETATM    7  C   UNL     1      -8.827  10.337  63.896  1.00  0.00    -0.234 C  
HETATM    8  C   UNL     1     -10.176  10.903  63.457  1.00  0.00    -0.379 C  
HETATM    9  C   UNL     1      -8.027   9.940  62.653  1.00  0.00    -0.135 C  
BRANCH   6  10
HETATM   10  O   UNL     1      -9.765   9.576  66.089  1.00  0.00    -0.216 OA 
BRANCH  10  11
HETATM   11  P   UNL     1      -9.410  11.019  66.841  1.00  0.00    -0.179 P  
HETATM   12  O   UNL     1      -7.888  10.760  66.725  1.00  0.00    -0.123 OA 
BRANCH  11  13
HETATM   13  C   UNL     1      -9.366  10.567  68.753  1.00  0.00    -0.180 C  
BRANCH  13  14
HETATM   14  C   UNL     1     -10.666   9.906  69.225  1.00  0.00    -0.247 C  
BRANCH  14  15
HETATM   15  C   UNL     1     -11.053  10.248  70.653  1.00  0.00    -0.358 C  
BRANCH  15  16
HETATM   16  C   UNL     1     -12.531  10.671  70.688  1.00  0.00    -0.462 C  
BRANCH  16  17
HETATM   17  C   UNL     1     -12.652  12.138  70.994  1.00  0.00    -0.359 A  
HETATM   18  C   UNL     1     -12.134  13.095  70.112  1.00  0.00    -0.392 A  
HETATM   19  C   UNL     1     -13.341  12.557  72.138  1.00  0.00    -0.540 A  
HETATM   20  C   UNL     1     -12.993  14.866  71.515  1.00  0.00    -0.419 A  
HETATM   21  C   UNL     1     -12.301  14.458  70.380  1.00  0.00    -0.406 A  
HETATM   22  C   UNL     1     -13.512  13.917  72.391  1.00  0.00    -0.661 A  
ENDBRANCH  16  17
ENDBRANCH  15  16
ENDBRANCH  14  15
ENDBRANCH  13  14
ENDBRANCH  11  13
BRANCH  11  23
HETATM   23  C   UNL     1     -11.209  11.326  66.977  1.00  0.00    -0.255 C  
BRANCH  23  24
HETATM   24  C   UNL     1     -11.686  12.614  66.280  1.00  0.00    -0.402 C  
HETATM   25  C   UNL     1     -11.557  15.073  65.814  1.00  0.00    -0.171 C  
HETATM   26  O   UNL     1     -12.733  12.600  65.621  1.00  0.00    -0.540 OA 
HETATM   27  N   UNL     1     -10.979  13.796  66.303  1.00  0.00    -0.296 N  
HETATM   28  C   UNL     1     -11.734  15.280  64.284  1.00  0.00    -0.215 C  
HETATM   29  O   UNL     1     -11.697  16.376  63.734  1.00  0.00    -1.049 OA 
HETATM   30  C   UNL     1      -9.558  13.982  66.528  1.00  0.00    -0.293 C  
HETATM   31  C   UNL     1      -9.387  15.446  66.969  1.00  0.00    -0.238 C  
HETATM   32  O   UNL     1     -12.072  14.169  63.596  1.00  0.00    -0.449 OA 
HETATM   33  C   UNL     1     -10.614  16.161  66.363  1.00  0.00    -0.269 C  
BRANCH  31  34
HETATM   34  C   UNL     1      -9.278  15.693  68.506  1.00  0.00    -0.197 C  
HETATM   35  C   UNL     1      -6.833  16.377  68.548  1.00  0.00    -0.144 C  
HETATM   36  C   UNL     1      -7.182  17.817  68.904  1.00  0.00    -0.256 C  
HETATM   37  C   UNL     1      -8.613  18.195  68.526  1.00  0.00    -0.307 C  
HETATM   38  C   UNL     1      -7.884  15.417  69.094  1.00  0.00    -0.212 C  
HETATM   39  C   UNL     1      -9.658  17.140  68.910  1.00  0.00    -0.237 C  
ENDBRANCH  31  34
ENDBRANCH  23  24
ENDBRANCH  11  23
ENDBRANCH  10  11
ENDBRANCH   6  10
ENDBRANCH   5   6
ENDBRANCH   3   5
ENDBRANCH   2   3
TORSDOF 13
ENDMDL
MODEL       64
REMARK 921   NORMALIZED FREE ENERGY PREDICTED BY IDOCK:   -5.53 KCAL/MOL
REMARK 922        TOTAL FREE ENERGY PREDICTED BY IDOCK:  -12.20 KCAL/MOL
REMARK 923 INTER-LIGAND FREE ENERGY PREDICTED BY IDOCK:  -11.17 KCAL/MOL
REMARK 924 INTRA-LIGAND FREE ENERGY PREDICTED BY IDOCK:   -1.03 KCAL/MOL
REMARK 927      BINDING AFFINITY PREDICTED BY RF-SCORE:    0.00 PKD
ROOT
HETATM    1  C   UNL     1     -10.780   4.686  73.957  1.00  0.00    -0.352 C  
HETATM    2  C   UNL     1     -11.259   5.539  72.797  1.00  0.00    -0.358 C  
ENDROOT
BRANCH   2   3
HETATM    3  C   UNL     1     -10.826   7.003  72.761  1.00  0.00    -0.288 C  
HETATM    4  O   UNL     1     -10.090   7.492  73.612  1.00  0.00    -0.327 OA 
BRANCH   3   5
HETATM    5  O   UNL     1     -11.246   7.646  71.644  1.00  0.00    -0.241 OA 
BRANCH   5   6
HETATM    6  C   UNL     1     -11.135   9.104  71.601  1.00  0.00    -0.375 C  
HETATM    7  C   UNL     1     -12.561   9.669  71.256  1.00  0.00    -0.443 C  
HETATM    8  C   UNL     1     -12.617  11.193  71.150  1.00  0.00    -0.513 C  
HETATM    9  C   UNL     1     -13.644   9.200  72.229  1.00  0.00    -0.548 C  
BRANCH   6  10
HETATM   10  O   UNL     1     -10.120   9.636  70.697  1.00  0.00    -0.275 OA 
BRANCH  10  11
HETATM   11  P   UNL     1     -10.327   9.369  69.065  1.00  0.00    -0.214 P  
HETATM   12  O   UNL     1     -10.662   7.876  69.304  1.00  0.00    -0.211 OA 
BRANCH  11  13
HETATM   13  C   UNL     1      -8.531   8.888  68.426  1.00  0.00    -0.129 C  
BRANCH  13  14
HETATM   14  C   UNL     1      -8.576   8.012  67.169  1.00  0.00    -0.124 C  
BRANCH  14  15
HETATM   15  C   UNL     1      -7.375   7.099  67.005  1.00  0.00    -0.089 C  
BRANCH  15  16
HETATM   16  C   UNL     1      -7.030   6.469  68.364  1.00  0.00    -0.080 C  
BRANCH  16  17
HETATM   17  C   UNL     1      -7.914   5.284  68.636  1.00  0.00    -0.087 A  
HETATM   18  C   UNL     1      -8.291   4.423  67.598  1.00  0.00    -0.099 A  
HETATM   19  C   UNL     1      -8.317   5.002  69.947  1.00  0.00    -0.081 A  
HETATM   20  C   UNL     1      -9.461   3.016  69.178  1.00  0.00    -0.166 A  
HETATM   21  C   UNL     1      -9.071   3.293  67.872  1.00  0.00    -0.213 A  
HETATM   22  C   UNL     1      -9.084   3.868  70.212  1.00  0.00    -0.189 A  
ENDBRANCH  16  17
ENDBRANCH  15  16
ENDBRANCH  14  15
ENDBRANCH  13  14
ENDBRANCH  11  13
BRANCH  11  23
HETATM   23  C   UNL     1      -9.931  11.133  68.783  1.00  0.00    -0.198 C  
BRANCH  23  24
HETATM   24  C   UNL     1     -10.945  11.875  67.893  1.00  0.00    -0.222 C  
HETATM   25  C   UNL     1     -11.754  13.890  66.641  1.00  0.00    -0.395 C  
HETATM   26  O   UNL     1     -12.035  11.347  67.636  1.00  0.00    -0.630 OA 
HETATM   27  N   UNL     1     -10.692  13.097  67.311  1.00  0.00    -0.253 N  
HETATM   28  C   UNL     1     -12.292  13.414  65.264  1.00  0.00    -0.469 C  
HETATM   29  O   UNL     1     -12.739  14.169  64.407  1.00  0.00    -0.667 OA 
HETATM   30  C   UNL     1      -9.405  13.692  67.007  1.00  0.00    -0.248 C  
HETATM   31  C   UNL     1      -9.658  15.205  66.875  1.00  0.00    -0.252 C  
HETATM   32  O   UNL     1     -12.362  12.074  65.113  1.00  0.00    -0.423 OA 
HETATM   33  C   UNL     1     -11.149  15.298  66.486  1.00  0.00    -0.271 C  
BRANCH  31  34
HETATM   34  C   UNL     1      -9.335  16.068  68.133  1.00  0.00    -0.200 C  
HETATM   35  C   UNL     1      -7.987  17.866  66.952  1.00  0.00    -0.249 C  
HETATM   36  C   UNL     1      -9.066  18.916  67.196  1.00  0.00    -0.305 C  
HETATM   37  C   UNL     1     -10.443  18.307  67.453  1.00  0.00    -0.430 C  
HETATM   38  C   UNL     1      -7.995  16.820  68.061  1.00  0.00    -0.179 C  
HETATM   39  C   UNL     1     -10.428  17.126  68.431  1.00  0.00    -0.376 C  
ENDBRANCH  31  34
ENDBRANCH  23  24
ENDBRANCH  11  23
ENDBRANCH  10  11
ENDBRANCH   6  10
ENDBRANCH   5   6
ENDBRANCH   3   5
ENDBRANCH   2   3
TORSDOF 13
ENDMDL
MODEL       65
REMARK 921   NORMALIZED FREE ENERGY PREDICTED BY IDOCK:   -5.53 KCAL/MOL
REMARK 922        TOTAL FREE ENERGY PREDICTED BY IDOCK:  -12.19 KCAL/MOL
REMARK 923 INTER-LIGAND FREE ENERGY PREDICTED BY IDOCK:  -10.11 KCAL/MOL
REMARK 924 INTRA-LIGAND FREE ENERGY PREDICTED BY IDOCK:   -2.08 KCAL/MOL
REMARK 927      BINDING AFFINITY PREDICTED BY RF-SCORE:    0.00 PKD
ROOT
HETATM    1  C   UNL     1      -9.258   3.987  64.415  1.00  0.00    -0.151 C  
HETATM    2  C   UNL     1      -8.861   5.238  65.177  1.00  0.00    -0.130 C  
ENDROOT
BRANCH   2   3
HETATM    3  C   UNL     1      -9.444   5.437  66.574  1.00  0.00    -0.149 C  
HETATM    4  O   UNL     1     -10.649   5.391  66.797  1.00  0.00    -0.270 OA 
BRANCH   3   5
HETATM    5  O   UNL     1      -8.489   5.549  67.529  1.00  0.00    -0.107 OA 
BRANCH   5   6
HETATM    6  C   UNL     1      -8.905   5.541  68.931  1.00  0.00    -0.107 C  
HETATM    7  C   UNL     1      -9.294   4.061  69.294  1.00  0.00    -0.238 C  
HETATM    8  C   UNL     1      -9.778   3.880  70.731  1.00  0.00    -0.255 C  
HETATM    9  C   UNL     1      -8.168   3.062  69.019  1.00  0.00    -0.077 C  
BRANCH   6  10
HETATM   10  O   UNL     1      -9.976   6.470  69.280  1.00  0.00    -0.149 OA 
BRANCH  10  11
HETATM   11  P   UNL     1      -9.561   7.833  70.145  1.00  0.00    -0.166 P  
HETATM   12  O   UNL     1     -10.024   7.187  71.474  1.00  0.00    -0.183 OA 
BRANCH  11  13
HETATM   13  C   UNL     1     -11.181   8.946  70.095  1.00  0.00    -0.160 C  
BRANCH  13  14
HETATM   14  C   UNL     1     -11.813   9.116  71.480  1.00  0.00    -0.428 C  
BRANCH  14  15
HETATM   15  C   UNL     1     -12.627  10.388  71.639  1.00  0.00    -0.521 C  
BRANCH  15  16
HETATM   16  C   UNL     1     -12.239  11.378  70.529  1.00  0.00    -0.478 C  
BRANCH  16  17
HETATM   17  C   UNL     1     -12.648  12.776  70.902  1.00  0.00    -0.342 A  
HETATM   18  C   UNL     1     -13.385  13.015  72.069  1.00  0.00    -0.588 A  
HETATM   19  C   UNL     1     -12.239  13.856  70.111  1.00  0.00    -0.425 A  
HETATM   20  C   UNL     1     -13.297  15.394  71.647  1.00  0.00    -0.578 A  
HETATM   21  C   UNL     1     -13.714  14.326  72.434  1.00  0.00    -0.616 A  
HETATM   22  C   UNL     1     -12.562  15.159  70.489  1.00  0.00    -0.429 A  
ENDBRANCH  16  17
ENDBRANCH  15  16
ENDBRANCH  14  15
ENDBRANCH  13  14
ENDBRANCH  11  13
BRANCH  11  23
HETATM   23  C   UNL     1      -9.015   8.595  68.574  1.00  0.00    -0.139 C  
BRANCH  23  24
HETATM   24  C   UNL     1      -7.876   9.620  68.730  1.00  0.00    -0.081 C  
HETATM   25  C   UNL     1      -6.876  11.900  68.440  1.00  0.00    -0.071 C  
HETATM   26  O   UNL     1      -6.767   9.246  69.132  1.00  0.00    -0.049 OA 
HETATM   27  N   UNL     1      -8.031  10.969  68.494  1.00  0.00    -0.129 N  
HETATM   28  C   UNL     1      -6.153  12.278  69.762  1.00  0.00    -0.141 C  
HETATM   29  O   UNL     1      -5.580  13.347  69.946  1.00  0.00    -0.095 OA 
HETATM   30  C   UNL     1      -9.255  11.745  68.520  1.00  0.00    -0.151 C  
HETATM   31  C   UNL     1      -8.970  13.014  67.698  1.00  0.00    -0.192 C  
HETATM   32  O   UNL     1      -6.077  11.283  70.672  1.00  0.00    -0.307 OA 
HETATM   33  C   UNL     1      -7.438  13.179  67.791  1.00  0.00    -0.150 C  
BRANCH  31  34
HETATM   34  C   UNL     1      -9.459  12.998  66.217  1.00  0.00    -0.199 C  
HETATM   35  C   UNL     1     -11.882  12.401  66.685  1.00  0.00    -0.394 C  
HETATM   36  C   UNL     1     -12.367  13.779  66.245  1.00  0.00    -0.479 C  
HETATM   37  C   UNL     1     -11.273  14.843  66.308  1.00  0.00    -0.331 C  
HETATM   38  C   UNL     1     -10.610  12.015  65.939  1.00  0.00    -0.302 C  
HETATM   39  C   UNL     1      -9.929  14.390  65.724  1.00  0.00    -0.354 C  
ENDBRANCH  31  34
ENDBRANCH  23  24
ENDBRANCH  11  23
ENDBRANCH  10  11
ENDBRANCH   6  10
ENDBRANCH   5   6
ENDBRANCH   3   5
ENDBRANCH   2   3
TORSDOF 13
ENDMDL
MODEL       66
REMARK 921   NORMALIZED FREE ENERGY PREDICTED BY IDOCK:   -5.53 KCAL/MOL
REMARK 922        TOTAL FREE ENERGY PREDICTED BY IDOCK:  -12.19 KCAL/MOL
REMARK 923 INTER-LIGAND FREE ENERGY PREDICTED BY IDOCK:  -10.63 KCAL/MOL
REMARK 924 INTRA-LIGAND FREE ENERGY PREDICTED BY IDOCK:   -1.56 KCAL/MOL
REMARK 927      BINDING AFFINITY PREDICTED BY RF-SCORE:    0.00 PKD
ROOT
HETATM    1  C   UNL     1     -11.857  13.028  63.785  1.00  0.00    -0.566 C  
HETATM    2  C   UNL     1     -10.990  11.939  64.390  1.00  0.00    -0.392 C  
ENDROOT
BRANCH   2   3
HETATM    3  C   UNL     1     -11.191  11.603  65.865  1.00  0.00    -0.238 C  
HETATM    4  O   UNL     1     -12.062  12.133  66.548  1.00  0.00    -0.627 OA 
BRANCH   3   5
HETATM    5  O   UNL     1     -10.391  10.593  66.286  1.00  0.00    -0.242 OA 
BRANCH   5   6
HETATM    6  C   UNL     1      -9.951  10.593  67.681  1.00  0.00    -0.169 C  
HETATM    7  C   UNL     1      -8.389  10.773  67.678  1.00  0.00    -0.119 C  
HETATM    8  C   UNL     1      -7.760  10.771  69.070  1.00  0.00    -0.133 C  
HETATM    9  C   UNL     1      -7.932  12.026  66.928  1.00  0.00    -0.112 C  
BRANCH   6  10
HETATM   10  O   UNL     1     -10.349   9.431  68.471  1.00  0.00    -0.196 OA 
BRANCH  10  11
HETATM   11  P   UNL     1     -10.691   9.677  70.083  1.00  0.00    -0.315 P  
HETATM   12  O   UNL     1      -9.618   8.648  70.517  1.00  0.00    -0.167 OA 
BRANCH  11  13
HETATM   13  C   UNL     1     -12.121   8.385  70.473  1.00  0.00     0.148 C  
BRANCH  13  14
HETATM   14  C   UNL     1     -11.576   6.983  70.763  1.00  0.00    -0.381 C  
BRANCH  14  15
HETATM   15  C   UNL     1     -11.248   6.176  69.519  1.00  0.00    -0.482 C  
BRANCH  15  16
HETATM   16  C   UNL     1      -9.745   5.854  69.507  1.00  0.00    -0.190 C  
BRANCH  16  17
HETATM   17  C   UNL     1      -9.235   5.770  68.095  1.00  0.00    -0.110 A  
HETATM   18  C   UNL     1      -9.347   4.579  67.367  1.00  0.00    -0.168 A  
HETATM   19  C   UNL     1      -8.698   6.907  67.479  1.00  0.00    -0.120 A  
HETATM   20  C   UNL     1      -8.393   5.664  65.429  1.00  0.00    -0.144 A  
HETATM   21  C   UNL     1      -8.917   4.528  66.036  1.00  0.00    -0.122 A  
HETATM   22  C   UNL     1      -8.284   6.850  66.149  1.00  0.00    -0.121 A  
ENDBRANCH  16  17
ENDBRANCH  15  16
ENDBRANCH  14  15
ENDBRANCH  13  14
ENDBRANCH  11  13
BRANCH  11  23
HETATM   23  C   UNL     1     -11.960  10.892  69.570  1.00  0.00    -0.330 C  
BRANCH  23  24
HETATM   24  C   UNL     1     -12.249  11.984  70.617  1.00  0.00    -0.316 C  
HETATM   25  C   UNL     1     -12.268  14.363  71.407  1.00  0.00    -0.352 C  
HETATM   26  O   UNL     1     -12.591  11.660  71.761  1.00  0.00    -0.234 OA 
HETATM   27  N   UNL     1     -12.199  13.333  70.339  1.00  0.00    -0.353 N  
HETATM   28  C   UNL     1     -13.626  14.621  72.116  1.00  0.00    -0.414 C  
HETATM   29  O   UNL     1     -13.952  15.702  72.595  1.00  0.00    -0.566 OA 
HETATM   30  C   UNL     1     -12.337  13.985  69.052  1.00  0.00    -0.104 C  
HETATM   31  C   UNL     1     -11.695  15.375  69.210  1.00  0.00    -0.367 C  
HETATM   32  O   UNL     1     -14.392  13.523  72.294  1.00  0.00    -0.536 OA 
HETATM   33  C   UNL     1     -11.802  15.663  70.723  1.00  0.00    -0.421 C  
BRANCH  31  34
HETATM   34  C   UNL     1     -10.227  15.516  68.699  1.00  0.00    -0.216 C  
HETATM   35  C   UNL     1     -10.779  16.061  66.282  1.00  0.00    -0.234 C  
HETATM   36  C   UNL     1     -10.275  17.492  66.430  1.00  0.00    -0.354 C  
HETATM   37  C   UNL     1     -10.257  17.971  67.880  1.00  0.00    -0.386 C  
HETATM   38  C   UNL     1     -10.028  15.127  67.225  1.00  0.00    -0.230 C  
HETATM   39  C   UNL     1      -9.669  16.952  68.864  1.00  0.00    -0.256 C  
ENDBRANCH  31  34
ENDBRANCH  23  24
ENDBRANCH  11  23
ENDBRANCH  10  11
ENDBRANCH   6  10
ENDBRANCH   5   6
ENDBRANCH   3   5
ENDBRANCH   2   3
TORSDOF 13
ENDMDL
MODEL       67
REMARK 921   NORMALIZED FREE ENERGY PREDICTED BY IDOCK:   -5.52 KCAL/MOL
REMARK 922        TOTAL FREE ENERGY PREDICTED BY IDOCK:  -12.18 KCAL/MOL
REMARK 923 INTER-LIGAND FREE ENERGY PREDICTED BY IDOCK:   -9.92 KCAL/MOL
REMARK 924 INTRA-LIGAND FREE ENERGY PREDICTED BY IDOCK:   -2.26 KCAL/MOL
REMARK 927      BINDING AFFINITY PREDICTED BY RF-SCORE:    0.00 PKD
ROOT
HETATM    1  C   UNL     1     -10.250  11.095  62.961  1.00  0.00    -0.265 C  
HETATM    2  C   UNL     1      -8.993  10.421  62.442  1.00  0.00    -0.297 C  
ENDROOT
BRANCH   2   3
HETATM    3  C   UNL     1      -8.171   9.592  63.425  1.00  0.00    -0.163 C  
HETATM    4  O   UNL     1      -6.944   9.586  63.417  1.00  0.00    -0.096 OA 
BRANCH   3   5
HETATM    5  O   UNL     1      -8.937   8.973  64.357  1.00  0.00    -0.137 OA 
BRANCH   5   6
HETATM    6  C   UNL     1      -8.418   8.864  65.720  1.00  0.00    -0.145 C  
HETATM    7  C   UNL     1      -8.348   7.333  66.072  1.00  0.00    -0.140 C  
HETATM    8  C   UNL     1      -7.842   7.042  67.484  1.00  0.00    -0.112 C  
HETATM    9  C   UNL     1      -7.518   6.526  65.071  1.00  0.00    -0.085 C  
BRANCH   6  10
HETATM   10  O   UNL     1      -9.152   9.608  66.739  1.00  0.00    -0.142 OA 
BRANCH  10  11
HETATM   11  P   UNL     1      -8.830  11.237  66.884  1.00  0.00    -0.175 P  
HETATM   12  O   UNL     1      -7.354  11.031  66.465  1.00  0.00    -0.138 OA 
BRANCH  11  13
HETATM   13  C   UNL     1      -8.292  11.456  68.762  1.00  0.00    -0.096 C  
BRANCH  13  14
HETATM   14  C   UNL     1      -7.425  10.294  69.258  1.00  0.00    -0.112 C  
BRANCH  14  15
HETATM   15  C   UNL     1      -7.961   9.606  70.501  1.00  0.00    -0.148 C  
BRANCH  15  16
HETATM   16  C   UNL     1      -9.480   9.412  70.356  1.00  0.00    -0.319 C  
BRANCH  16  17
HETATM   17  C   UNL     1      -9.833   7.952  70.408  1.00  0.00    -0.183 A  
HETATM   18  C   UNL     1      -9.264   7.115  71.376  1.00  0.00    -0.150 A  
HETATM   19  C   UNL     1     -10.783   7.433  69.521  1.00  0.00    -0.233 A  
HETATM   20  C   UNL     1     -10.591   5.263  70.569  1.00  0.00    -0.272 A  
HETATM   21  C   UNL     1      -9.641   5.769  71.449  1.00  0.00    -0.188 A  
HETATM   22  C   UNL     1     -11.161   6.094  69.608  1.00  0.00    -0.488 A  
ENDBRANCH  16  17
ENDBRANCH  15  16
ENDBRANCH  14  15
ENDBRANCH  13  14
ENDBRANCH  11  13
BRANCH  11  23
HETATM   23  C   UNL     1     -10.575  11.480  67.379  1.00  0.00    -0.214 C  
BRANCH  23  24
HETATM   24  C   UNL     1     -11.306  12.589  66.599  1.00  0.00    -0.334 C  
HETATM   25  C   UNL     1     -11.646  14.975  65.912  1.00  0.00    -0.165 C  
HETATM   26  O   UNL     1     -12.357  12.325  66.000  1.00  0.00    -0.609 OA 
HETATM   27  N   UNL     1     -10.826  13.875  66.480  1.00  0.00    -0.293 N  
HETATM   28  C   UNL     1     -11.916  14.999  64.382  1.00  0.00    -0.353 C  
HETATM   29  O   UNL     1     -12.100  16.026  63.737  1.00  0.00    -0.882 OA 
HETATM   30  C   UNL     1      -9.457  14.333  66.610  1.00  0.00    -0.286 C  
HETATM   31  C   UNL     1      -9.540  15.840  66.911  1.00  0.00    -0.243 C  
HETATM   32  O   UNL     1     -12.069  13.784  63.813  1.00  0.00    -0.494 OA 
HETATM   33  C   UNL     1     -10.899  16.262  66.312  1.00  0.00    -0.098 C  
BRANCH  31  34
HETATM   34  C   UNL     1      -9.421  16.248  68.412  1.00  0.00    -0.216 C  
HETATM   35  C   UNL     1      -7.383  17.744  68.176  1.00  0.00    -0.238 C  
HETATM   36  C   UNL     1      -8.196  18.998  68.475  1.00  0.00    -0.390 C  
HETATM   37  C   UNL     1      -9.690  18.815  68.214  1.00  0.00    -0.406 C  
HETATM   38  C   UNL     1      -7.983  16.532  68.879  1.00  0.00    -0.239 C  
HETATM   39  C   UNL     1     -10.262  17.502  68.762  1.00  0.00    -0.373 C  
ENDBRANCH  31  34
ENDBRANCH  23  24
ENDBRANCH  11  23
ENDBRANCH  10  11
ENDBRANCH   6  10
ENDBRANCH   5   6
ENDBRANCH   3   5
ENDBRANCH   2   3
TORSDOF 13
ENDMDL
MODEL       68
REMARK 921   NORMALIZED FREE ENERGY PREDICTED BY IDOCK:   -5.51 KCAL/MOL
REMARK 922        TOTAL FREE ENERGY PREDICTED BY IDOCK:  -12.17 KCAL/MOL
REMARK 923 INTER-LIGAND FREE ENERGY PREDICTED BY IDOCK:   -9.99 KCAL/MOL
REMARK 924 INTRA-LIGAND FREE ENERGY PREDICTED BY IDOCK:   -2.18 KCAL/MOL
REMARK 927      BINDING AFFINITY PREDICTED BY RF-SCORE:    0.00 PKD
ROOT
HETATM    1  C   UNL     1      -7.211   8.281  74.122  1.00  0.00    -0.212 C  
HETATM    2  C   UNL     1      -7.213   7.988  72.633  1.00  0.00    -0.116 C  
ENDROOT
BRANCH   2   3
HETATM    3  C   UNL     1      -8.343   8.575  71.792  1.00  0.00    -0.163 C  
HETATM    4  O   UNL     1      -9.325   9.112  72.292  1.00  0.00    -0.238 OA 
BRANCH   3   5
HETATM    5  O   UNL     1      -8.079   8.538  70.462  1.00  0.00    -0.097 OA 
BRANCH   5   6
HETATM    6  C   UNL     1      -8.049   9.802  69.726  1.00  0.00    -0.167 C  
HETATM    7  C   UNL     1      -6.712  10.535  70.111  1.00  0.00    -0.149 C  
HETATM    8  C   UNL     1      -6.533  11.895  69.439  1.00  0.00    -0.119 C  
HETATM    9  C   UNL     1      -5.467   9.685  69.852  1.00  0.00    -0.032 C  
BRANCH   6  10
HETATM   10  O   UNL     1      -9.205  10.674  69.916  1.00  0.00     0.122 OA 
BRANCH  10  11
HETATM   11  P   UNL     1     -10.458  10.539  68.826  1.00  0.00    -0.227 P  
HETATM   12  O   UNL     1     -11.006   9.280  69.540  1.00  0.00    -0.227 OA 
BRANCH  11  13
HETATM   13  C   UNL     1      -9.721   9.429  67.381  1.00  0.00    -0.159 C  
BRANCH  13  14
HETATM   14  C   UNL     1     -10.532   8.147  67.161  1.00  0.00    -0.396 C  
BRANCH  14  15
HETATM   15  C   UNL     1      -9.821   6.880  67.603  1.00  0.00    -0.164 C  
BRANCH  15  16
HETATM   16  C   UNL     1     -10.853   5.897  68.181  1.00  0.00    -0.323 C  
BRANCH  16  17
HETATM   17  C   UNL     1     -10.693   5.780  69.671  1.00  0.00    -0.416 A  
HETATM   18  C   UNL     1      -9.531   5.225  70.221  1.00  0.00    -0.225 A  
HETATM   19  C   UNL     1     -11.685   6.284  70.520  1.00  0.00    -0.289 A  
HETATM   20  C   UNL     1     -10.356   5.680  72.447  1.00  0.00    -0.245 A  
HETATM   21  C   UNL     1      -9.370   5.170  71.611  1.00  0.00    -0.183 A  
HETATM   22  C   UNL     1     -11.511   6.236  71.903  1.00  0.00    -0.360 A  
ENDBRANCH  16  17
ENDBRANCH  15  16
ENDBRANCH  14  15
ENDBRANCH  13  14
ENDBRANCH  11  13
BRANCH  11  23
HETATM   23  C   UNL     1      -9.810  12.028  67.983  1.00  0.00    -0.199 C  
BRANCH  23  24
HETATM   24  C   UNL     1     -10.829  12.730  67.066  1.00  0.00    -0.257 C  
HETATM   25  C   UNL     1     -11.656  14.697  65.751  1.00  0.00    -0.328 C  
HETATM   26  O   UNL     1     -11.910  12.181  66.819  1.00  0.00    -0.561 OA 
HETATM   27  N   UNL     1     -10.587  13.938  66.449  1.00  0.00    -0.278 N  
HETATM   28  C   UNL     1     -12.181  14.173  64.385  1.00  0.00    -0.439 C  
HETATM   29  O   UNL     1     -12.633  14.897  63.504  1.00  0.00    -0.567 OA 
HETATM   30  C   UNL     1      -9.307  14.540  66.134  1.00  0.00    -0.209 C  
HETATM   31  C   UNL     1      -9.577  16.044  65.955  1.00  0.00    -0.385 C  
HETATM   32  O   UNL     1     -12.233  12.828  64.274  1.00  0.00    -0.385 OA 
HETATM   33  C   UNL     1     -11.067  16.107  65.556  1.00  0.00    -0.071 C  
BRANCH  31  34
HETATM   34  C   UNL     1      -9.272  16.949  67.189  1.00  0.00    -0.238 C  
HETATM   35  C   UNL     1      -7.464  18.367  66.109  1.00  0.00    -0.280 C  
HETATM   36  C   UNL     1      -8.350  19.607  66.119  1.00  0.00    -0.352 C  
HETATM   37  C   UNL     1      -9.838  19.276  66.207  1.00  0.00    -0.456 C  
HETATM   38  C   UNL     1      -7.818  17.443  67.269  1.00  0.00    -0.218 C  
HETATM   39  C   UNL     1     -10.178  18.205  67.251  1.00  0.00    -0.377 C  
ENDBRANCH  31  34
ENDBRANCH  23  24
ENDBRANCH  11  23
ENDBRANCH  10  11
ENDBRANCH   6  10
ENDBRANCH   5   6
ENDBRANCH   3   5
ENDBRANCH   2   3
TORSDOF 13
ENDMDL
MODEL       69
REMARK 921   NORMALIZED FREE ENERGY PREDICTED BY IDOCK:   -5.51 KCAL/MOL
REMARK 922        TOTAL FREE ENERGY PREDICTED BY IDOCK:  -12.16 KCAL/MOL
REMARK 923 INTER-LIGAND FREE ENERGY PREDICTED BY IDOCK:   -8.68 KCAL/MOL
REMARK 924 INTRA-LIGAND FREE ENERGY PREDICTED BY IDOCK:   -3.48 KCAL/MOL
REMARK 927      BINDING AFFINITY PREDICTED BY RF-SCORE:    0.00 PKD
ROOT
HETATM    1  C   UNL     1     -10.229  16.379  67.101  1.00  0.00    -0.282 C  
HETATM    2  C   UNL     1     -10.323  14.888  67.367  1.00  0.00    -0.243 C  
ENDROOT
BRANCH   2   3
HETATM    3  C   UNL     1     -11.636  14.344  67.924  1.00  0.00    -0.345 C  
HETATM    4  O   UNL     1     -12.026  14.601  69.058  1.00  0.00    -0.307 OA 
BRANCH   3   5
HETATM    5  O   UNL     1     -12.354  13.660  67.000  1.00  0.00    -0.355 OA 
BRANCH   5   6
HETATM    6  C   UNL     1     -11.630  12.970  65.932  1.00  0.00    -0.363 C  
HETATM    7  C   UNL     1     -12.342  13.330  64.578  1.00  0.00    -0.428 C  
HETATM    8  C   UNL     1     -11.718  12.666  63.351  1.00  0.00    -0.571 C  
HETATM    9  C   UNL     1     -12.436  14.837  64.332  1.00  0.00    -0.274 C  
BRANCH   6  10
HETATM   10  O   UNL     1     -11.493  11.525  66.091  1.00  0.00    -0.308 OA 
BRANCH  10  11
HETATM   11  P   UNL     1      -9.950  10.907  66.204  1.00  0.00    -0.251 P  
HETATM   12  O   UNL     1      -9.860  10.721  64.670  1.00  0.00    -0.253 OA 
BRANCH  11  13
HETATM   13  C   UNL     1     -10.222   8.975  66.447  1.00  0.00    -0.227 C  
BRANCH  13  14
HETATM   14  C   UNL     1      -9.136   8.143  65.757  1.00  0.00    -0.139 C  
BRANCH  14  15
HETATM   15  C   UNL     1      -8.112   7.549  66.707  1.00  0.00    -0.123 C  
BRANCH  15  16
HETATM   16  C   UNL     1      -8.279   6.021  66.740  1.00  0.00    -0.106 C  
BRANCH  16  17
HETATM   17  C   UNL     1      -8.390   5.533  68.158  1.00  0.00    -0.099 A  
HETATM   18  C   UNL     1      -9.585   4.973  68.626  1.00  0.00    -0.204 A  
HETATM   19  C   UNL     1      -7.274   5.582  69.001  1.00  0.00    -0.069 A  
HETATM   20  C   UNL     1      -8.545   4.517  70.761  1.00  0.00    -0.115 A  
HETATM   21  C   UNL     1      -9.660   4.472  69.932  1.00  0.00    -0.269 A  
HETATM   22  C   UNL     1      -7.355   5.071  70.296  1.00  0.00    -0.055 A  
ENDBRANCH  16  17
ENDBRANCH  15  16
ENDBRANCH  14  15
ENDBRANCH  13  14
ENDBRANCH  11  13
BRANCH  11  23
HETATM   23  C   UNL     1     -10.056  11.127  68.018  1.00  0.00    -0.174 C  
BRANCH  23  24
HETATM   24  C   UNL     1      -8.752  10.803  68.772  1.00  0.00    -0.163 C  
HETATM   25  C   UNL     1      -7.441   9.606  70.541  1.00  0.00    -0.132 C  
HETATM   26  O   UNL     1      -7.733  11.467  68.544  1.00  0.00    -0.118 OA 
HETATM   27  N   UNL     1      -8.633   9.765  69.670  1.00  0.00    -0.175 N  
HETATM   28  C   UNL     1      -6.104   9.131  69.907  1.00  0.00    -0.038 C  
HETATM   29  O   UNL     1      -5.250   8.492  70.512  1.00  0.00    -0.022 OA 
HETATM   30  C   UNL     1      -9.436   8.561  69.755  1.00  0.00    -0.166 C  
HETATM   31  C   UNL     1      -9.249   8.027  71.186  1.00  0.00    -0.174 C  
HETATM   32  O   UNL     1      -5.874   9.588  68.657  1.00  0.00    -0.040 OA 
HETATM   33  C   UNL     1      -7.877   8.591  71.615  1.00  0.00    -0.160 C  
BRANCH  31  34
HETATM   34  C   UNL     1     -10.368   8.393  72.209  1.00  0.00    -0.403 C  
HETATM   35  C   UNL     1     -12.243   7.074  71.118  1.00  0.00    -0.427 C  
HETATM   36  C   UNL     1     -12.290   6.077  72.270  1.00  0.00    -0.042 C  
HETATM   37  C   UNL     1     -10.992   6.034  73.074  1.00  0.00    -0.289 C  
HETATM   38  C   UNL     1     -11.783   8.442  71.610  1.00  0.00    -0.354 C  
HETATM   39  C   UNL     1     -10.423   7.418  73.412  1.00  0.00    -0.419 C  
ENDBRANCH  31  34
ENDBRANCH  23  24
ENDBRANCH  11  23
ENDBRANCH  10  11
ENDBRANCH   6  10
ENDBRANCH   5   6
ENDBRANCH   3   5
ENDBRANCH   2   3
TORSDOF 13
ENDMDL
MODEL       70
REMARK 921   NORMALIZED FREE ENERGY PREDICTED BY IDOCK:   -5.50 KCAL/MOL
REMARK 922        TOTAL FREE ENERGY PREDICTED BY IDOCK:  -12.15 KCAL/MOL
REMARK 923 INTER-LIGAND FREE ENERGY PREDICTED BY IDOCK:   -9.41 KCAL/MOL
REMARK 924 INTRA-LIGAND FREE ENERGY PREDICTED BY IDOCK:   -2.74 KCAL/MOL
REMARK 927      BINDING AFFINITY PREDICTED BY RF-SCORE:    0.00 PKD
ROOT
HETATM    1  C   UNL     1      -8.902   9.492  62.831  1.00  0.00    -0.242 C  
HETATM    2  C   UNL     1      -8.598   9.264  64.301  1.00  0.00    -0.214 C  
ENDROOT
BRANCH   2   3
HETATM    3  C   UNL     1      -7.275   9.796  64.846  1.00  0.00    -0.129 C  
HETATM    4  O   UNL     1      -6.188   9.420  64.419  1.00  0.00    -0.075 OA 
BRANCH   3   5
HETATM    5  O   UNL     1      -7.444  10.793  65.750  1.00  0.00    -0.138 OA 
BRANCH   5   6
HETATM    6  C   UNL     1      -7.368  10.459  67.172  1.00  0.00    -0.092 C  
HETATM    7  C   UNL     1      -6.646  11.654  67.894  1.00  0.00    -0.065 C  
HETATM    8  C   UNL     1      -6.464  11.454  69.397  1.00  0.00    -0.108 C  
HETATM    9  C   UNL     1      -7.330  13.001  67.652  1.00  0.00    -0.147 C  
BRANCH   6  10
HETATM   10  O   UNL     1      -6.730   9.184  67.490  1.00  0.00    -0.067 OA 
BRANCH  10  11
HETATM   11  P   UNL     1      -7.534   8.160  68.530  1.00  0.00    -0.102 P  
HETATM   12  O   UNL     1      -6.205   7.531  69.014  1.00  0.00    -0.033 OA 
BRANCH  11  13
HETATM   13  C   UNL     1      -7.916   6.570  67.439  1.00  0.00    -0.113 C  
BRANCH  13  14
HETATM   14  C   UNL     1      -9.316   6.615  66.817  1.00  0.00    -0.184 C  
BRANCH  14  15
HETATM   15  C   UNL     1     -10.294   5.622  67.418  1.00  0.00    -0.284 C  
BRANCH  15  16
HETATM   16  C   UNL     1      -9.629   4.914  68.609  1.00  0.00    -0.215 C  
BRANCH  16  17
HETATM   17  C   UNL     1     -10.302   5.302  69.896  1.00  0.00    -0.374 A  
HETATM   18  C   UNL     1      -9.976   4.653  71.094  1.00  0.00    -0.265 A  
HETATM   19  C   UNL     1     -11.219   6.359  69.912  1.00  0.00    -0.485 A  
HETATM   20  C   UNL     1     -11.474   6.116  72.304  1.00  0.00    -0.360 A  
HETATM   21  C   UNL     1     -10.570   5.059  72.295  1.00  0.00    -0.269 A  
HETATM   22  C   UNL     1     -11.797   6.764  71.115  1.00  0.00    -0.410 A  
ENDBRANCH  16  17
ENDBRANCH  15  16
ENDBRANCH  14  15
ENDBRANCH  13  14
ENDBRANCH  11  13
BRANCH  11  23
HETATM   23  C   UNL     1      -9.105   8.904  67.958  1.00  0.00    -0.139 C  
BRANCH  23  24
HETATM   24  C   UNL     1      -9.758   9.862  68.971  1.00  0.00    -0.193 C  
HETATM   25  C   UNL     1     -11.057  11.919  69.574  1.00  0.00    -0.102 C  
HETATM   26  O   UNL     1      -9.556   9.702  70.182  1.00  0.00    -0.228 OA 
HETATM   27  N   UNL     1     -10.614  10.879  68.611  1.00  0.00    -0.183 N  
HETATM   28  C   UNL     1     -12.079  11.533  70.679  1.00  0.00    -0.353 C  
HETATM   29  O   UNL     1     -12.882  12.319  71.171  1.00  0.00    -0.319 OA 
HETATM   30  C   UNL     1     -11.412  10.989  67.406  1.00  0.00    -0.135 C  
HETATM   31  C   UNL     1     -11.747  12.484  67.254  1.00  0.00    -0.431 C  
HETATM   32  O   UNL     1     -11.941  10.283  71.170  1.00  0.00    -0.342 OA 
HETATM   33  C   UNL     1     -11.662  13.031  68.695  1.00  0.00    -0.359 C  
BRANCH  31  34
HETATM   34  C   UNL     1     -10.843  13.295  66.275  1.00  0.00    -0.293 C  
HETATM   35  C   UNL     1     -11.374  11.971  64.175  1.00  0.00    -0.455 C  
HETATM   36  C   UNL     1     -12.133  13.142  63.560  1.00  0.00    -0.585 C  
HETATM   37  C   UNL     1     -12.623  14.147  64.600  1.00  0.00    -0.285 C  
HETATM   38  C   UNL     1     -10.276  12.472  65.106  1.00  0.00    -0.299 C  
HETATM   39  C   UNL     1     -11.572  14.514  65.655  1.00  0.00    -0.344 C  
ENDBRANCH  31  34
ENDBRANCH  23  24
ENDBRANCH  11  23
ENDBRANCH  10  11
ENDBRANCH   6  10
ENDBRANCH   5   6
ENDBRANCH   3   5
ENDBRANCH   2   3
TORSDOF 13
ENDMDL
MODEL       71
REMARK 921   NORMALIZED FREE ENERGY PREDICTED BY IDOCK:   -5.47 KCAL/MOL
REMARK 922        TOTAL FREE ENERGY PREDICTED BY IDOCK:  -12.09 KCAL/MOL
REMARK 923 INTER-LIGAND FREE ENERGY PREDICTED BY IDOCK:  -10.10 KCAL/MOL
REMARK 924 INTRA-LIGAND FREE ENERGY PREDICTED BY IDOCK:   -1.99 KCAL/MOL
REMARK 927      BINDING AFFINITY PREDICTED BY RF-SCORE:    0.00 PKD
ROOT
HETATM    1  C   UNL     1      -5.760  10.376  62.950  1.00  0.00    -0.145 C  
HETATM    2  C   UNL     1      -6.429   9.134  63.509  1.00  0.00    -0.090 C  
ENDROOT
BRANCH   2   3
HETATM    3  C   UNL     1      -7.640   9.324  64.419  1.00  0.00    -0.115 C  
HETATM    4  O   UNL     1      -8.326   8.384  64.806  1.00  0.00    -0.163 OA 
BRANCH   3   5
HETATM    5  O   UNL     1      -7.788  10.607  64.831  1.00  0.00    -0.084 OA 
BRANCH   5   6
HETATM    6  C   UNL     1      -7.985  10.858  66.258  1.00  0.00    -0.161 C  
HETATM    7  C   UNL     1      -6.633  10.517  66.983  1.00  0.00    -0.077 C  
HETATM    8  C   UNL     1      -6.675  10.706  68.499  1.00  0.00    -0.056 C  
HETATM    9  C   UNL     1      -5.439  11.290  66.420  1.00  0.00    -0.139 C  
BRANCH   6  10
HETATM   10  O   UNL     1      -9.109  10.159  66.876  1.00  0.00    -0.141 OA 
BRANCH  10  11
HETATM   11  P   UNL     1     -10.527  11.010  67.078  1.00  0.00    -0.263 P  
HETATM   12  O   UNL     1     -10.781  11.041  65.551  1.00  0.00    -0.232 OA 
BRANCH  11  13
HETATM   13  C   UNL     1      -9.967  12.894  67.048  1.00  0.00    -0.244 C  
BRANCH  13  14
HETATM   14  C   UNL     1     -11.046  13.831  67.600  1.00  0.00    -0.292 C  
BRANCH  14  15
HETATM   15  C   UNL     1     -10.566  14.739  68.719  1.00  0.00    -0.251 C  
BRANCH  15  16
HETATM   16  C   UNL     1     -11.699  15.701  69.111  1.00  0.00    -0.402 C  
BRANCH  16  17
HETATM   17  C   UNL     1     -12.164  15.424  70.513  1.00  0.00    -0.436 A  
HETATM   18  C   UNL     1     -11.672  16.174  71.589  1.00  0.00    -0.558 A  
HETATM   19  C   UNL     1     -13.143  14.450  70.744  1.00  0.00    -0.344 A  
HETATM   20  C   UNL     1     -13.130  14.980  73.102  1.00  0.00    -0.619 A  
HETATM   21  C   UNL     1     -12.152  15.944  72.883  1.00  0.00    -0.612 A  
HETATM   22  C   UNL     1     -13.624  14.235  72.035  1.00  0.00    -0.520 A  
ENDBRANCH  16  17
ENDBRANCH  15  16
ENDBRANCH  14  15
ENDBRANCH  13  14
ENDBRANCH  11  13
BRANCH  11  23
HETATM   23  C   UNL     1     -10.227  10.973  68.883  1.00  0.00    -0.203 C  
BRANCH  23  24
HETATM   24  C   UNL     1     -11.383  10.372  69.704  1.00  0.00    -0.272 C  
HETATM   25  C   UNL     1     -12.353   8.677  71.275  1.00  0.00    -0.263 C  
HETATM   26  O   UNL     1     -12.532  10.809  69.554  1.00  0.00    -0.295 OA 
HETATM   27  N   UNL     1     -11.208   9.390  70.655  1.00  0.00    -0.265 N  
HETATM   28  C   UNL     1     -13.239   9.431  72.305  1.00  0.00    -0.446 C  
HETATM   29  O   UNL     1     -13.837   8.881  73.224  1.00  0.00    -0.207 OA 
HETATM   30  C   UNL     1     -10.002   9.064  71.390  1.00  0.00    -0.318 C  
HETATM   31  C   UNL     1     -10.189   7.622  71.894  1.00  0.00    -0.234 C  
HETATM   32  O   UNL     1     -13.423  10.743  72.044  1.00  0.00    -0.373 OA 
HETATM   33  C   UNL     1     -11.722   7.449  71.958  1.00  0.00    -0.325 C  
BRANCH  31  34
HETATM   34  C   UNL     1      -9.518   6.503  71.040  1.00  0.00    -0.171 C  
HETATM   35  C   UNL     1      -7.610   5.984  72.632  1.00  0.00    -0.099 C  
HETATM   36  C   UNL     1      -8.185   4.612  72.966  1.00  0.00    -0.100 C  
HETATM   37  C   UNL     1      -9.682   4.508  72.681  1.00  0.00    -0.189 C  
HETATM   38  C   UNL     1      -7.994   6.398  71.216  1.00  0.00    -0.112 C  
HETATM   39  C   UNL     1     -10.101   5.096  71.329  1.00  0.00    -0.278 C  
ENDBRANCH  31  34
ENDBRANCH  23  24
ENDBRANCH  11  23
ENDBRANCH  10  11
ENDBRANCH   6  10
ENDBRANCH   5   6
ENDBRANCH   3   5
ENDBRANCH   2   3
TORSDOF 13
ENDMDL
MODEL       72
REMARK 921   NORMALIZED FREE ENERGY PREDICTED BY IDOCK:   -5.45 KCAL/MOL
REMARK 922        TOTAL FREE ENERGY PREDICTED BY IDOCK:  -12.05 KCAL/MOL
REMARK 923 INTER-LIGAND FREE ENERGY PREDICTED BY IDOCK:  -10.16 KCAL/MOL
REMARK 924 INTRA-LIGAND FREE ENERGY PREDICTED BY IDOCK:   -1.90 KCAL/MOL
REMARK 927      BINDING AFFINITY PREDICTED BY RF-SCORE:    0.00 PKD
ROOT
HETATM    1  C   UNL     1     -11.213  12.857  64.590  1.00  0.00    -0.353 C  
HETATM    2  C   UNL     1     -10.551  11.492  64.622  1.00  0.00    -0.369 C  
ENDROOT
BRANCH   2   3
HETATM    3  C   UNL     1      -9.359  11.299  65.557  1.00  0.00    -0.221 C  
HETATM    4  O   UNL     1      -8.488  10.462  65.347  1.00  0.00    -0.158 OA 
BRANCH   3   5
HETATM    5  O   UNL     1      -9.321  12.218  66.552  1.00  0.00    -0.223 OA 
BRANCH   5   6
HETATM    6  C   UNL     1      -9.231  11.742  67.932  1.00  0.00    -0.181 C  
HETATM    7  C   UNL     1      -7.706  11.548  68.261  1.00  0.00    -0.123 C  
HETATM    8  C   UNL     1      -7.435  11.028  69.672  1.00  0.00     0.029 C  
HETATM    9  C   UNL     1      -6.878  12.814  68.032  1.00  0.00    -0.100 C  
BRANCH   6  10
HETATM   10  O   UNL     1      -9.996  10.536  68.238  1.00  0.00    -0.153 OA 
BRANCH  10  11
HETATM   11  P   UNL     1     -11.471  10.730  68.989  1.00  0.00    -0.287 P  
HETATM   12  O   UNL     1     -12.133  11.200  67.671  1.00  0.00    -0.537 OA 
BRANCH  11  13
HETATM   13  C   UNL     1     -11.431  12.578  69.657  1.00  0.00    -0.185 C  
BRANCH  13  14
HETATM   14  C   UNL     1     -11.707  13.603  68.551  1.00  0.00    -0.392 C  
BRANCH  14  15
HETATM   15  C   UNL     1     -11.018  14.940  68.758  1.00  0.00    -0.259 C  
BRANCH  15  16
HETATM   16  C   UNL     1     -12.051  15.974  69.231  1.00  0.00    -0.088 C  
BRANCH  16  17
HETATM   17  C   UNL     1     -12.411  15.740  70.672  1.00  0.00    -0.412 A  
HETATM   18  C   UNL     1     -13.507  14.935  71.011  1.00  0.00    -0.428 A  
HETATM   19  C   UNL     1     -11.611  16.278  71.686  1.00  0.00    -0.436 A  
HETATM   20  C   UNL     1     -12.995  15.212  73.357  1.00  0.00    -0.642 A  
HETATM   21  C   UNL     1     -13.800  14.680  72.356  1.00  0.00    -0.580 A  
HETATM   22  C   UNL     1     -11.904  16.008  73.023  1.00  0.00    -0.527 A  
ENDBRANCH  16  17
ENDBRANCH  15  16
ENDBRANCH  14  15
ENDBRANCH  13  14
ENDBRANCH  11  13
BRANCH  11  23
HETATM   23  C   UNL     1     -10.687  10.174  70.546  1.00  0.00    -0.227 C  
BRANCH  23  24
HETATM   24  C   UNL     1     -11.137   8.778  71.018  1.00  0.00    -0.270 C  
HETATM   25  C   UNL     1     -11.352   6.296  70.742  1.00  0.00    -0.332 C  
HETATM   26  O   UNL     1     -11.856   8.673  72.020  1.00  0.00    -0.324 OA 
HETATM   27  N   UNL     1     -10.739   7.608  70.410  1.00  0.00    -0.232 N  
HETATM   28  C   UNL     1     -11.013   5.632  72.105  1.00  0.00    -0.250 C  
HETATM   29  O   UNL     1     -11.006   4.420  72.291  1.00  0.00    -0.006 OA 
HETATM   30  C   UNL     1      -9.560   7.379  69.598  1.00  0.00    -0.156 C  
HETATM   31  C   UNL     1      -9.857   6.121  68.763  1.00  0.00    -0.160 C  
HETATM   32  O   UNL     1     -10.851   6.493  73.133  1.00  0.00    -0.257 OA 
HETATM   33  C   UNL     1     -10.907   5.360  69.602  1.00  0.00    -0.158 C  
BRANCH  31  34
HETATM   34  C   UNL     1     -10.353   6.364  67.304  1.00  0.00    -0.274 C  
HETATM   35  C   UNL     1      -8.068   6.459  66.201  1.00  0.00    -0.117 C  
HETATM   36  C   UNL     1      -8.303   5.143  65.468  1.00  0.00    -0.126 C  
HETATM   37  C   UNL     1      -9.373   4.276  66.129  1.00  0.00    -0.164 C  
HETATM   38  C   UNL     1      -9.386   7.187  66.435  1.00  0.00    -0.190 C  
HETATM   39  C   UNL     1     -10.634   5.047  66.538  1.00  0.00    -0.289 C  
ENDBRANCH  31  34
ENDBRANCH  23  24
ENDBRANCH  11  23
ENDBRANCH  10  11
ENDBRANCH   6  10
ENDBRANCH   5   6
ENDBRANCH   3   5
ENDBRANCH   2   3
TORSDOF 13
ENDMDL
MODEL       73
REMARK 921   NORMALIZED FREE ENERGY PREDICTED BY IDOCK:   -5.43 KCAL/MOL
REMARK 922        TOTAL FREE ENERGY PREDICTED BY IDOCK:  -12.02 KCAL/MOL
REMARK 923 INTER-LIGAND FREE ENERGY PREDICTED BY IDOCK:   -9.80 KCAL/MOL
REMARK 924 INTRA-LIGAND FREE ENERGY PREDICTED BY IDOCK:   -2.23 KCAL/MOL
REMARK 927      BINDING AFFINITY PREDICTED BY RF-SCORE:    0.00 PKD
ROOT
HETATM    1  C   UNL     1     -13.563  10.458  72.115  1.00  0.00    -0.202 C  
HETATM    2  C   UNL     1     -12.160  10.282  71.564  1.00  0.00    -0.407 C  
ENDROOT
BRANCH   2   3
HETATM    3  C   UNL     1     -11.527   8.896  71.653  1.00  0.00    -0.339 C  
HETATM    4  O   UNL     1     -12.136   7.874  71.351  1.00  0.00    -0.296 OA 
BRANCH   3   5
HETATM    5  O   UNL     1     -10.213   8.940  71.983  1.00  0.00    -0.334 OA 
BRANCH   5   6
HETATM    6  C   UNL     1      -9.229   9.014  70.904  1.00  0.00    -0.259 C  
HETATM    7  C   UNL     1      -7.806   8.897  71.561  1.00  0.00    -0.107 C  
HETATM    8  C   UNL     1      -6.652   8.979  70.563  1.00  0.00    -0.054 C  
HETATM    9  C   UNL     1      -7.639   7.634  72.409  1.00  0.00    -0.095 C  
BRANCH   6  10
HETATM   10  O   UNL     1      -9.320  10.189  70.042  1.00  0.00    -0.175 OA 
BRANCH  10  11
HETATM   11  P   UNL     1      -9.029   9.976  68.416  1.00  0.00    -0.127 P  
HETATM   12  O   UNL     1      -8.021  11.151  68.394  1.00  0.00    -0.121 OA 
BRANCH  11  13
HETATM   13  C   UNL     1     -10.386  11.091  67.534  1.00  0.00    -0.198 C  
BRANCH  13  14
HETATM   14  C   UNL     1     -11.286  11.817  68.539  1.00  0.00    -0.328 C  
BRANCH  14  15
HETATM   15  C   UNL     1     -10.790  13.196  68.934  1.00  0.00    -0.240 C  
BRANCH  15  16
HETATM   16  C   UNL     1     -11.987  14.157  69.027  1.00  0.00    -0.376 C  
BRANCH  16  17
HETATM   17  C   UNL     1     -12.302  14.468  70.464  1.00  0.00    -0.403 A  
HETATM   18  C   UNL     1     -11.561  15.429  71.164  1.00  0.00    -0.425 A  
HETATM   19  C   UNL     1     -13.383  13.838  71.092  1.00  0.00    -0.218 A  
HETATM   20  C   UNL     1     -12.979  15.125  73.098  1.00  0.00    -0.627 A  
HETATM   21  C   UNL     1     -11.899  15.749  72.484  1.00  0.00    -0.605 A  
HETATM   22  C   UNL     1     -13.719  14.172  72.404  1.00  0.00    -0.645 A  
ENDBRANCH  16  17
ENDBRANCH  15  16
ENDBRANCH  14  15
ENDBRANCH  13  14
ENDBRANCH  11  13
BRANCH  11  23
HETATM   23  C   UNL     1     -10.219   8.586  68.442  1.00  0.00    -0.203 C  
BRANCH  23  24
HETATM   24  C   UNL     1      -9.662   7.264  67.882  1.00  0.00    -0.140 C  
HETATM   25  C   UNL     1      -9.063   4.839  68.080  1.00  0.00    -0.117 C  
HETATM   26  O   UNL     1      -9.106   7.254  66.777  1.00  0.00    -0.135 OA 
HETATM   27  N   UNL     1      -9.791   6.054  68.527  1.00  0.00    -0.125 N  
HETATM   28  C   UNL     1      -9.521   4.125  66.778  1.00  0.00    -0.193 C  
HETATM   29  O   UNL     1      -9.389   2.922  66.576  1.00  0.00    -0.136 OA 
HETATM   30  C   UNL     1     -10.780   5.668  69.514  1.00  0.00    -0.310 C  
HETATM   31  C   UNL     1     -10.180   4.469  70.270  1.00  0.00    -0.137 C  
HETATM   32  O   UNL     1      -9.964   4.948  65.804  1.00  0.00    -0.182 OA 
HETATM   33  C   UNL     1      -9.184   3.857  69.262  1.00  0.00    -0.224 C  
BRANCH  31  34
HETATM   34  C   UNL     1      -9.495   4.789  71.635  1.00  0.00    -0.206 C  
HETATM   35  C   UNL     1     -11.533   4.437  73.107  1.00  0.00    -0.236 C  
HETATM   36  C   UNL     1     -10.934   3.183  73.735  1.00  0.00    -0.310 C  
HETATM   37  C   UNL     1      -9.852   2.542  72.869  1.00  0.00    -0.182 C  
HETATM   38  C   UNL     1     -10.433   5.405  72.686  1.00  0.00    -0.261 C  
HETATM   39  C   UNL     1      -8.846   3.543  72.288  1.00  0.00    -0.118 C  
ENDBRANCH  31  34
ENDBRANCH  23  24
ENDBRANCH  11  23
ENDBRANCH  10  11
ENDBRANCH   6  10
ENDBRANCH   5   6
ENDBRANCH   3   5
ENDBRANCH   2   3
TORSDOF 13
ENDMDL
MODEL       74
REMARK 921   NORMALIZED FREE ENERGY PREDICTED BY IDOCK:   -5.43 KCAL/MOL
REMARK 922        TOTAL FREE ENERGY PREDICTED BY IDOCK:  -12.02 KCAL/MOL
REMARK 923 INTER-LIGAND FREE ENERGY PREDICTED BY IDOCK:   -9.54 KCAL/MOL
REMARK 924 INTRA-LIGAND FREE ENERGY PREDICTED BY IDOCK:   -2.48 KCAL/MOL
REMARK 927      BINDING AFFINITY PREDICTED BY RF-SCORE:    0.00 PKD
ROOT
HETATM    1  C   UNL     1      -5.136   6.978  68.535  1.00  0.00    -0.016 C  
HETATM    2  C   UNL     1      -6.565   7.147  68.052  1.00  0.00    -0.049 C  
ENDROOT
BRANCH   2   3
HETATM    3  C   UNL     1      -7.570   6.052  68.400  1.00  0.00    -0.091 C  
HETATM    4  O   UNL     1      -8.238   5.477  67.546  1.00  0.00    -0.101 OA 
BRANCH   3   5
HETATM    5  O   UNL     1      -7.548   5.719  69.713  1.00  0.00    -0.076 OA 
BRANCH   5   6
HETATM    6  C   UNL     1      -8.627   6.210  70.571  1.00  0.00    -0.138 C  
HETATM    7  C   UNL     1      -9.672   5.045  70.719  1.00  0.00    -0.263 C  
HETATM    8  C   UNL     1     -10.885   5.404  71.575  1.00  0.00    -0.218 C  
HETATM    9  C   UNL     1      -9.054   3.750  71.252  1.00  0.00    -0.181 C  
BRANCH   6  10
HETATM   10  O   UNL     1      -9.270   7.446  70.135  1.00  0.00    -0.151 OA 
BRANCH  10  11
HETATM   11  P   UNL     1      -8.858   8.850  70.932  1.00  0.00    -0.238 P  
HETATM   12  O   UNL     1      -8.797   8.116  72.293  1.00  0.00    -0.148 OA 
BRANCH  11  13
HETATM   13  C   UNL     1     -10.586   9.653  71.416  1.00  0.00    -0.114 C  
BRANCH  13  14
HETATM   14  C   UNL     1     -11.369  10.133  70.189  1.00  0.00    -0.372 C  
BRANCH  14  15
HETATM   15  C   UNL     1     -12.788  10.579  70.493  1.00  0.00    -0.339 C  
BRANCH  15  16
HETATM   16  C   UNL     1     -12.808  11.317  71.842  1.00  0.00    -0.386 C  
BRANCH  16  17
HETATM   17  C   UNL     1     -12.931  12.800  71.630  1.00  0.00    -0.402 A  
HETATM   18  C   UNL     1     -12.129  13.454  70.686  1.00  0.00    -0.374 A  
HETATM   19  C   UNL     1     -13.897  13.527  72.336  1.00  0.00    -0.687 A  
HETATM   20  C   UNL     1     -13.258  15.539  71.159  1.00  0.00    -0.576 A  
HETATM   21  C   UNL     1     -12.291  14.826  70.459  1.00  0.00    -0.398 A  
HETATM   22  C   UNL     1     -14.059  14.891  72.094  1.00  0.00    -0.616 A  
ENDBRANCH  16  17
ENDBRANCH  15  16
ENDBRANCH  14  15
ENDBRANCH  13  14
ENDBRANCH  11  13
BRANCH  11  23
HETATM   23  C   UNL     1      -8.931   9.719  69.322  1.00  0.00    -0.173 C  
BRANCH  23  24
HETATM   24  C   UNL     1      -7.862  10.813  69.145  1.00  0.00    -0.142 C  
HETATM   25  C   UNL     1      -7.027  12.979  68.199  1.00  0.00    -0.105 C  
HETATM   26  O   UNL     1      -6.721  10.631  69.588  1.00  0.00    -0.084 OA 
HETATM   27  N   UNL     1      -8.115  12.031  68.554  1.00  0.00    -0.146 N  
HETATM   28  C   UNL     1      -6.301  13.750  69.336  1.00  0.00    -0.111 C  
HETATM   29  O   UNL     1      -5.800  14.860  69.197  1.00  0.00    -0.095 OA 
HETATM   30  C   UNL     1      -9.388  12.710  68.417  1.00  0.00    -0.148 C  
HETATM   31  C   UNL     1      -9.210  13.718  67.267  1.00  0.00    -0.239 C  
HETATM   32  O   UNL     1      -6.136  13.052  70.480  1.00  0.00    -0.133 OA 
HETATM   33  C   UNL     1      -7.691  13.993  67.248  1.00  0.00    -0.120 C  
BRANCH  31  34
HETATM   34  C   UNL     1      -9.731  13.263  65.868  1.00  0.00    -0.188 C  
HETATM   35  C   UNL     1     -12.152  12.888  66.534  1.00  0.00    -0.375 C  
HETATM   36  C   UNL     1     -12.625  14.077  65.705  1.00  0.00    -0.542 C  
HETATM   37  C   UNL     1     -11.514  15.087  65.425  1.00  0.00    -0.287 C  
HETATM   38  C   UNL     1     -10.902  12.268  65.921  1.00  0.00    -0.306 C  
HETATM   39  C   UNL     1     -10.190  14.450  64.984  1.00  0.00    -0.406 C  
ENDBRANCH  31  34
ENDBRANCH  23  24
ENDBRANCH  11  23
ENDBRANCH  10  11
ENDBRANCH   6  10
ENDBRANCH   5   6
ENDBRANCH   3   5
ENDBRANCH   2   3
TORSDOF 13
ENDMDL
MODEL       75
REMARK 921   NORMALIZED FREE ENERGY PREDICTED BY IDOCK:   -5.41 KCAL/MOL
REMARK 922        TOTAL FREE ENERGY PREDICTED BY IDOCK:  -11.99 KCAL/MOL
REMARK 923 INTER-LIGAND FREE ENERGY PREDICTED BY IDOCK:  -10.99 KCAL/MOL
REMARK 924 INTRA-LIGAND FREE ENERGY PREDICTED BY IDOCK:   -1.00 KCAL/MOL
REMARK 927      BINDING AFFINITY PREDICTED BY RF-SCORE:    0.00 PKD
ROOT
HETATM    1  C   UNL     1      -9.192   6.252  66.559  1.00  0.00    -0.169 C  
HETATM    2  C   UNL     1      -8.701   7.688  66.556  1.00  0.00    -0.161 C  
ENDROOT
BRANCH   2   3
HETATM    3  C   UNL     1      -8.356   8.321  65.211  1.00  0.00    -0.166 C  
HETATM    4  O   UNL     1      -8.002   7.656  64.242  1.00  0.00    -0.134 OA 
BRANCH   3   5
HETATM    5  O   UNL     1      -8.595   9.655  65.183  1.00  0.00    -0.138 OA 
BRANCH   5   6
HETATM    6  C   UNL     1      -9.982  10.109  65.088  1.00  0.00    -0.309 C  
HETATM    7  C   UNL     1     -10.007  11.331  64.099  1.00  0.00    -0.350 C  
HETATM    8  C   UNL     1     -11.392  11.944  63.904  1.00  0.00    -0.509 C  
HETATM    9  C   UNL     1      -9.411  11.004  62.728  1.00  0.00    -0.372 C  
BRANCH   6  10
HETATM   10  O   UNL     1     -10.629  10.439  66.355  1.00  0.00    -0.206 OA 
BRANCH  10  11
HETATM   11  P   UNL     1     -10.007  11.716  67.226  1.00  0.00    -0.195 P  
HETATM   12  O   UNL     1      -8.560  11.356  66.812  1.00  0.00    -0.155 OA 
BRANCH  11  13
HETATM   13  C   UNL     1      -9.704  10.972  69.021  1.00  0.00    -0.134 C  
BRANCH  13  14
HETATM   14  C   UNL     1      -8.324  10.321  69.155  1.00  0.00    -0.154 C  
BRANCH  14  15
HETATM   15  C   UNL     1      -8.155   9.476  70.406  1.00  0.00    -0.209 C  
BRANCH  15  16
HETATM   16  C   UNL     1      -8.671   8.055  70.129  1.00  0.00    -0.135 C  
BRANCH  16  17
HETATM   17  C   UNL     1     -10.056   7.879  70.684  1.00  0.00    -0.197 A  
HETATM   18  C   UNL     1     -10.977   7.034  70.049  1.00  0.00    -0.303 A  
HETATM   19  C   UNL     1     -10.415   8.514  71.878  1.00  0.00    -0.387 A  
HETATM   20  C   UNL     1     -12.591   7.465  71.795  1.00  0.00    -0.367 A  
HETATM   21  C   UNL     1     -12.246   6.836  70.604  1.00  0.00    -0.312 A  
HETATM   22  C   UNL     1     -11.678   8.301  72.431  1.00  0.00    -0.463 A  
ENDBRANCH  16  17
ENDBRANCH  15  16
ENDBRANCH  14  15
ENDBRANCH  13  14
ENDBRANCH  11  13
BRANCH  11  23
HETATM   23  C   UNL     1     -11.718  12.142  67.716  1.00  0.00    -0.320 C  
BRANCH  23  24
HETATM   24  C   UNL     1     -11.822  12.926  69.038  1.00  0.00    -0.306 C  
HETATM   25  C   UNL     1     -11.542  14.990  70.431  1.00  0.00    -0.287 C  
HETATM   26  O   UNL     1     -12.116  12.329  70.082  1.00  0.00    -0.327 OA 
HETATM   27  N   UNL     1     -11.653  14.290  69.126  1.00  0.00    -0.285 N  
HETATM   28  C   UNL     1     -12.815  15.152  71.308  1.00  0.00    -0.391 C  
HETATM   29  O   UNL     1     -12.995  16.083  72.086  1.00  0.00    -0.447 OA 
HETATM   30  C   UNL     1     -11.812  15.279  68.078  1.00  0.00    -0.156 C  
HETATM   31  C   UNL     1     -11.021  16.516  68.539  1.00  0.00    -0.350 C  
HETATM   32  O   UNL     1     -13.675  14.113  71.259  1.00  0.00    -0.311 OA 
HETATM   33  C   UNL     1     -10.994  16.386  70.077  1.00  0.00    -0.322 C  
BRANCH  31  34
HETATM   34  C   UNL     1      -9.585  16.674  67.949  1.00  0.00    -0.234 C  
HETATM   35  C   UNL     1     -10.171  18.329  66.116  1.00  0.00    -0.393 C  
HETATM   36  C   UNL     1      -9.407  19.453  66.808  1.00  0.00    -0.395 C  
HETATM   37  C   UNL     1      -9.216  19.211  68.303  1.00  0.00    -0.385 C  
HETATM   38  C   UNL     1      -9.548  16.976  66.442  1.00  0.00    -0.301 C  
HETATM   39  C   UNL     1      -8.766  17.787  68.651  1.00  0.00    -0.260 C  
ENDBRANCH  31  34
ENDBRANCH  23  24
ENDBRANCH  11  23
ENDBRANCH  10  11
ENDBRANCH   6  10
ENDBRANCH   5   6
ENDBRANCH   3   5
ENDBRANCH   2   3
TORSDOF 13
ENDMDL
MODEL       76
REMARK 921   NORMALIZED FREE ENERGY PREDICTED BY IDOCK:   -5.41 KCAL/MOL
REMARK 922        TOTAL FREE ENERGY PREDICTED BY IDOCK:  -11.98 KCAL/MOL
REMARK 923 INTER-LIGAND FREE ENERGY PREDICTED BY IDOCK:   -9.85 KCAL/MOL
REMARK 924 INTRA-LIGAND FREE ENERGY PREDICTED BY IDOCK:   -2.13 KCAL/MOL
REMARK 927      BINDING AFFINITY PREDICTED BY RF-SCORE:    0.00 PKD
ROOT
HETATM    1  C   UNL     1     -12.883  11.675  63.533  1.00  0.00    -0.189 C  
HETATM    2  C   UNL     1     -11.537  11.637  62.833  1.00  0.00     0.333 C  
ENDROOT
BRANCH   2   3
HETATM    3  C   UNL     1     -10.283  11.578  63.701  1.00  0.00    -0.405 C  
HETATM    4  O   UNL     1      -9.469  12.495  63.744  1.00  0.00    -0.027 OA 
BRANCH   3   5
HETATM    5  O   UNL     1     -10.241  10.474  64.485  1.00  0.00    -0.348 OA 
BRANCH   5   6
HETATM    6  C   UNL     1      -9.025  10.217  65.257  1.00  0.00    -0.186 C  
HETATM    7  C   UNL     1      -8.653   8.703  65.053  1.00  0.00    -0.185 C  
HETATM    8  C   UNL     1      -7.407   8.261  65.818  1.00  0.00    -0.072 C  
HETATM    9  C   UNL     1      -8.495   8.318  63.581  1.00  0.00     0.059 C  
BRANCH   6  10
HETATM   10  O   UNL     1      -9.090  10.561  66.675  1.00  0.00    -0.152 OA 
BRANCH  10  11
HETATM   11  P   UNL     1      -8.288  11.934  67.171  1.00  0.00    -0.176 P  
HETATM   12  O   UNL     1      -6.959  11.440  66.550  1.00  0.00    -0.130 OA 
BRANCH  11  13
HETATM   13  C   UNL     1      -7.640  11.488  68.973  1.00  0.00    -0.058 C  
BRANCH  13  14
HETATM   14  C   UNL     1      -7.473   9.978  69.174  1.00  0.00    -0.092 C  
BRANCH  14  15
HETATM   15  C   UNL     1      -8.352   9.397  70.267  1.00  0.00    -0.217 C  
BRANCH  15  16
HETATM   16  C   UNL     1      -9.661   8.885  69.645  1.00  0.00    -0.175 C  
BRANCH  16  17
HETATM   17  C   UNL     1     -10.839   9.291  70.486  1.00  0.00    -0.318 A  
HETATM   18  C   UNL     1     -11.442  10.544  70.309  1.00  0.00    -0.416 A  
HETATM   19  C   UNL     1     -11.380   8.391  71.411  1.00  0.00    -0.317 A  
HETATM   20  C   UNL     1     -13.107   9.987  71.971  1.00  0.00    -0.541 A  
HETATM   21  C   UNL     1     -12.572  10.890  71.060  1.00  0.00    -0.517 A  
HETATM   22  C   UNL     1     -12.513   8.740  72.145  1.00  0.00    -0.460 A  
ENDBRANCH  16  17
ENDBRANCH  15  16
ENDBRANCH  14  15
ENDBRANCH  13  14
ENDBRANCH  11  13
BRANCH  11  23
HETATM   23  C   UNL     1      -9.859  12.518  67.906  1.00  0.00    -0.207 C  
BRANCH  23  24
HETATM   24  C   UNL     1     -10.536  13.661  67.126  1.00  0.00    -0.272 C  
HETATM   25  C   UNL     1     -10.689  16.035  66.338  1.00  0.00    -0.232 C  
HETATM   26  O   UNL     1     -11.655  13.482  66.628  1.00  0.00    -0.331 OA 
HETATM   27  N   UNL     1      -9.940  14.882  66.899  1.00  0.00    -0.239 N  
HETATM   28  C   UNL     1     -11.082  16.017  64.835  1.00  0.00    -0.370 C  
HETATM   29  O   UNL     1     -11.215  17.026  64.151  1.00  0.00    -1.130 OA 
HETATM   30  C   UNL     1      -8.525  15.198  66.895  1.00  0.00    -0.244 C  
HETATM   31  C   UNL     1      -8.430  16.717  67.119  1.00  0.00    -0.208 C  
HETATM   32  O   UNL     1     -11.406  14.800  64.347  1.00  0.00    -0.313 OA 
HETATM   33  C   UNL     1      -9.784  17.253  66.607  1.00  0.00    -0.295 C  
BRANCH  31  34
HETATM   34  C   UNL     1      -8.143  17.180  68.581  1.00  0.00    -0.264 C  
HETATM   35  C   UNL     1      -5.612  17.003  68.483  1.00  0.00    -0.135 C  
HETATM   36  C   UNL     1      -5.445  18.516  68.563  1.00  0.00    -0.181 C  
HETATM   37  C   UNL     1      -6.695  19.277  68.126  1.00  0.00    -0.276 C  
HETATM   38  C   UNL     1      -6.880  16.562  69.206  1.00  0.00    -0.224 C  
HETATM   39  C   UNL     1      -8.000  18.718  68.707  1.00  0.00    -0.335 C  
ENDBRANCH  31  34
ENDBRANCH  23  24
ENDBRANCH  11  23
ENDBRANCH  10  11
ENDBRANCH   6  10
ENDBRANCH   5   6
ENDBRANCH   3   5
ENDBRANCH   2   3
TORSDOF 13
ENDMDL
MODEL       77
REMARK 921   NORMALIZED FREE ENERGY PREDICTED BY IDOCK:   -5.39 KCAL/MOL
REMARK 922        TOTAL FREE ENERGY PREDICTED BY IDOCK:  -11.95 KCAL/MOL
REMARK 923 INTER-LIGAND FREE ENERGY PREDICTED BY IDOCK:   -9.38 KCAL/MOL
REMARK 924 INTRA-LIGAND FREE ENERGY PREDICTED BY IDOCK:   -2.57 KCAL/MOL
REMARK 927      BINDING AFFINITY PREDICTED BY RF-SCORE:    0.00 PKD
ROOT
HETATM    1  C   UNL     1     -12.594  15.937  73.446  1.00  0.00    -0.666 C  
HETATM    2  C   UNL     1     -11.639  15.263  72.478  1.00  0.00    -0.498 C  
ENDROOT
BRANCH   2   3
HETATM    3  C   UNL     1     -12.014  15.251  70.998  1.00  0.00    -0.343 C  
HETATM    4  O   UNL     1     -13.088  15.678  70.587  1.00  0.00    -0.465 OA 
BRANCH   3   5
HETATM    5  O   UNL     1     -10.998  14.832  70.204  1.00  0.00    -0.213 OA 
BRANCH   5   6
HETATM    6  C   UNL     1     -11.308  13.918  69.105  1.00  0.00    -0.286 C  
HETATM    7  C   UNL     1     -11.882  14.785  67.926  1.00  0.00    -0.327 C  
HETATM    8  C   UNL     1     -12.281  13.973  66.695  1.00  0.00    -0.463 C  
HETATM    9  C   UNL     1     -10.938  15.909  67.494  1.00  0.00    -0.280 C  
BRANCH   6  10
HETATM   10  O   UNL     1     -12.202  12.812  69.434  1.00  0.00    -0.212 OA 
BRANCH  10  11
HETATM   11  P   UNL     1     -11.725  11.279  68.988  1.00  0.00    -0.350 P  
HETATM   12  O   UNL     1     -13.141  10.711  69.251  1.00  0.00     0.162 OA 
BRANCH  11  13
HETATM   13  C   UNL     1     -11.067  10.476  70.658  1.00  0.00    -0.105 C  
BRANCH  13  14
HETATM   14  C   UNL     1     -12.200   9.897  71.512  1.00  0.00    -0.505 C  
BRANCH  14  15
HETATM   15  C   UNL     1     -11.868   8.567  72.164  1.00  0.00    -0.448 C  
BRANCH  15  16
HETATM   16  C   UNL     1     -12.486   7.429  71.336  1.00  0.00    -0.402 C  
BRANCH  16  17
HETATM   17  C   UNL     1     -11.436   6.425  70.953  1.00  0.00    -0.406 A  
HETATM   18  C   UNL     1     -10.796   5.654  71.933  1.00  0.00    -0.302 A  
HETATM   19  C   UNL     1     -11.135   6.210  69.603  1.00  0.00    -0.489 A  
HETATM   20  C   UNL     1      -9.571   4.472  70.217  1.00  0.00    -0.263 A  
HETATM   21  C   UNL     1      -9.859   4.684  71.561  1.00  0.00    -0.259 A  
HETATM   22  C   UNL     1     -10.208   5.233  69.241  1.00  0.00    -0.301 A  
ENDBRANCH  16  17
ENDBRANCH  15  16
ENDBRANCH  14  15
ENDBRANCH  13  14
ENDBRANCH  11  13
BRANCH  11  23
HETATM   23  C   UNL     1     -10.052  11.950  68.678  1.00  0.00    -0.177 C  
BRANCH  23  24
HETATM   24  C   UNL     1      -9.359  11.372  67.429  1.00  0.00    -0.167 C  
HETATM   25  C   UNL     1      -7.813   9.767  66.282  1.00  0.00    -0.106 C  
HETATM   26  O   UNL     1      -9.470  11.955  66.343  1.00  0.00    -0.217 OA 
HETATM   27  N   UNL     1      -8.649  10.192  67.434  1.00  0.00    -0.122 N  
HETATM   28  C   UNL     1      -8.515   9.269  64.988  1.00  0.00    -0.163 C  
HETATM   29  O   UNL     1      -8.024   8.452  64.216  1.00  0.00    -0.136 OA 
HETATM   30  C   UNL     1      -8.769   9.081  68.358  1.00  0.00    -0.130 C  
HETATM   31  C   UNL     1      -7.448   8.298  68.254  1.00  0.00    -0.097 C  
HETATM   32  O   UNL     1      -9.670   9.901  64.688  1.00  0.00    -0.303 OA 
HETATM   33  C   UNL     1      -6.927   8.638  66.841  1.00  0.00    -0.077 C  
BRANCH  31  34
HETATM   34  C   UNL     1      -6.381   8.603  69.350  1.00  0.00    -0.041 C  
HETATM   35  C   UNL     1      -7.560   7.445  71.277  1.00  0.00    -0.082 C  
HETATM   36  C   UNL     1      -6.503   6.349  71.342  1.00  0.00    -0.050 C  
HETATM   37  C   UNL     1      -5.724   6.195  70.037  1.00  0.00    -0.014 C  
HETATM   38  C   UNL     1      -6.953   8.749  70.770  1.00  0.00    -0.066 C  
HETATM   39  C   UNL     1      -5.270   7.525  69.423  1.00  0.00    -0.015 C  
ENDBRANCH  31  34
ENDBRANCH  23  24
ENDBRANCH  11  23
ENDBRANCH  10  11
ENDBRANCH   6  10
ENDBRANCH   5   6
ENDBRANCH   3   5
ENDBRANCH   2   3
TORSDOF 13
ENDMDL
MODEL       78
REMARK 921   NORMALIZED FREE ENERGY PREDICTED BY IDOCK:   -5.38 KCAL/MOL
REMARK 922        TOTAL FREE ENERGY PREDICTED BY IDOCK:  -11.94 KCAL/MOL
REMARK 923 INTER-LIGAND FREE ENERGY PREDICTED BY IDOCK:  -10.02 KCAL/MOL
REMARK 924 INTRA-LIGAND FREE ENERGY PREDICTED BY IDOCK:   -1.92 KCAL/MOL
REMARK 927      BINDING AFFINITY PREDICTED BY RF-SCORE:    0.00 PKD
ROOT
HETATM    1  C   UNL     1     -11.194  16.022  70.400  1.00  0.00    -0.401 C  
HETATM    2  C   UNL     1     -10.159  15.513  69.413  1.00  0.00    -0.266 C  
ENDROOT
BRANCH   2   3
HETATM    3  C   UNL     1     -10.149  16.121  68.013  1.00  0.00    -0.242 C  
HETATM    4  O   UNL     1     -10.685  17.195  67.758  1.00  0.00    -0.361 OA 
BRANCH   3   5
HETATM    5  O   UNL     1      -9.397  15.410  67.139  1.00  0.00    -0.205 OA 
BRANCH   5   6
HETATM    6  C   UNL     1      -9.936  14.152  66.623  1.00  0.00    -0.277 C  
HETATM    7  C   UNL     1     -11.241  14.498  65.818  1.00  0.00    -0.334 C  
HETATM    8  C   UNL     1     -11.948  13.280  65.226  1.00  0.00    -0.422 C  
HETATM    9  C   UNL     1     -11.006  15.524  64.708  1.00  0.00    -0.416 C  
BRANCH   6  10
HETATM   10  O   UNL     1     -10.188  13.115  67.620  1.00  0.00    -0.218 OA 
BRANCH  10  11
HETATM   11  P   UNL     1      -9.049  11.909  67.781  1.00  0.00    -0.195 P  
HETATM   12  O   UNL     1      -7.900  12.942  67.882  1.00  0.00    -0.124 OA 
BRANCH  11  13
HETATM   13  C   UNL     1      -8.535  11.483  65.932  1.00  0.00     0.062 C  
BRANCH  13  14
HETATM   14  C   UNL     1      -9.634  10.720  65.184  1.00  0.00    -0.295 C  
BRANCH  14  15
HETATM   15  C   UNL     1      -9.178   9.399  64.591  1.00  0.00    -0.185 C  
BRANCH  15  16
HETATM   16  C   UNL     1      -8.355   8.631  65.638  1.00  0.00    -0.151 C  
BRANCH  16  17
HETATM   17  C   UNL     1      -9.118   7.434  66.134  1.00  0.00    -0.167 A  
HETATM   18  C   UNL     1      -8.599   6.143  65.974  1.00  0.00    -0.145 A  
HETATM   19  C   UNL     1     -10.328   7.611  66.814  1.00  0.00    -0.343 A  
HETATM   20  C   UNL     1     -10.489   5.226  67.169  1.00  0.00    -0.261 A  
HETATM   21  C   UNL     1      -9.292   5.040  66.488  1.00  0.00    -0.141 A  
HETATM   22  C   UNL     1     -11.006   6.508  67.332  1.00  0.00    -0.458 A  
ENDBRANCH  16  17
ENDBRANCH  15  16
ENDBRANCH  14  15
ENDBRANCH  13  14
ENDBRANCH  11  13
BRANCH  11  23
HETATM   23  C   UNL     1     -10.407  10.688  67.661  1.00  0.00    -0.209 C  
BRANCH  23  24
HETATM   24  C   UNL     1     -11.517  10.870  68.713  1.00  0.00    -0.308 C  
HETATM   25  C   UNL     1     -12.749  10.200  70.791  1.00  0.00    -0.311 C  
HETATM   26  O   UNL     1     -12.399  11.719  68.531  1.00  0.00    -0.348 OA 
HETATM   27  N   UNL     1     -11.563  10.167  69.897  1.00  0.00    -0.245 N  
HETATM   28  C   UNL     1     -13.033  11.486  71.615  1.00  0.00    -0.394 C  
HETATM   29  O   UNL     1     -13.604  11.490  72.700  1.00  0.00     0.138 OA 
HETATM   30  C   UNL     1     -10.467   9.527  70.599  1.00  0.00    -0.308 C  
HETATM   31  C   UNL     1     -11.111   8.479  71.524  1.00  0.00    -0.343 C  
HETATM   32  O   UNL     1     -12.724  12.642  70.989  1.00  0.00    -0.324 OA 
HETATM   33  C   UNL     1     -12.539   9.019  71.758  1.00  0.00    -0.434 C  
BRANCH  31  34
HETATM   34  C   UNL     1     -11.129   7.012  70.994  1.00  0.00    -0.295 C  
HETATM   35  C   UNL     1      -8.859   6.317  71.893  1.00  0.00    -0.139 C  
HETATM   36  C   UNL     1      -9.487   5.368  72.907  1.00  0.00    -0.155 C  
HETATM   37  C   UNL     1     -10.942   5.712  73.224  1.00  0.00    -0.316 C  
HETATM   38  C   UNL     1      -9.741   6.443  70.656  1.00  0.00    -0.197 C  
HETATM   39  C   UNL     1     -11.792   6.023  71.986  1.00  0.00    -0.284 C  
ENDBRANCH  31  34
ENDBRANCH  23  24
ENDBRANCH  11  23
ENDBRANCH  10  11
ENDBRANCH   6  10
ENDBRANCH   5   6
ENDBRANCH   3   5
ENDBRANCH   2   3
TORSDOF 13
ENDMDL
MODEL       79
REMARK 921   NORMALIZED FREE ENERGY PREDICTED BY IDOCK:   -5.37 KCAL/MOL
REMARK 922        TOTAL FREE ENERGY PREDICTED BY IDOCK:  -11.92 KCAL/MOL
REMARK 923 INTER-LIGAND FREE ENERGY PREDICTED BY IDOCK:  -11.68 KCAL/MOL
REMARK 924 INTRA-LIGAND FREE ENERGY PREDICTED BY IDOCK:   -0.24 KCAL/MOL
REMARK 927      BINDING AFFINITY PREDICTED BY RF-SCORE:    0.00 PKD
ROOT
HETATM    1  C   UNL     1     -10.679   6.081  68.327  1.00  0.00    -0.352 C  
HETATM    2  C   UNL     1     -10.527   6.875  67.042  1.00  0.00    -0.374 C  
ENDROOT
BRANCH   2   3
HETATM    3  C   UNL     1      -9.147   6.923  66.391  1.00  0.00    -0.159 C  
HETATM    4  O   UNL     1      -8.619   5.933  65.897  1.00  0.00    -0.135 OA 
BRANCH   3   5
HETATM    5  O   UNL     1      -8.644   8.180  66.322  1.00  0.00    -0.128 OA 
BRANCH   5   6
HETATM    6  C   UNL     1      -9.487   9.235  65.761  1.00  0.00    -0.262 C  
HETATM    7  C   UNL     1      -8.694   9.881  64.568  1.00  0.00    -0.219 C  
HETATM    8  C   UNL     1      -9.433  11.027  63.879  1.00  0.00    -0.280 C  
HETATM    9  C   UNL     1      -8.265   8.861  63.511  1.00  0.00    -0.177 C  
BRANCH   6  10
HETATM   10  O   UNL     1      -9.944  10.251  66.706  1.00  0.00    -0.192 OA 
BRANCH  10  11
HETATM   11  P   UNL     1      -8.825  10.866  67.775  1.00  0.00    -0.140 P  
HETATM   12  O   UNL     1      -7.706   9.968  67.194  1.00  0.00    -0.092 OA 
BRANCH  11  13
HETATM   13  C   UNL     1      -8.975   9.701  69.352  1.00  0.00    -0.181 C  
BRANCH  13  14
HETATM   14  C   UNL     1     -10.428   9.511  69.799  1.00  0.00    -0.253 C  
BRANCH  14  15
HETATM   15  C   UNL     1     -10.607   9.411  71.303  1.00  0.00    -0.400 C  
BRANCH  15  16
HETATM   16  C   UNL     1     -11.760   8.443  71.612  1.00  0.00    -0.354 C  
BRANCH  16  17
HETATM   17  C   UNL     1     -11.303   7.357  72.546  1.00  0.00    -0.358 A  
HETATM   18  C   UNL     1     -11.781   6.048  72.405  1.00  0.00    -0.322 A  
HETATM   19  C   UNL     1     -10.345   7.639  73.527  1.00  0.00    -0.306 A  
HETATM   20  C   UNL     1     -10.349   5.322  74.212  1.00  0.00    -0.308 A  
HETATM   21  C   UNL     1     -11.306   5.034  73.245  1.00  0.00    -0.393 A  
HETATM   22  C   UNL     1      -9.870   6.621  74.352  1.00  0.00    -0.349 A  
ENDBRANCH  16  17
ENDBRANCH  15  16
ENDBRANCH  14  15
ENDBRANCH  13  14
ENDBRANCH  11  13
BRANCH  11  23
HETATM   23  C   UNL     1     -10.148  11.928  68.462  1.00  0.00    -0.206 C  
BRANCH  23  24
HETATM   24  C   UNL     1     -11.068  12.559  67.400  1.00  0.00    -0.272 C  
HETATM   25  C   UNL     1     -11.739  14.415  65.855  1.00  0.00    -0.369 C  
HETATM   26  O   UNL     1     -12.131  12.000  67.101  1.00  0.00    -0.587 OA 
HETATM   27  N   UNL     1     -10.751  13.708  66.709  1.00  0.00    -0.272 N  
HETATM   28  C   UNL     1     -12.146  13.782  64.495  1.00  0.00    -0.428 C  
HETATM   29  O   UNL     1     -12.503  14.432  63.518  1.00  0.00    -0.770 OA 
HETATM   30  C   UNL     1      -9.437  14.270  66.464  1.00  0.00    -0.287 C  
HETATM   31  C   UNL     1      -9.665  15.756  66.137  1.00  0.00    -0.351 C  
HETATM   32  O   UNL     1     -12.209  12.433  64.492  1.00  0.00    -0.417 OA 
HETATM   33  C   UNL     1     -11.112  15.798  65.598  1.00  0.00    -0.155 C  
BRANCH  31  34
HETATM   34  C   UNL     1      -9.459  16.759  67.314  1.00  0.00    -0.231 C  
HETATM   35  C   UNL     1      -7.597  18.120  66.253  1.00  0.00    -0.299 C  
HETATM   36  C   UNL     1      -8.496  19.342  66.104  1.00  0.00    -0.303 C  
HETATM   37  C   UNL     1      -9.983  18.993  66.114  1.00  0.00    -0.413 C  
HETATM   38  C   UNL     1      -8.020  17.284  67.455  1.00  0.00    -0.194 C  
HETATM   39  C   UNL     1     -10.382  18.000  67.213  1.00  0.00    -0.387 C  
ENDBRANCH  31  34
ENDBRANCH  23  24
ENDBRANCH  11  23
ENDBRANCH  10  11
ENDBRANCH   6  10
ENDBRANCH   5   6
ENDBRANCH   3   5
ENDBRANCH   2   3
TORSDOF 13
ENDMDL
MODEL       80
REMARK 921   NORMALIZED FREE ENERGY PREDICTED BY IDOCK:   -5.37 KCAL/MOL
REMARK 922        TOTAL FREE ENERGY PREDICTED BY IDOCK:  -11.92 KCAL/MOL
REMARK 923 INTER-LIGAND FREE ENERGY PREDICTED BY IDOCK:   -9.57 KCAL/MOL
REMARK 924 INTRA-LIGAND FREE ENERGY PREDICTED BY IDOCK:   -2.35 KCAL/MOL
REMARK 927      BINDING AFFINITY PREDICTED BY RF-SCORE:    0.00 PKD
ROOT
HETATM    1  C   UNL     1     -12.658  15.311  73.429  1.00  0.00    -0.648 C  
HETATM    2  C   UNL     1     -11.553  15.136  72.404  1.00  0.00    -0.457 C  
ENDROOT
BRANCH   2   3
HETATM    3  C   UNL     1     -11.903  15.351  70.934  1.00  0.00    -0.356 C  
HETATM    4  O   UNL     1     -12.904  15.965  70.578  1.00  0.00    -0.422 OA 
BRANCH   3   5
HETATM    5  O   UNL     1     -10.940  14.897  70.094  1.00  0.00    -0.239 OA 
BRANCH   5   6
HETATM    6  C   UNL     1     -11.291  13.846  69.140  1.00  0.00    -0.286 C  
HETATM    7  C   UNL     1     -11.959  14.545  67.901  1.00  0.00    -0.322 C  
HETATM    8  C   UNL     1     -12.411  13.576  66.809  1.00  0.00    -0.326 C  
HETATM    9  C   UNL     1     -11.075  15.624  67.272  1.00  0.00    -0.238 C  
BRANCH   6  10
HETATM   10  O   UNL     1     -12.133  12.773  69.661  1.00  0.00    -0.289 OA 
BRANCH  10  11
HETATM   11  P   UNL     1     -11.786  11.218  69.174  1.00  0.00    -0.309 P  
HETATM   12  O   UNL     1     -13.233  10.752  69.468  1.00  0.00     0.110 OA 
BRANCH  11  13
HETATM   13  C   UNL     1     -11.144  10.334  70.808  1.00  0.00    -0.227 C  
BRANCH  13  14
HETATM   14  C   UNL     1     -11.529   8.851  70.858  1.00  0.00    -0.339 C  
BRANCH  14  15
HETATM   15  C   UNL     1     -11.577   8.270  72.259  1.00  0.00    -0.449 C  
BRANCH  15  16
HETATM   16  C   UNL     1     -10.142   8.059  72.769  1.00  0.00    -0.378 C  
BRANCH  16  17
HETATM   17  C   UNL     1      -9.745   6.615  72.644  1.00  0.00    -0.171 A  
HETATM   18  C   UNL     1     -10.719   5.610  72.581  1.00  0.00    -0.285 A  
HETATM   19  C   UNL     1      -8.393   6.271  72.529  1.00  0.00    -0.113 A  
HETATM   20  C   UNL     1      -8.995   3.942  72.289  1.00  0.00    -0.138 A  
HETATM   21  C   UNL     1     -10.339   4.274  72.411  1.00  0.00    -0.230 A  
HETATM   22  C   UNL     1      -8.024   4.939  72.347  1.00  0.00    -0.103 A  
ENDBRANCH  16  17
ENDBRANCH  15  16
ENDBRANCH  14  15
ENDBRANCH  13  14
ENDBRANCH  11  13
BRANCH  11  23
HETATM   23  C   UNL     1     -10.076  11.768  68.826  1.00  0.00    -0.140 C  
BRANCH  23  24
HETATM   24  C   UNL     1      -9.593  11.466  67.395  1.00  0.00    -0.174 C  
HETATM   25  C   UNL     1      -8.845   9.908  65.579  1.00  0.00    -0.159 C  
HETATM   26  O   UNL     1      -9.298  12.400  66.639  1.00  0.00    -0.218 OA 
HETATM   27  N   UNL     1      -9.514  10.193  66.874  1.00  0.00    -0.165 N  
HETATM   28  C   UNL     1      -9.546  10.338  64.261  1.00  0.00    -0.313 C  
HETATM   29  O   UNL     1      -9.403   9.757  63.190  1.00  0.00    -0.263 OA 
HETATM   30  C   UNL     1     -10.238   9.009  67.295  1.00  0.00    -0.256 C  
HETATM   31  C   UNL     1      -9.426   7.809  66.777  1.00  0.00    -0.251 C  
HETATM   32  O   UNL     1     -10.235  11.497  64.335  1.00  0.00    -0.260 OA 
HETATM   33  C   UNL     1      -8.651   8.380  65.570  1.00  0.00    -0.201 C  
BRANCH  31  34
HETATM   34  C   UNL     1      -8.471   7.129  67.806  1.00  0.00    -0.120 C  
HETATM   35  C   UNL     1     -10.225   5.734  68.999  1.00  0.00    -0.282 C  
HETATM   36  C   UNL     1      -9.650   4.434  68.447  1.00  0.00    -0.203 C  
HETATM   37  C   UNL     1      -8.817   4.640  67.184  1.00  0.00    -0.109 C  
HETATM   38  C   UNL     1      -9.131   6.784  69.152  1.00  0.00    -0.138 C  
HETATM   39  C   UNL     1      -7.841   5.820  67.267  1.00  0.00    -0.102 C  
ENDBRANCH  31  34
ENDBRANCH  23  24
ENDBRANCH  11  23
ENDBRANCH  10  11
ENDBRANCH   6  10
ENDBRANCH   5   6
ENDBRANCH   3   5
ENDBRANCH   2   3
TORSDOF 13
ENDMDL
MODEL       81
REMARK 921   NORMALIZED FREE ENERGY PREDICTED BY IDOCK:   -5.35 KCAL/MOL
REMARK 922        TOTAL FREE ENERGY PREDICTED BY IDOCK:  -11.88 KCAL/MOL
REMARK 923 INTER-LIGAND FREE ENERGY PREDICTED BY IDOCK:   -9.91 KCAL/MOL
REMARK 924 INTRA-LIGAND FREE ENERGY PREDICTED BY IDOCK:   -1.98 KCAL/MOL
REMARK 927      BINDING AFFINITY PREDICTED BY RF-SCORE:    0.00 PKD
ROOT
HETATM    1  C   UNL     1     -12.461  12.096  63.458  1.00  0.00    -0.666 C  
HETATM    2  C   UNL     1     -11.081  12.135  64.088  1.00  0.00    -0.424 C  
ENDROOT
BRANCH   2   3
HETATM    3  C   UNL     1     -10.628  13.443  64.732  1.00  0.00    -0.405 C  
HETATM    4  O   UNL     1     -10.867  14.539  64.234  1.00  0.00    -0.169 OA 
BRANCH   3   5
HETATM    5  O   UNL     1     -10.051  13.258  65.944  1.00  0.00    -0.285 OA 
BRANCH   5   6
HETATM    6  C   UNL     1     -10.524  12.150  66.775  1.00  0.00    -0.218 C  
HETATM    7  C   UNL     1     -11.341  12.774  67.964  1.00  0.00    -0.335 C  
HETATM    8  C   UNL     1     -11.891  11.743  68.948  1.00  0.00    -0.381 C  
HETATM    9  C   UNL     1     -12.485  13.675  67.497  1.00  0.00     0.117 C  
BRANCH   6  10
HETATM   10  O   UNL     1      -9.492  11.238  67.261  1.00  0.00    -0.171 OA 
BRANCH  10  11
HETATM   11  P   UNL     1      -7.908  11.746  67.166  1.00  0.00    -0.151 P  
HETATM   12  O   UNL     1      -7.676  10.937  65.867  1.00  0.00    -0.144 OA 
BRANCH  11  13
HETATM   13  C   UNL     1      -6.911  10.409  68.206  1.00  0.00    -0.070 C  
BRANCH  13  14
HETATM   14  C   UNL     1      -7.647   9.066  68.285  1.00  0.00    -0.091 C  
BRANCH  14  15
HETATM   15  C   UNL     1      -7.897   8.578  69.701  1.00  0.00    -0.095 C  
BRANCH  15  16
HETATM   16  C   UNL     1      -9.121   9.307  70.278  1.00  0.00    -0.271 C  
BRANCH  16  17
HETATM   17  C   UNL     1     -10.075   8.325  70.899  1.00  0.00    -0.224 A  
HETATM   18  C   UNL     1     -10.792   7.426  70.100  1.00  0.00    -0.270 A  
HETATM   19  C   UNL     1     -10.205   8.265  72.291  1.00  0.00    -0.375 A  
HETATM   20  C   UNL     1     -11.754   6.422  72.078  1.00  0.00    -0.376 A  
HETATM   21  C   UNL     1     -11.637   6.480  70.693  1.00  0.00    -0.442 A  
HETATM   22  C   UNL     1     -11.040   7.312  72.874  1.00  0.00    -0.369 A  
ENDBRANCH  16  17
ENDBRANCH  15  16
ENDBRANCH  14  15
ENDBRANCH  13  14
ENDBRANCH  11  13
BRANCH  11  23
HETATM   23  C   UNL     1      -8.183  12.703  68.702  1.00  0.00     0.008 C  
BRANCH  23  24
HETATM   24  C   UNL     1      -7.140  13.807  68.955  1.00  0.00    -0.107 C  
HETATM   25  C   UNL     1      -6.393  16.200  68.986  1.00  0.00    -0.148 C  
HETATM   26  O   UNL     1      -5.971  13.497  69.217  1.00  0.00    -0.081 OA 
HETATM   27  N   UNL     1      -7.444  15.151  68.957  1.00  0.00    -0.147 N  
HETATM   28  C   UNL     1      -5.605  16.438  70.304  1.00  0.00    -0.176 C  
HETATM   29  O   UNL     1      -5.126  17.520  70.628  1.00  0.00    -0.237 OA 
HETATM   30  C   UNL     1      -8.732  15.775  69.192  1.00  0.00    -0.253 C  
HETATM   31  C   UNL     1      -8.639  17.183  68.577  1.00  0.00    -0.258 C  
HETATM   32  O   UNL     1      -5.359  15.325  71.028  1.00  0.00    -0.138 OA 
HETATM   33  C   UNL     1      -7.128  17.497  68.598  1.00  0.00    -0.243 C  
BRANCH  31  34
HETATM   34  C   UNL     1      -9.243  17.350  67.148  1.00  0.00    -0.241 C  
HETATM   35  C   UNL     1     -10.649  19.408  67.632  1.00  0.00    -0.575 C  
HETATM   36  C   UNL     1      -9.765  20.289  66.757  1.00  0.00    -0.571 C  
HETATM   37  C   UNL     1      -8.366  19.711  66.550  1.00  0.00    -0.357 C  
HETATM   38  C   UNL     1     -10.650  17.971  67.123  1.00  0.00    -0.337 C  
HETATM   39  C   UNL     1      -8.354  18.214  66.218  1.00  0.00    -0.228 C  
ENDBRANCH  31  34
ENDBRANCH  23  24
ENDBRANCH  11  23
ENDBRANCH  10  11
ENDBRANCH   6  10
ENDBRANCH   5   6
ENDBRANCH   3   5
ENDBRANCH   2   3
TORSDOF 13
ENDMDL
MODEL       82
REMARK 921   NORMALIZED FREE ENERGY PREDICTED BY IDOCK:   -5.33 KCAL/MOL
REMARK 922        TOTAL FREE ENERGY PREDICTED BY IDOCK:  -11.84 KCAL/MOL
REMARK 923 INTER-LIGAND FREE ENERGY PREDICTED BY IDOCK:   -9.98 KCAL/MOL
REMARK 924 INTRA-LIGAND FREE ENERGY PREDICTED BY IDOCK:   -1.86 KCAL/MOL
REMARK 927      BINDING AFFINITY PREDICTED BY RF-SCORE:    0.00 PKD
ROOT
HETATM    1  C   UNL     1      -9.213   7.284  66.697  1.00  0.00    -0.193 C  
HETATM    2  C   UNL     1      -7.773   7.762  66.670  1.00  0.00    -0.098 C  
ENDROOT
BRANCH   2   3
HETATM    3  C   UNL     1      -7.489   9.195  67.114  1.00  0.00    -0.087 C  
HETATM    4  O   UNL     1      -7.236   9.485  68.279  1.00  0.00    -0.075 OA 
BRANCH   3   5
HETATM    5  O   UNL     1      -7.435  10.064  66.076  1.00  0.00    -0.102 OA 
BRANCH   5   6
HETATM    6  C   UNL     1      -8.694  10.512  65.480  1.00  0.00    -0.185 C  
HETATM    7  C   UNL     1      -8.542  10.390  63.920  1.00  0.00    -0.178 C  
HETATM    8  C   UNL     1      -9.773  10.843  63.138  1.00  0.00    -0.396 C  
HETATM    9  C   UNL     1      -8.155   8.982  63.464  1.00  0.00    -0.164 C  
BRANCH   6  10
HETATM   10  O   UNL     1      -9.139  11.848  65.866  1.00  0.00    -0.186 OA 
BRANCH  10  11
HETATM   11  P   UNL     1     -10.678  11.997  66.487  1.00  0.00    -0.282 P  
HETATM   12  O   UNL     1     -11.209  12.582  65.156  1.00  0.00    -0.289 OA 
BRANCH  11  13
HETATM   13  C   UNL     1     -10.695  13.784  67.307  1.00  0.00    -0.283 C  
BRANCH  13  14
HETATM   14  C   UNL     1     -11.061  14.881  66.302  1.00  0.00    -0.340 C  
BRANCH  14  15
HETATM   15  C   UNL     1      -9.863  15.558  65.658  1.00  0.00    -0.377 C  
BRANCH  15  16
HETATM   16  C   UNL     1      -9.040  16.270  66.744  1.00  0.00    -0.257 C  
BRANCH  16  17
HETATM   17  C   UNL     1      -9.616  17.627  67.037  1.00  0.00    -0.276 A  
HETATM   18  C   UNL     1      -9.752  18.072  68.358  1.00  0.00    -0.348 A  
HETATM   19  C   UNL     1      -9.963  18.479  65.983  1.00  0.00    -0.239 A  
HETATM   20  C   UNL     1     -10.574  20.202  67.564  1.00  0.00    -0.336 A  
HETATM   21  C   UNL     1     -10.239  19.359  68.618  1.00  0.00    -0.462 A  
HETATM   22  C   UNL     1     -10.436  19.764  66.251  1.00  0.00    -0.614 A  
ENDBRANCH  16  17
ENDBRANCH  15  16
ENDBRANCH  14  15
ENDBRANCH  13  14
ENDBRANCH  11  13
BRANCH  11  23
HETATM   23  C   UNL     1     -10.050  11.305  68.061  1.00  0.00    -0.177 C  
BRANCH  23  24
HETATM   24  C   UNL     1     -11.142  10.727  68.979  1.00  0.00    -0.253 C  
HETATM   25  C   UNL     1     -12.000   9.062  70.645  1.00  0.00    -0.099 C  
HETATM   26  O   UNL     1     -12.296  11.171  68.913  1.00  0.00    -0.512 OA 
HETATM   27  N   UNL     1     -10.901   9.756  69.927  1.00  0.00    -0.255 N  
HETATM   28  C   UNL     1     -12.796   9.838  71.730  1.00  0.00    -0.434 C  
HETATM   29  O   UNL     1     -13.325   9.306  72.701  1.00  0.00    -0.430 OA 
HETATM   30  C   UNL     1      -9.644   9.430  70.570  1.00  0.00    -0.271 C  
HETATM   31  C   UNL     1      -9.802   7.996  71.108  1.00  0.00    -0.198 C  
HETATM   32  O   UNL     1     -12.989  11.148  71.466  1.00  0.00    -0.429 OA 
HETATM   33  C   UNL     1     -11.327   7.837  71.294  1.00  0.00    -0.289 C  
BRANCH  31  34
HETATM   34  C   UNL     1      -9.209   6.859  70.219  1.00  0.00    -0.156 C  
HETATM   35  C   UNL     1      -7.184   6.348  71.662  1.00  0.00    -0.086 C  
HETATM   36  C   UNL     1      -7.739   4.986  72.061  1.00  0.00    -0.104 C  
HETATM   37  C   UNL     1      -9.255   4.890  71.899  1.00  0.00    -0.171 C  
HETATM   38  C   UNL     1      -7.676   6.745  70.275  1.00  0.00    -0.101 C  
HETATM   39  C   UNL     1      -9.777   5.462  70.575  1.00  0.00    -0.246 C  
ENDBRANCH  31  34
ENDBRANCH  23  24
ENDBRANCH  11  23
ENDBRANCH  10  11
ENDBRANCH   6  10
ENDBRANCH   5   6
ENDBRANCH   3   5
ENDBRANCH   2   3
TORSDOF 13
ENDMDL
MODEL       83
REMARK 921   NORMALIZED FREE ENERGY PREDICTED BY IDOCK:   -5.32 KCAL/MOL
REMARK 922        TOTAL FREE ENERGY PREDICTED BY IDOCK:  -11.83 KCAL/MOL
REMARK 923 INTER-LIGAND FREE ENERGY PREDICTED BY IDOCK:   -9.89 KCAL/MOL
REMARK 924 INTRA-LIGAND FREE ENERGY PREDICTED BY IDOCK:   -1.94 KCAL/MOL
REMARK 927      BINDING AFFINITY PREDICTED BY RF-SCORE:    0.00 PKD
ROOT
HETATM    1  C   UNL     1      -8.476   7.513  66.138  1.00  0.00    -0.147 C  
HETATM    2  C   UNL     1      -9.769   8.305  66.081  1.00  0.00    -0.189 C  
ENDROOT
BRANCH   2   3
HETATM    3  C   UNL     1      -9.678   9.797  65.772  1.00  0.00    -0.273 C  
HETATM    4  O   UNL     1      -9.214  10.224  64.720  1.00  0.00    -0.199 OA 
BRANCH   3   5
HETATM    5  O   UNL     1     -10.264  10.566  66.723  1.00  0.00    -0.217 OA 
BRANCH   5   6
HETATM    6  C   UNL     1      -9.656  10.607  68.052  1.00  0.00    -0.157 C  
HETATM    7  C   UNL     1      -8.121  10.886  67.855  1.00  0.00    -0.113 C  
HETATM    8  C   UNL     1      -7.326  10.938  69.159  1.00  0.00    -0.126 C  
HETATM    9  C   UNL     1      -7.842  12.158  67.052  1.00  0.00    -0.123 C  
BRANCH   6  10
HETATM   10  O   UNL     1      -9.878   9.429  68.888  1.00  0.00    -0.163 OA 
BRANCH  10  11
HETATM   11  P   UNL     1     -10.395   9.682  70.451  1.00  0.00    -0.278 P  
HETATM   12  O   UNL     1      -9.314   8.726  71.013  1.00  0.00    -0.181 OA 
BRANCH  11  13
HETATM   13  C   UNL     1     -11.781   8.315  70.726  1.00  0.00    -0.202 C  
BRANCH  13  14
HETATM   14  C   UNL     1     -11.736   7.715  72.135  1.00  0.00    -0.355 C  
BRANCH  14  15
HETATM   15  C   UNL     1     -12.016   6.224  72.184  1.00  0.00    -0.338 C  
BRANCH  15  16
HETATM   16  C   UNL     1     -10.711   5.474  72.494  1.00  0.00    -0.289 C  
BRANCH  16  17
HETATM   17  C   UNL     1      -9.875   5.334  71.253  1.00  0.00    -0.232 A  
HETATM   18  C   UNL     1      -8.478   5.278  71.337  1.00  0.00    -0.125 A  
HETATM   19  C   UNL     1     -10.496   5.198  70.006  1.00  0.00    -0.305 A  
HETATM   20  C   UNL     1      -8.338   4.951  68.945  1.00  0.00    -0.082 A  
HETATM   21  C   UNL     1      -7.713   5.094  70.179  1.00  0.00    -0.071 A  
HETATM   22  C   UNL     1      -9.726   5.003  68.859  1.00  0.00    -0.234 A  
ENDBRANCH  16  17
ENDBRANCH  15  16
ENDBRANCH  14  15
ENDBRANCH  13  14
ENDBRANCH  11  13
BRANCH  11  23
HETATM   23  C   UNL     1     -11.672  10.811  69.787  1.00  0.00    -0.324 C  
BRANCH  23  24
HETATM   24  C   UNL     1     -12.077  11.945  70.747  1.00  0.00    -0.226 C  
HETATM   25  C   UNL     1     -12.275  14.361  71.384  1.00  0.00    -0.352 C  
HETATM   26  O   UNL     1     -12.455  11.670  71.893  1.00  0.00    -0.074 OA 
HETATM   27  N   UNL     1     -12.093  13.274  70.387  1.00  0.00    -0.352 N  
HETATM   28  C   UNL     1     -13.679  14.577  72.013  1.00  0.00    -0.436 C  
HETATM   29  O   UNL     1     -14.091  15.663  72.407  1.00  0.00    -0.543 OA 
HETATM   30  C   UNL     1     -12.206  13.838  69.057  1.00  0.00    -0.224 C  
HETATM   31  C   UNL     1     -11.655  15.272  69.155  1.00  0.00    -0.349 C  
HETATM   32  O   UNL     1     -14.386  13.447  72.226  1.00  0.00    -0.500 OA 
HETATM   33  C   UNL     1     -11.853  15.643  70.640  1.00  0.00    -0.409 C  
BRANCH  31  34
HETATM   34  C   UNL     1     -10.175  15.472  68.703  1.00  0.00    -0.216 C  
HETATM   35  C   UNL     1     -10.655  16.057  66.280  1.00  0.00    -0.288 C  
HETATM   36  C   UNL     1     -10.205  17.500  66.479  1.00  0.00    -0.342 C  
HETATM   37  C   UNL     1     -10.256  17.944  67.940  1.00  0.00    -0.375 C  
HETATM   38  C   UNL     1      -9.910  15.125  67.229  1.00  0.00    -0.228 C  
HETATM   39  C   UNL     1      -9.672  16.921  68.922  1.00  0.00    -0.256 C  
ENDBRANCH  31  34
ENDBRANCH  23  24
ENDBRANCH  11  23
ENDBRANCH  10  11
ENDBRANCH   6  10
ENDBRANCH   5   6
ENDBRANCH   3   5
ENDBRANCH   2   3
TORSDOF 13
ENDMDL
MODEL       84
REMARK 921   NORMALIZED FREE ENERGY PREDICTED BY IDOCK:   -5.30 KCAL/MOL
REMARK 922        TOTAL FREE ENERGY PREDICTED BY IDOCK:  -11.79 KCAL/MOL
REMARK 923 INTER-LIGAND FREE ENERGY PREDICTED BY IDOCK:   -9.14 KCAL/MOL
REMARK 924 INTRA-LIGAND FREE ENERGY PREDICTED BY IDOCK:   -2.65 KCAL/MOL
REMARK 927      BINDING AFFINITY PREDICTED BY RF-SCORE:    0.00 PKD
ROOT
HETATM    1  C   UNL     1      -5.565  11.495  68.940  1.00  0.00    -0.046 C  
HETATM    2  C   UNL     1      -7.065  11.379  68.746  1.00  0.00    -0.102 C  
ENDROOT
BRANCH   2   3
HETATM    3  C   UNL     1      -7.835  10.448  69.680  1.00  0.00    -0.129 C  
HETATM    4  O   UNL     1      -7.365  10.040  70.737  1.00  0.00    -0.323 OA 
BRANCH   3   5
HETATM    5  O   UNL     1      -9.108  10.229  69.268  1.00  0.00    -0.182 OA 
BRANCH   5   6
HETATM    6  C   UNL     1      -9.555   8.847  69.103  1.00  0.00    -0.162 C  
HETATM    7  C   UNL     1     -10.025   8.683  67.612  1.00  0.00    -0.248 C  
HETATM    8  C   UNL     1     -10.549   7.288  67.274  1.00  0.00    -0.395 C  
HETATM    9  C   UNL     1      -8.946   9.066  66.598  1.00  0.00    -0.163 C  
BRANCH   6  10
HETATM   10  O   UNL     1     -10.586   8.398  70.036  1.00  0.00    -0.227 OA 
BRANCH  10  11
HETATM   11  P   UNL     1     -10.668   9.158  71.516  1.00  0.00    -0.296 P  
HETATM   12  O   UNL     1      -9.310   8.559  71.953  1.00  0.00    -0.217 OA 
BRANCH  11  13
HETATM   13  C   UNL     1     -11.628   7.881  72.660  1.00  0.00    -0.377 C  
BRANCH  13  14
HETATM   14  C   UNL     1     -11.863   6.537  71.963  1.00  0.00    -0.374 C  
BRANCH  14  15
HETATM   15  C   UNL     1     -11.222   5.352  72.664  1.00  0.00    -0.333 C  
BRANCH  15  16
HETATM   16  C   UNL     1      -9.695   5.439  72.511  1.00  0.00    -0.176 C  
BRANCH  16  17
HETATM   17  C   UNL     1      -9.271   4.933  71.161  1.00  0.00    -0.191 A  
HETATM   18  C   UNL     1      -9.866   3.791  70.609  1.00  0.00    -0.159 A  
HETATM   19  C   UNL     1      -8.317   5.640  70.420  1.00  0.00    -0.119 A  
HETATM   20  C   UNL     1      -8.559   4.074  68.595  1.00  0.00    -0.117 A  
HETATM   21  C   UNL     1      -9.501   3.361  69.327  1.00  0.00    -0.212 A  
HETATM   22  C   UNL     1      -7.969   5.211  69.139  1.00  0.00    -0.081 A  
ENDBRANCH  16  17
ENDBRANCH  15  16
ENDBRANCH  14  15
ENDBRANCH  13  14
ENDBRANCH  11  13
BRANCH  11  23
HETATM   23  C   UNL     1     -12.274   9.867  70.999  1.00  0.00    -0.353 C  
BRANCH  23  24
HETATM   24  C   UNL     1     -12.445  11.360  71.334  1.00  0.00    -0.265 C  
HETATM   25  C   UNL     1     -12.238  13.801  70.801  1.00  0.00    -0.363 C  
HETATM   26  O   UNL     1     -12.790  11.696  72.475  1.00  0.00     0.142 OA 
HETATM   27  N   UNL     1     -12.283  12.369  70.410  1.00  0.00    -0.332 N  
HETATM   28  C   UNL     1     -13.553  14.500  71.243  1.00  0.00    -0.357 C  
HETATM   29  O   UNL     1     -13.773  15.698  71.095  1.00  0.00    -0.591 OA 
HETATM   30  C   UNL     1     -12.390  12.283  68.967  1.00  0.00     0.211 C  
HETATM   31  C   UNL     1     -11.624  13.497  68.411  1.00  0.00    -0.378 C  
HETATM   32  O   UNL     1     -14.408  13.718  71.936  1.00  0.00    -0.375 OA 
HETATM   33  C   UNL     1     -11.674  14.524  69.563  1.00  0.00    -0.361 C  
BRANCH  31  34
HETATM   34  C   UNL     1     -10.162  13.231  67.940  1.00  0.00    -0.233 C  
HETATM   35  C   UNL     1     -10.613  13.289  65.442  1.00  0.00    -0.304 C  
HETATM   36  C   UNL     1      -9.839  14.591  65.274  1.00  0.00    -0.221 C  
HETATM   37  C   UNL     1      -9.717  15.384  66.574  1.00  0.00    -0.292 C  
HETATM   38  C   UNL     1     -10.053  12.476  66.604  1.00  0.00    -0.241 C  
HETATM   39  C   UNL     1      -9.333  14.532  67.789  1.00  0.00    -0.198 C  
ENDBRANCH  31  34
ENDBRANCH  23  24
ENDBRANCH  11  23
ENDBRANCH  10  11
ENDBRANCH   6  10
ENDBRANCH   5   6
ENDBRANCH   3   5
ENDBRANCH   2   3
TORSDOF 13
ENDMDL
MODEL       85
REMARK 921   NORMALIZED FREE ENERGY PREDICTED BY IDOCK:   -5.30 KCAL/MOL
REMARK 922        TOTAL FREE ENERGY PREDICTED BY IDOCK:  -11.79 KCAL/MOL
REMARK 923 INTER-LIGAND FREE ENERGY PREDICTED BY IDOCK:   -9.54 KCAL/MOL
REMARK 924 INTRA-LIGAND FREE ENERGY PREDICTED BY IDOCK:   -2.26 KCAL/MOL
REMARK 927      BINDING AFFINITY PREDICTED BY RF-SCORE:    0.00 PKD
ROOT
HETATM    1  C   UNL     1     -12.982  11.909  64.075  1.00  0.00    -0.181 C  
HETATM    2  C   UNL     1     -11.840  11.782  63.083  1.00  0.00    -0.194 C  
ENDROOT
BRANCH   2   3
HETATM    3  C   UNL     1     -10.429  11.609  63.639  1.00  0.00    -0.429 C  
HETATM    4  O   UNL     1      -9.498  12.338  63.312  1.00  0.00    -0.213 OA 
BRANCH   3   5
HETATM    5  O   UNL     1     -10.358  10.654  64.599  1.00  0.00    -0.345 OA 
BRANCH   5   6
HETATM    6  C   UNL     1      -9.074  10.435  65.265  1.00  0.00    -0.193 C  
HETATM    7  C   UNL     1      -8.614   8.971  64.922  1.00  0.00    -0.206 C  
HETATM    8  C   UNL     1      -7.288   8.570  65.565  1.00  0.00    -0.084 C  
HETATM    9  C   UNL     1      -8.538   8.703  63.418  1.00  0.00    -0.015 C  
BRANCH   6  10
HETATM   10  O   UNL     1      -9.059  10.672  66.706  1.00  0.00    -0.150 OA 
BRANCH  10  11
HETATM   11  P   UNL     1      -8.193  11.983  67.261  1.00  0.00    -0.180 P  
HETATM   12  O   UNL     1      -6.894  11.466  66.598  1.00  0.00    -0.140 OA 
BRANCH  11  13
HETATM   13  C   UNL     1      -7.545  11.418  69.029  1.00  0.00    -0.084 C  
BRANCH  13  14
HETATM   14  C   UNL     1      -7.071   9.961  69.036  1.00  0.00    -0.068 C  
BRANCH  14  15
HETATM   15  C   UNL     1      -8.102   8.975  69.556  1.00  0.00    -0.105 C  
BRANCH  15  16
HETATM   16  C   UNL     1      -7.714   7.555  69.111  1.00  0.00    -0.113 C  
BRANCH  16  17
HETATM   17  C   UNL     1      -8.785   6.965  68.237  1.00  0.00    -0.123 A  
HETATM   18  C   UNL     1      -8.591   5.727  67.611  1.00  0.00    -0.101 A  
HETATM   19  C   UNL     1     -10.011   7.625  68.094  1.00  0.00    -0.203 A  
HETATM   20  C   UNL     1     -10.833   5.820  66.712  1.00  0.00    -0.327 A  
HETATM   21  C   UNL     1      -9.616   5.162  66.843  1.00  0.00    -0.157 A  
HETATM   22  C   UNL     1     -11.030   7.049  67.337  1.00  0.00    -0.336 A  
ENDBRANCH  16  17
ENDBRANCH  15  16
ENDBRANCH  14  15
ENDBRANCH  13  14
ENDBRANCH  11  13
BRANCH  11  23
HETATM   23  C   UNL     1      -9.730  12.594  68.045  1.00  0.00    -0.215 C  
BRANCH  23  24
HETATM   24  C   UNL     1     -10.460  13.686  67.240  1.00  0.00    -0.260 C  
HETATM   25  C   UNL     1     -10.703  16.023  66.367  1.00  0.00    -0.232 C  
HETATM   26  O   UNL     1     -11.585  13.455  66.778  1.00  0.00    -0.331 OA 
HETATM   27  N   UNL     1      -9.907  14.914  66.951  1.00  0.00    -0.235 N  
HETATM   28  C   UNL     1     -11.133  15.935  64.876  1.00  0.00    -0.389 C  
HETATM   29  O   UNL     1     -11.313  16.913  64.158  1.00  0.00    -1.208 OA 
HETATM   30  C   UNL     1      -8.502  15.270  66.899  1.00  0.00    -0.252 C  
HETATM   31  C   UNL     1      -8.447  16.800  67.063  1.00  0.00    -0.225 C  
HETATM   32  O   UNL     1     -11.432  14.691  64.443  1.00  0.00    -0.342 OA 
HETATM   33  C   UNL     1      -9.829  17.276  66.566  1.00  0.00    -0.306 C  
BRANCH  31  34
HETATM   34  C   UNL     1      -8.138  17.327  68.498  1.00  0.00    -0.262 C  
HETATM   35  C   UNL     1      -5.777  18.138  68.042  1.00  0.00    -0.161 C  
HETATM   36  C   UNL     1      -6.186  19.599  68.196  1.00  0.00    -0.261 C  
HETATM   37  C   UNL     1      -7.683  19.823  67.986  1.00  0.00    -0.339 C  
HETATM   38  C   UNL     1      -6.657  17.238  68.902  1.00  0.00    -0.212 C  
HETATM   39  C   UNL     1      -8.572  18.800  68.703  1.00  0.00    -0.358 C  
ENDBRANCH  31  34
ENDBRANCH  23  24
ENDBRANCH  11  23
ENDBRANCH  10  11
ENDBRANCH   6  10
ENDBRANCH   5   6
ENDBRANCH   3   5
ENDBRANCH   2   3
TORSDOF 13
ENDMDL
MODEL       86
REMARK 921   NORMALIZED FREE ENERGY PREDICTED BY IDOCK:   -5.29 KCAL/MOL
REMARK 922        TOTAL FREE ENERGY PREDICTED BY IDOCK:  -11.78 KCAL/MOL
REMARK 923 INTER-LIGAND FREE ENERGY PREDICTED BY IDOCK:   -9.75 KCAL/MOL
REMARK 924 INTRA-LIGAND FREE ENERGY PREDICTED BY IDOCK:   -2.03 KCAL/MOL
REMARK 927      BINDING AFFINITY PREDICTED BY RF-SCORE:    0.00 PKD
ROOT
HETATM    1  C   UNL     1     -13.377  11.306  71.939  1.00  0.00    -0.413 C  
HETATM    2  C   UNL     1     -13.281  10.009  71.156  1.00  0.00    -0.441 C  
ENDROOT
BRANCH   2   3
HETATM    3  C   UNL     1     -13.346   8.698  71.935  1.00  0.00    -0.382 C  
HETATM    4  O   UNL     1     -14.287   7.919  71.835  1.00  0.00    -0.408 OA 
BRANCH   3   5
HETATM    5  O   UNL     1     -12.215   8.453  72.641  1.00  0.00    -0.380 OA 
BRANCH   5   6
HETATM    6  C   UNL     1     -11.036   7.975  71.918  1.00  0.00    -0.276 C  
HETATM    7  C   UNL     1     -10.484   6.727  72.699  1.00  0.00    -0.240 C  
HETATM    8  C   UNL     1      -9.228   6.114  72.083  1.00  0.00    -0.142 C  
HETATM    9  C   UNL     1     -11.530   5.628  72.890  1.00  0.00    -0.297 C  
BRANCH   6  10
HETATM   10  O   UNL     1      -9.987   8.965  71.691  1.00  0.00    -0.282 OA 
BRANCH  10  11
HETATM   11  P   UNL     1      -9.095   8.832  70.290  1.00  0.00    -0.199 P  
HETATM   12  O   UNL     1      -7.807   9.302  71.010  1.00  0.00    -0.240 OA 
BRANCH  11  13
HETATM   13  C   UNL     1      -9.285  10.590  69.430  1.00  0.00    -0.107 C  
BRANCH  13  14
HETATM   14  C   UNL     1     -10.700  11.160  69.578  1.00  0.00    -0.193 C  
BRANCH  14  15
HETATM   15  C   UNL     1     -11.208  11.885  68.344  1.00  0.00    -0.312 C  
BRANCH  15  16
HETATM   16  C   UNL     1     -10.842  11.071  67.092  1.00  0.00    -0.336 C  
BRANCH  16  17
HETATM   17  C   UNL     1     -11.243  11.811  65.847  1.00  0.00    -0.345 A  
HETATM   18  C   UNL     1     -10.989  11.265  64.582  1.00  0.00    -0.281 A  
HETATM   19  C   UNL     1     -11.930  13.026  65.948  1.00  0.00    -0.491 A  
HETATM   20  C   UNL     1     -12.104  13.140  63.540  1.00  0.00    -0.585 A  
HETATM   21  C   UNL     1     -11.415  11.938  63.430  1.00  0.00    -0.470 A  
HETATM   22  C   UNL     1     -12.361  13.683  64.796  1.00  0.00    -0.429 A  
ENDBRANCH  16  17
ENDBRANCH  15  16
ENDBRANCH  14  15
ENDBRANCH  13  14
ENDBRANCH  11  13
BRANCH  11  23
HETATM   23  C   UNL     1     -10.617   8.276  69.439  1.00  0.00    -0.196 C  
BRANCH  23  24
HETATM   24  C   UNL     1     -10.426   7.037  68.545  1.00  0.00    -0.200 C  
HETATM   25  C   UNL     1      -9.493   5.862  66.537  1.00  0.00    -0.155 C  
HETATM   26  O   UNL     1     -11.084   6.013  68.770  1.00  0.00    -0.336 OA 
HETATM   27  N   UNL     1      -9.510   6.977  67.518  1.00  0.00    -0.125 N  
HETATM   28  C   UNL     1      -8.981   4.468  66.994  1.00  0.00    -0.116 C  
HETATM   29  O   UNL     1      -8.446   3.658  66.244  1.00  0.00    -0.107 OA 
HETATM   30  C   UNL     1      -8.304   7.765  67.349  1.00  0.00    -0.123 C  
HETATM   31  C   UNL     1      -7.956   7.691  65.851  1.00  0.00    -0.116 C  
HETATM   32  O   UNL     1      -9.285   4.140  68.268  1.00  0.00    -0.124 OA 
HETATM   33  C   UNL     1      -8.607   6.371  65.384  1.00  0.00    -0.088 C  
BRANCH  31  34
HETATM   34  C   UNL     1      -8.415   8.900  64.979  1.00  0.00    -0.194 C  
HETATM   35  C   UNL     1      -6.182  10.106  64.901  1.00  0.00    -0.125 C  
HETATM   36  C   UNL     1      -6.010   9.813  63.415  1.00  0.00    -0.109 C  
HETATM   37  C   UNL     1      -6.842   8.623  62.942  1.00  0.00    -0.090 C  
HETATM   38  C   UNL     1      -7.660  10.210  65.262  1.00  0.00    -0.144 C  
HETATM   39  C   UNL     1      -8.286   8.627  63.459  1.00  0.00    -0.150 C  
ENDBRANCH  31  34
ENDBRANCH  23  24
ENDBRANCH  11  23
ENDBRANCH  10  11
ENDBRANCH   6  10
ENDBRANCH   5   6
ENDBRANCH   3   5
ENDBRANCH   2   3
TORSDOF 13
ENDMDL
MODEL       87
REMARK 921   NORMALIZED FREE ENERGY PREDICTED BY IDOCK:   -5.28 KCAL/MOL
REMARK 922        TOTAL FREE ENERGY PREDICTED BY IDOCK:  -11.75 KCAL/MOL
REMARK 923 INTER-LIGAND FREE ENERGY PREDICTED BY IDOCK:   -9.13 KCAL/MOL
REMARK 924 INTRA-LIGAND FREE ENERGY PREDICTED BY IDOCK:   -2.61 KCAL/MOL
REMARK 927      BINDING AFFINITY PREDICTED BY RF-SCORE:    0.00 PKD
ROOT
HETATM    1  C   UNL     1     -11.328   9.688  70.766  1.00  0.00    -0.409 C  
HETATM    2  C   UNL     1     -11.366  10.259  69.360  1.00  0.00    -0.279 C  
ENDROOT
BRANCH   2   3
HETATM    3  C   UNL     1     -12.012  11.628  69.163  1.00  0.00    -0.313 C  
HETATM    4  O   UNL     1     -12.284  12.368  70.103  1.00  0.00    -0.296 OA 
BRANCH   3   5
HETATM    5  O   UNL     1     -12.134  11.966  67.856  1.00  0.00    -0.558 OA 
BRANCH   5   6
HETATM    6  C   UNL     1     -11.073  12.766  67.245  1.00  0.00    -0.276 C  
HETATM    7  C   UNL     1     -11.515  13.075  65.768  1.00  0.00    -0.367 C  
HETATM    8  C   UNL     1     -10.497  13.893  64.973  1.00  0.00    -0.428 C  
HETATM    9  C   UNL     1     -12.879  13.762  65.681  1.00  0.00    -0.456 C  
BRANCH   6  10
HETATM   10  O   UNL     1      -9.735  12.183  67.287  1.00  0.00    -0.188 OA 
BRANCH  10  11
HETATM   11  P   UNL     1      -8.640  12.846  68.352  1.00  0.00     0.001 P  
HETATM   12  O   UNL     1      -9.527  14.098  68.559  1.00  0.00    -0.210 OA 
BRANCH  11  13
HETATM   13  C   UNL     1      -7.416  13.873  67.207  1.00  0.00    -0.028 C  
BRANCH  13  14
HETATM   14  C   UNL     1      -7.893  15.313  66.989  1.00  0.00    -0.224 C  
BRANCH  14  15
HETATM   15  C   UNL     1      -6.784  16.349  67.046  1.00  0.00    -0.239 C  
BRANCH  15  16
HETATM   16  C   UNL     1      -7.222  17.601  66.269  1.00  0.00    -0.342 C  
BRANCH  16  17
HETATM   17  C   UNL     1      -8.267  18.360  67.038  1.00  0.00    -0.253 A  
HETATM   18  C   UNL     1      -9.526  18.606  66.476  1.00  0.00    -0.331 A  
HETATM   19  C   UNL     1      -8.004  18.774  68.349  1.00  0.00    -0.365 A  
HETATM   20  C   UNL     1     -10.243  19.667  68.527  1.00  0.00    -0.529 A  
HETATM   21  C   UNL     1     -10.510  19.267  67.222  1.00  0.00    -0.566 A  
HETATM   22  C   UNL     1      -8.994  19.421  69.089  1.00  0.00    -0.173 A  
ENDBRANCH  16  17
ENDBRANCH  15  16
ENDBRANCH  14  15
ENDBRANCH  13  14
ENDBRANCH  11  13
BRANCH  11  23
HETATM   23  C   UNL     1      -7.591  11.367  68.108  1.00  0.00    -0.114 C  
BRANCH  23  24
HETATM   24  C   UNL     1      -7.299  10.578  69.399  1.00  0.00    -0.133 C  
HETATM   25  C   UNL     1      -7.461   8.539  70.848  1.00  0.00    -0.074 C  
HETATM   26  O   UNL     1      -6.774  11.152  70.361  1.00  0.00    -0.233 OA 
HETATM   27  N   UNL     1      -7.545   9.229  69.535  1.00  0.00    -0.077 N  
HETATM   28  C   UNL     1      -6.062   8.286  71.475  1.00  0.00    -0.040 C  
HETATM   29  O   UNL     1      -5.807   7.344  72.218  1.00  0.00    -0.037 OA 
HETATM   30  C   UNL     1      -7.655   8.231  68.490  1.00  0.00    -0.100 C  
HETATM   31  C   UNL     1      -8.433   7.055  69.107  1.00  0.00    -0.129 C  
HETATM   32  O   UNL     1      -5.154   9.260  71.252  1.00  0.00    -0.029 OA 
HETATM   33  C   UNL     1      -8.163   7.187  70.621  1.00  0.00    -0.117 C  
BRANCH  31  34
HETATM   34  C   UNL     1      -9.961   7.002  68.796  1.00  0.00    -0.160 C  
HETATM   35  C   UNL     1      -9.768   6.375  66.343  1.00  0.00    -0.140 C  
HETATM   36  C   UNL     1     -10.337   4.983  66.595  1.00  0.00    -0.312 C  
HETATM   37  C   UNL     1     -10.195   4.535  68.048  1.00  0.00     0.047 C  
HETATM   38  C   UNL     1     -10.327   7.375  67.349  1.00  0.00    -0.340 C  
HETATM   39  C   UNL     1     -10.582   5.609  69.072  1.00  0.00    -0.316 C  
ENDBRANCH  31  34
ENDBRANCH  23  24
ENDBRANCH  11  23
ENDBRANCH  10  11
ENDBRANCH   6  10
ENDBRANCH   5   6
ENDBRANCH   3   5
ENDBRANCH   2   3
TORSDOF 13
ENDMDL
MODEL       88
REMARK 921   NORMALIZED FREE ENERGY PREDICTED BY IDOCK:   -5.25 KCAL/MOL
REMARK 922        TOTAL FREE ENERGY PREDICTED BY IDOCK:  -11.70 KCAL/MOL
REMARK 923 INTER-LIGAND FREE ENERGY PREDICTED BY IDOCK:   -8.73 KCAL/MOL
REMARK 924 INTRA-LIGAND FREE ENERGY PREDICTED BY IDOCK:   -2.97 KCAL/MOL
REMARK 927      BINDING AFFINITY PREDICTED BY RF-SCORE:    0.00 PKD
ROOT
HETATM    1  C   UNL     1     -10.964  15.461  67.270  1.00  0.00    -0.317 C  
HETATM    2  C   UNL     1     -11.804  14.424  66.548  1.00  0.00    -0.406 C  
ENDROOT
BRANCH   2   3
HETATM    3  C   UNL     1     -11.930  13.040  67.181  1.00  0.00    -0.329 C  
HETATM    4  O   UNL     1     -12.037  12.878  68.392  1.00  0.00    -0.291 OA 
BRANCH   3   5
HETATM    5  O   UNL     1     -12.023  12.050  66.260  1.00  0.00    -0.596 OA 
BRANCH   5   6
HETATM    6  C   UNL     1     -10.802  11.614  65.584  1.00  0.00    -0.276 C  
HETATM    7  C   UNL     1     -11.166  11.370  64.074  1.00  0.00    -0.350 C  
HETATM    8  C   UNL     1      -9.994  10.884  63.222  1.00  0.00    -0.399 C  
HETATM    9  C   UNL     1     -11.793  12.593  63.403  1.00  0.00    -0.594 C  
BRANCH   6  10
HETATM   10  O   UNL     1     -10.137  10.451  66.163  1.00  0.00    -0.222 OA 
BRANCH  10  11
HETATM   11  P   UNL     1      -8.823  10.728  67.150  1.00  0.00    -0.135 P  
HETATM   12  O   UNL     1      -8.583  12.121  66.519  1.00  0.00    -0.165 OA 
BRANCH  11  13
HETATM   13  C   UNL     1      -7.303   9.986  66.147  1.00  0.00    -0.109 C  
BRANCH  13  14
HETATM   14  C   UNL     1      -6.828   8.646  66.718  1.00  0.00    -0.069 C  
BRANCH  14  15
HETATM   15  C   UNL     1      -6.631   7.561  65.674  1.00  0.00    -0.045 C  
BRANCH  15  16
HETATM   16  C   UNL     1      -8.005   7.090  65.170  1.00  0.00    -0.128 C  
BRANCH  16  17
HETATM   17  C   UNL     1      -8.421   5.829  65.874  1.00  0.00    -0.139 A  
HETATM   18  C   UNL     1      -9.698   5.716  66.439  1.00  0.00    -0.180 A  
HETATM   19  C   UNL     1      -7.550   4.733  65.915  1.00  0.00    -0.090 A  
HETATM   20  C   UNL     1      -9.225   3.432  67.074  1.00  0.00    -0.208 A  
HETATM   21  C   UNL     1     -10.093   4.518  67.045  1.00  0.00    -0.180 A  
HETATM   22  C   UNL     1      -7.957   3.540  66.510  1.00  0.00    -0.088 A  
ENDBRANCH  16  17
ENDBRANCH  15  16
ENDBRANCH  14  15
ENDBRANCH  13  14
ENDBRANCH  11  13
BRANCH  11  23
HETATM   23  C   UNL     1      -9.106   9.081  67.895  1.00  0.00    -0.135 C  
BRANCH  23  24
HETATM   24  C   UNL     1     -10.306   9.020  68.859  1.00  0.00    -0.215 C  
HETATM   25  C   UNL     1     -11.599   7.991  70.743  1.00  0.00    -0.242 C  
HETATM   26  O   UNL     1     -11.270   9.777  68.684  1.00  0.00    -0.141 OA 
HETATM   27  N   UNL     1     -10.355   8.192  69.959  1.00  0.00    -0.210 N  
HETATM   28  C   UNL     1     -12.101   9.140  71.662  1.00  0.00    -0.362 C  
HETATM   29  O   UNL     1     -12.748   8.960  72.689  1.00  0.00    -0.369 OA 
HETATM   30  C   UNL     1      -9.245   7.609  70.687  1.00  0.00    -0.162 C  
HETATM   31  C   UNL     1      -9.823   6.399  71.444  1.00  0.00    -0.195 C  
HETATM   32  O   UNL     1     -11.890  10.384  71.183  1.00  0.00    -0.356 OA 
HETATM   33  C   UNL     1     -11.320   6.744  71.604  1.00  0.00    -0.305 C  
BRANCH  31  34
HETATM   34  C   UNL     1      -9.621   5.007  70.771  1.00  0.00    -0.244 C  
HETATM   35  C   UNL     1      -7.283   4.560  71.652  1.00  0.00    -0.063 C  
HETATM   36  C   UNL     1      -7.775   3.433  72.553  1.00  0.00    -0.063 C  
HETATM   37  C   UNL     1      -9.266   3.529  72.867  1.00  0.00    -0.125 C  
HETATM   38  C   UNL     1      -8.161   4.681  70.413  1.00  0.00    -0.075 C  
HETATM   39  C   UNL     1     -10.141   3.837  71.645  1.00  0.00    -0.149 C  
ENDBRANCH  31  34
ENDBRANCH  23  24
ENDBRANCH  11  23
ENDBRANCH  10  11
ENDBRANCH   6  10
ENDBRANCH   5   6
ENDBRANCH   3   5
ENDBRANCH   2   3
TORSDOF 13
ENDMDL
MODEL       89
REMARK 921   NORMALIZED FREE ENERGY PREDICTED BY IDOCK:   -5.21 KCAL/MOL
REMARK 922        TOTAL FREE ENERGY PREDICTED BY IDOCK:  -11.64 KCAL/MOL
REMARK 923 INTER-LIGAND FREE ENERGY PREDICTED BY IDOCK:   -9.78 KCAL/MOL
REMARK 924 INTRA-LIGAND FREE ENERGY PREDICTED BY IDOCK:   -1.85 KCAL/MOL
REMARK 927      BINDING AFFINITY PREDICTED BY RF-SCORE:    0.00 PKD
ROOT
HETATM    1  C   UNL     1      -6.630  13.285  68.886  1.00  0.00    -0.107 C  
HETATM    2  C   UNL     1      -7.956  12.612  68.581  1.00  0.00    -0.030 C  
ENDROOT
BRANCH   2   3
HETATM    3  C   UNL     1      -8.075  11.830  67.275  1.00  0.00    -0.164 C  
HETATM    4  O   UNL     1      -7.098  11.534  66.594  1.00  0.00    -0.132 OA 
BRANCH   3   5
HETATM    5  O   UNL     1      -9.341  11.414  67.028  1.00  0.00    -0.170 OA 
BRANCH   5   6
HETATM    6  C   UNL     1     -10.003  11.892  65.814  1.00  0.00    -0.236 C  
HETATM    7  C   UNL     1      -9.347  11.143  64.598  1.00  0.00    -0.200 C  
HETATM    8  C   UNL     1      -9.915  11.548  63.239  1.00  0.00    -0.435 C  
HETATM    9  C   UNL     1      -9.409   9.620  64.728  1.00  0.00    -0.286 C  
BRANCH   6  10
HETATM   10  O   UNL     1      -9.993  13.339  65.615  1.00  0.00    -0.280 OA 
BRANCH  10  11
HETATM   11  P   UNL     1     -11.360  14.186  66.049  1.00  0.00    -0.347 P  
HETATM   12  O   UNL     1     -12.059  13.837  64.713  1.00  0.00    -0.373 OA 
BRANCH  11  13
HETATM   13  C   UNL     1     -11.013  16.015  65.419  1.00  0.00    -0.253 C  
BRANCH  13  14
HETATM   14  C   UNL     1      -9.659  16.550  65.899  1.00  0.00    -0.284 C  
BRANCH  14  15
HETATM   15  C   UNL     1      -9.758  17.762  66.808  1.00  0.00    -0.309 C  
BRANCH  15  16
HETATM   16  C   UNL     1      -8.860  18.881  66.257  1.00  0.00    -0.260 C  
BRANCH  16  17
HETATM   17  C   UNL     1      -7.784  19.230  67.248  1.00  0.00    -0.269 A  
HETATM   18  C   UNL     1      -7.316  20.546  67.357  1.00  0.00    -0.371 A  
HETATM   19  C   UNL     1      -7.287  18.248  68.112  1.00  0.00    -0.266 A  
HETATM   20  C   UNL     1      -5.870  19.889  69.179  1.00  0.00    -0.297 A  
HETATM   21  C   UNL     1      -6.353  20.870  68.320  1.00  0.00    -0.311 A  
HETATM   22  C   UNL     1      -6.336  18.582  69.076  1.00  0.00    -0.248 A  
ENDBRANCH  16  17
ENDBRANCH  15  16
ENDBRANCH  14  15
ENDBRANCH  13  14
ENDBRANCH  11  13
BRANCH  11  23
HETATM   23  C   UNL     1     -10.534  14.598  67.629  1.00  0.00    -0.243 C  
BRANCH  23  24
HETATM   24  C   UNL     1     -11.495  15.034  68.751  1.00  0.00    -0.319 C  
HETATM   25  C   UNL     1     -12.956  14.575  70.735  1.00  0.00    -0.343 C  
HETATM   26  O   UNL     1     -11.932  16.191  68.767  1.00  0.00    -0.286 OA 
HETATM   27  N   UNL     1     -11.868  14.212  69.792  1.00  0.00    -0.302 N  
HETATM   28  C   UNL     1     -12.698  15.688  71.788  1.00  0.00    -0.451 C  
HETATM   29  O   UNL     1     -13.247  15.733  72.884  1.00  0.00    -0.463 OA 
HETATM   30  C   UNL     1     -11.166  13.056  70.313  1.00  0.00     0.599 C  
HETATM   31  C   UNL     1     -12.218  12.224  71.068  1.00  0.00    -0.210 C  
HETATM   32  O   UNL     1     -11.913  16.701  71.363  1.00  0.00    -0.065 OA 
HETATM   33  C   UNL     1     -13.292  13.260  71.465  1.00  0.00    -0.330 C  
BRANCH  31  34
HETATM   34  C   UNL     1     -12.836  11.024  70.287  1.00  0.00    -0.178 C  
HETATM   35  C   UNL     1     -10.703   9.670  70.039  1.00  0.00    -0.298 C  
HETATM   36  C   UNL     1     -11.209   8.591  70.990  1.00  0.00    -0.312 C  
HETATM   37  C   UNL     1     -12.311   9.088  71.923  1.00  0.00    -0.455 C  
HETATM   38  C   UNL     1     -11.867  10.335  69.312  1.00  0.00    -0.081 C  
HETATM   39  C   UNL     1     -13.392   9.921  71.223  1.00  0.00    -0.419 C  
ENDBRANCH  31  34
ENDBRANCH  23  24
ENDBRANCH  11  23
ENDBRANCH  10  11
ENDBRANCH   6  10
ENDBRANCH   5   6
ENDBRANCH   3   5
ENDBRANCH   2   3
TORSDOF 13
ENDMDL
MODEL       90
REMARK 921   NORMALIZED FREE ENERGY PREDICTED BY IDOCK:   -5.21 KCAL/MOL
REMARK 922        TOTAL FREE ENERGY PREDICTED BY IDOCK:  -11.63 KCAL/MOL
REMARK 923 INTER-LIGAND FREE ENERGY PREDICTED BY IDOCK:   -9.45 KCAL/MOL
REMARK 924 INTRA-LIGAND FREE ENERGY PREDICTED BY IDOCK:   -2.18 KCAL/MOL
REMARK 927      BINDING AFFINITY PREDICTED BY RF-SCORE:    0.00 PKD
ROOT
HETATM    1  C   UNL     1      -5.421  15.075  70.222  1.00  0.00    -0.125 C  
HETATM    2  C   UNL     1      -6.072  16.352  69.723  1.00  0.00    -0.212 C  
ENDROOT
BRANCH   2   3
HETATM    3  C   UNL     1      -7.479  16.254  69.139  1.00  0.00    -0.218 C  
HETATM    4  O   UNL     1      -8.450  15.925  69.813  1.00  0.00    -0.065 OA 
BRANCH   3   5
HETATM    5  O   UNL     1      -7.543  16.675  67.852  1.00  0.00    -0.154 OA 
BRANCH   5   6
HETATM    6  C   UNL     1      -8.847  17.054  67.310  1.00  0.00    -0.211 C  
HETATM    7  C   UNL     1      -9.231  18.441  67.942  1.00  0.00    -0.294 C  
HETATM    8  C   UNL     1     -10.591  18.974  67.494  1.00  0.00    -0.546 C  
HETATM    9  C   UNL     1      -8.173  19.520  67.707  1.00  0.00    -0.333 C  
BRANCH   6  10
HETATM   10  O   UNL     1      -9.917  16.075  67.490  1.00  0.00    -0.235 OA 
BRANCH  10  11
HETATM   11  P   UNL     1     -10.111  14.921  66.304  1.00  0.00    -0.320 P  
HETATM   12  O   UNL     1     -10.151  16.000  65.194  1.00  0.00    -0.485 OA 
BRANCH  11  13
HETATM   13  C   UNL     1     -12.058  14.684  66.178  1.00  0.00    -0.201 C  
BRANCH  13  14
HETATM   14  C   UNL     1     -12.443  13.452  65.353  1.00  0.00    -0.543 C  
BRANCH  14  15
HETATM   15  C   UNL     1     -11.587  13.242  64.116  1.00  0.00    -0.451 C  
BRANCH  15  16
HETATM   16  C   UNL     1     -11.740  11.789  63.636  1.00  0.00    -0.517 C  
BRANCH  16  17
HETATM   17  C   UNL     1     -10.410  11.089  63.641  1.00  0.00    -0.415 A  
HETATM   18  C   UNL     1     -10.062  10.228  64.690  1.00  0.00    -0.317 A  
HETATM   19  C   UNL     1      -9.534  11.249  62.561  1.00  0.00    -0.173 A  
HETATM   20  C   UNL     1      -7.983   9.698  63.577  1.00  0.00    -0.140 A  
HETATM   21  C   UNL     1      -8.844   9.540  64.657  1.00  0.00    -0.250 A  
HETATM   22  C   UNL     1      -8.327  10.550  62.532  1.00  0.00    -0.223 A  
ENDBRANCH  16  17
ENDBRANCH  15  16
ENDBRANCH  14  15
ENDBRANCH  13  14
ENDBRANCH  11  13
BRANCH  11  23
HETATM   23  C   UNL     1     -10.063  13.646  67.616  1.00  0.00    -0.242 C  
BRANCH  23  24
HETATM   24  C   UNL     1      -8.724  12.893  67.718  1.00  0.00    -0.188 C  
HETATM   25  C   UNL     1      -7.310  10.950  68.432  1.00  0.00    -0.094 C  
HETATM   26  O   UNL     1      -7.678  13.455  67.370  1.00  0.00    -0.161 OA 
HETATM   27  N   UNL     1      -8.620  11.584  68.135  1.00  0.00    -0.149 N  
HETATM   28  C   UNL     1      -6.367  10.585  67.252  1.00  0.00    -0.062 C  
HETATM   29  O   UNL     1      -5.565   9.658  67.281  1.00  0.00    -0.039 OA 
HETATM   30  C   UNL     1      -9.641  10.555  68.109  1.00  0.00    -0.154 C  
HETATM   31  C   UNL     1      -9.199   9.493  69.132  1.00  0.00    -0.163 C  
HETATM   32  O   UNL     1      -6.391  11.451  66.216  1.00  0.00    -0.102 OA 
HETATM   33  C   UNL     1      -7.667   9.667  69.207  1.00  0.00    -0.095 C  
BRANCH  31  34
HETATM   34  C   UNL     1      -9.858   9.581  70.543  1.00  0.00    -0.331 C  
HETATM   35  C   UNL     1     -11.408   7.586  70.299  1.00  0.00    -0.219 C  
HETATM   36  C   UNL     1     -10.625   6.778  71.329  1.00  0.00    -0.246 C  
HETATM   37  C   UNL     1      -9.192   7.274  71.510  1.00  0.00    -0.150 C  
HETATM   38  C   UNL     1     -11.310   9.077  70.598  1.00  0.00    -0.311 C  
HETATM   39  C   UNL     1      -9.070   8.799  71.624  1.00  0.00    -0.314 C  
ENDBRANCH  31  34
ENDBRANCH  23  24
ENDBRANCH  11  23
ENDBRANCH  10  11
ENDBRANCH   6  10
ENDBRANCH   5   6
ENDBRANCH   3   5
ENDBRANCH   2   3
TORSDOF 13
ENDMDL
MODEL       91
REMARK 921   NORMALIZED FREE ENERGY PREDICTED BY IDOCK:   -5.16 KCAL/MOL
REMARK 922        TOTAL FREE ENERGY PREDICTED BY IDOCK:  -11.54 KCAL/MOL
REMARK 923 INTER-LIGAND FREE ENERGY PREDICTED BY IDOCK:   -9.13 KCAL/MOL
REMARK 924 INTRA-LIGAND FREE ENERGY PREDICTED BY IDOCK:   -2.41 KCAL/MOL
REMARK 927      BINDING AFFINITY PREDICTED BY RF-SCORE:    0.00 PKD
ROOT
HETATM    1  C   UNL     1      -5.996  12.451  70.059  1.00  0.00    -0.149 C  
HETATM    2  C   UNL     1      -6.904  11.769  69.052  1.00  0.00    -0.106 C  
ENDROOT
BRANCH   2   3
HETATM    3  C   UNL     1      -6.916  10.243  69.020  1.00  0.00    -0.064 C  
HETATM    4  O   UNL     1      -5.930   9.572  69.303  1.00  0.00    -0.035 OA 
BRANCH   3   5
HETATM    5  O   UNL     1      -8.146   9.734  68.762  1.00  0.00    -0.096 OA 
BRANCH   5   6
HETATM    6  C   UNL     1      -9.219  10.662  68.406  1.00  0.00    -0.159 C  
HETATM    7  C   UNL     1     -10.516  10.184  69.155  1.00  0.00    -0.242 C  
HETATM    8  C   UNL     1     -11.749  11.041  68.871  1.00  0.00    -0.400 C  
HETATM    9  C   UNL     1     -10.327  10.073  70.669  1.00  0.00    -0.153 C  
BRANCH   6  10
HETATM   10  O   UNL     1      -9.464  10.829  66.976  1.00  0.00    -0.162 OA 
BRANCH  10  11
HETATM   11  P   UNL     1      -8.748   9.738  65.940  1.00  0.00    -0.154 P  
HETATM   12  O   UNL     1      -7.654  10.760  65.544  1.00  0.00    -0.112 OA 
BRANCH  11  13
HETATM   13  C   UNL     1      -9.670  10.026  64.227  1.00  0.00    -0.172 C  
BRANCH  13  14
HETATM   14  C   UNL     1     -10.119  11.479  64.045  1.00  0.00    -0.366 C  
BRANCH  14  15
HETATM   15  C   UNL     1     -11.626  11.661  63.997  1.00  0.00    -0.371 C  
BRANCH  15  16
HETATM   16  C   UNL     1     -11.949  13.148  63.775  1.00  0.00    -0.572 C  
BRANCH  16  17
HETATM   17  C   UNL     1     -11.595  13.952  64.994  1.00  0.00    -0.350 A  
HETATM   18  C   UNL     1     -10.762  15.074  64.890  1.00  0.00    -0.420 A  
HETATM   19  C   UNL     1     -12.149  13.617  66.235  1.00  0.00    -0.477 A  
HETATM   20  C   UNL     1     -11.043  15.512  67.251  1.00  0.00    -0.271 A  
HETATM   21  C   UNL     1     -10.483  15.847  66.023  1.00  0.00    -0.357 A  
HETATM   22  C   UNL     1     -11.874  14.400  67.356  1.00  0.00    -0.430 A  
ENDBRANCH  16  17
ENDBRANCH  15  16
ENDBRANCH  14  15
ENDBRANCH  13  14
ENDBRANCH  11  13
BRANCH  11  23
HETATM   23  C   UNL     1     -10.041   8.531  66.407  1.00  0.00    -0.201 C  
BRANCH  23  24
HETATM   24  C   UNL     1      -9.529   7.088  66.573  1.00  0.00    -0.150 C  
HETATM   25  C   UNL     1      -9.191   4.982  67.890  1.00  0.00    -0.119 C  
HETATM   26  O   UNL     1      -8.817   6.586  65.694  1.00  0.00    -0.133 OA 
HETATM   27  N   UNL     1      -9.864   6.282  67.640  1.00  0.00    -0.117 N  
HETATM   28  C   UNL     1      -9.512   3.779  66.960  1.00  0.00    -0.200 C  
HETATM   29  O   UNL     1      -9.462   2.607  67.317  1.00  0.00    -0.144 OA 
HETATM   30  C   UNL     1     -11.021   6.383  68.506  1.00  0.00    -0.319 C  
HETATM   31  C   UNL     1     -10.654   5.624  69.794  1.00  0.00    -0.400 C  
HETATM   32  O   UNL     1      -9.726   4.102  65.666  1.00  0.00    -0.175 OA 
HETATM   33  C   UNL     1      -9.578   4.617  69.336  1.00  0.00    -0.257 C  
BRANCH  31  34
HETATM   34  C   UNL     1     -10.156   6.496  70.988  1.00  0.00    -0.208 C  
HETATM   35  C   UNL     1     -11.921   5.781  72.667  1.00  0.00    -0.130 C  
HETATM   36  C   UNL     1     -10.896   5.031  73.511  1.00  0.00    -0.369 C  
HETATM   37  C   UNL     1      -9.643   4.649  72.727  1.00  0.00    -0.164 C  
HETATM   38  C   UNL     1     -11.268   6.955  71.946  1.00  0.00    -0.287 C  
HETATM   39  C   UNL     1      -9.088   5.778  71.851  1.00  0.00    -0.145 C  
ENDBRANCH  31  34
ENDBRANCH  23  24
ENDBRANCH  11  23
ENDBRANCH  10  11
ENDBRANCH   6  10
ENDBRANCH   5   6
ENDBRANCH   3   5
ENDBRANCH   2   3
TORSDOF 13
ENDMDL
MODEL       92
REMARK 921   NORMALIZED FREE ENERGY PREDICTED BY IDOCK:   -5.16 KCAL/MOL
REMARK 922        TOTAL FREE ENERGY PREDICTED BY IDOCK:  -11.54 KCAL/MOL
REMARK 923 INTER-LIGAND FREE ENERGY PREDICTED BY IDOCK:   -9.31 KCAL/MOL
REMARK 924 INTRA-LIGAND FREE ENERGY PREDICTED BY IDOCK:   -2.23 KCAL/MOL
REMARK 927      BINDING AFFINITY PREDICTED BY RF-SCORE:    0.00 PKD
ROOT
HETATM    1  C   UNL     1      -5.359  17.616  66.621  1.00  0.00    -0.203 C  
HETATM    2  C   UNL     1      -5.231  17.811  68.121  1.00  0.00    -0.142 C  
ENDROOT
BRANCH   2   3
HETATM    3  C   UNL     1      -6.516  17.896  68.941  1.00  0.00    -0.228 C  
HETATM    4  O   UNL     1      -7.386  18.730  68.716  1.00  0.00    -0.298 OA 
BRANCH   3   5
HETATM    5  O   UNL     1      -6.627  16.892  69.845  1.00  0.00    -0.137 OA 
BRANCH   5   6
HETATM    6  C   UNL     1      -7.197  15.620  69.402  1.00  0.00    -0.212 C  
HETATM    7  C   UNL     1      -6.148  14.497  69.733  1.00  0.00    -0.131 C  
HETATM    8  C   UNL     1      -6.582  13.095  69.309  1.00  0.00    -0.091 C  
HETATM    9  C   UNL     1      -5.747  14.468  71.209  1.00  0.00    -0.124 C  
BRANCH   6  10
HETATM   10  O   UNL     1      -7.610  15.564  68.002  1.00  0.00    -0.117 OA 
BRANCH  10  11
HETATM   11  P   UNL     1      -9.243  15.480  67.684  1.00  0.00    -0.192 P  
HETATM   12  O   UNL     1      -9.595  15.945  69.118  1.00  0.00    -0.222 OA 
BRANCH  11  13
HETATM   13  C   UNL     1      -9.727  13.630  68.139  1.00  0.00    -0.229 C  
BRANCH  13  14
HETATM   14  C   UNL     1     -10.939  13.558  69.073  1.00  0.00    -0.264 C  
BRANCH  14  15
HETATM   15  C   UNL     1     -11.990  12.546  68.651  1.00  0.00    -0.268 C  
BRANCH  15  16
HETATM   16  C   UNL     1     -11.291  11.272  68.150  1.00  0.00    -0.372 C  
BRANCH  16  17
HETATM   17  C   UNL     1     -10.760  10.472  69.306  1.00  0.00    -0.269 A  
HETATM   18  C   UNL     1      -9.409  10.107  69.360  1.00  0.00    -0.235 A  
HETATM   19  C   UNL     1     -11.606  10.138  70.370  1.00  0.00    -0.396 A  
HETATM   20  C   UNL     1      -9.760   9.088  71.523  1.00  0.00    -0.365 A  
HETATM   21  C   UNL     1      -8.914   9.409  70.467  1.00  0.00    -0.303 A  
HETATM   22  C   UNL     1     -11.102   9.452  71.475  1.00  0.00    -0.446 A  
ENDBRANCH  16  17
ENDBRANCH  15  16
ENDBRANCH  14  15
ENDBRANCH  13  14
ENDBRANCH  11  13
BRANCH  11  23
HETATM   23  C   UNL     1      -8.827  14.930  65.988  1.00  0.00     0.214 C  
BRANCH  23  24
HETATM   24  C   UNL     1     -10.030  14.413  65.178  1.00  0.00    -0.233 C  
HETATM   25  C   UNL     1     -11.216  12.676  63.814  1.00  0.00    -0.463 C  
HETATM   26  O   UNL     1     -10.958  15.183  64.902  1.00  0.00    -0.396 OA 
HETATM   27  N   UNL     1     -10.165  13.103  64.773  1.00  0.00    -0.326 N  
HETATM   28  C   UNL     1     -12.692  12.616  64.294  1.00  0.00    -0.305 C  
HETATM   29  O   UNL     1     -13.529  11.845  63.837  1.00  0.00    -0.559 OA 
HETATM   30  C   UNL     1      -9.552  11.922  65.349  1.00  0.00    -0.165 C  
HETATM   31  C   UNL     1      -9.593  10.844  64.251  1.00  0.00    -0.318 C  
HETATM   32  O   UNL     1     -13.042  13.577  65.176  1.00  0.00    -0.737 OA 
HETATM   33  C   UNL     1     -10.778  11.271  63.358  1.00  0.00    -0.349 C  
BRANCH  31  34
HETATM   34  C   UNL     1      -8.285  10.656  63.423  1.00  0.00    -0.038 C  
HETATM   35  C   UNL     1      -7.165   8.982  64.968  1.00  0.00    -0.092 C  
HETATM   36  C   UNL     1      -7.310   7.857  63.949  1.00  0.00    -0.099 C  
HETATM   37  C   UNL     1      -8.413   8.119  62.926  1.00  0.00     0.021 C  
HETATM   38  C   UNL     1      -7.041  10.330  64.267  1.00  0.00    -0.056 C  
HETATM   39  C   UNL     1      -8.406   9.542  62.353  1.00  0.00    -0.163 C  
ENDBRANCH  31  34
ENDBRANCH  23  24
ENDBRANCH  11  23
ENDBRANCH  10  11
ENDBRANCH   6  10
ENDBRANCH   5   6
ENDBRANCH   3   5
ENDBRANCH   2   3
TORSDOF 13
ENDMDL
MODEL       93
REMARK 921   NORMALIZED FREE ENERGY PREDICTED BY IDOCK:   -5.13 KCAL/MOL
REMARK 922        TOTAL FREE ENERGY PREDICTED BY IDOCK:  -11.48 KCAL/MOL
REMARK 923 INTER-LIGAND FREE ENERGY PREDICTED BY IDOCK:   -9.17 KCAL/MOL
REMARK 924 INTRA-LIGAND FREE ENERGY PREDICTED BY IDOCK:   -2.32 KCAL/MOL
REMARK 927      BINDING AFFINITY PREDICTED BY RF-SCORE:    0.00 PKD
ROOT
HETATM    1  C   UNL     1     -10.220  18.101  67.699  1.00  0.00    -0.385 C  
HETATM    2  C   UNL     1      -9.279  17.063  67.114  1.00  0.00    -0.242 C  
ENDROOT
BRANCH   2   3
HETATM    3  C   UNL     1      -9.364  15.638  67.655  1.00  0.00    -0.206 C  
HETATM    4  O   UNL     1      -9.606  15.395  68.833  1.00  0.00    -0.196 OA 
BRANCH   3   5
HETATM    5  O   UNL     1      -9.261  14.701  66.681  1.00  0.00    -0.246 OA 
BRANCH   5   6
HETATM    6  C   UNL     1     -10.353  13.742  66.523  1.00  0.00    -0.286 C  
HETATM    7  C   UNL     1     -11.585  14.527  65.942  1.00  0.00    -0.349 C  
HETATM    8  C   UNL     1     -12.830  13.667  65.737  1.00  0.00    -0.390 C  
HETATM    9  C   UNL     1     -11.267  15.260  64.638  1.00  0.00    -0.366 C  
BRANCH   6  10
HETATM   10  O   UNL     1     -10.719  12.995  67.724  1.00  0.00    -0.223 OA 
BRANCH  10  11
HETATM   11  P   UNL     1     -10.669  11.332  67.640  1.00  0.00    -0.262 P  
HETATM   12  O   UNL     1     -12.202  11.229  67.834  1.00  0.00    -0.570 OA 
BRANCH  11  13
HETATM   13  C   UNL     1     -10.372  10.765  69.499  1.00  0.00    -0.144 C  
BRANCH  13  14
HETATM   14  C   UNL     1     -11.396   9.724  69.961  1.00  0.00    -0.269 C  
BRANCH  14  15
HETATM   15  C   UNL     1     -11.756   9.819  71.433  1.00  0.00    -0.475 C  
BRANCH  15  16
HETATM   16  C   UNL     1     -12.599   8.595  71.828  1.00  0.00    -0.396 C  
BRANCH  16  17
HETATM   17  C   UNL     1     -11.730   7.531  72.438  1.00  0.00    -0.335 A  
HETATM   18  C   UNL     1     -10.538   7.871  73.090  1.00  0.00    -0.342 A  
HETATM   19  C   UNL     1     -12.142   6.193  72.410  1.00  0.00    -0.186 A  
HETATM   20  C   UNL     1     -10.185   5.552  73.675  1.00  0.00    -0.237 A  
HETATM   21  C   UNL     1      -9.764   6.877  73.701  1.00  0.00    -0.266 A  
HETATM   22  C   UNL     1     -11.371   5.212  73.031  1.00  0.00    -0.381 A  
ENDBRANCH  16  17
ENDBRANCH  15  16
ENDBRANCH  14  15
ENDBRANCH  13  14
ENDBRANCH  11  13
BRANCH  11  23
HETATM   23  C   UNL     1      -8.858  11.453  67.411  1.00  0.00    -0.150 C  
BRANCH  23  24
HETATM   24  C   UNL     1      -8.295  10.525  66.318  1.00  0.00    -0.152 C  
HETATM   25  C   UNL     1      -7.738   8.267  65.383  1.00  0.00    -0.103 C  
HETATM   26  O   UNL     1      -7.691  11.012  65.353  1.00  0.00     0.031 OA 
HETATM   27  N   UNL     1      -8.468   9.158  66.321  1.00  0.00    -0.121 N  
HETATM   28  C   UNL     1      -8.148   8.255  63.885  1.00  0.00    -0.124 C  
HETATM   29  O   UNL     1      -8.024   7.280  63.150  1.00  0.00    -0.130 OA 
HETATM   30  C   UNL     1      -9.505   8.391  66.982  1.00  0.00    -0.174 C  
HETATM   31  C   UNL     1      -8.955   6.959  67.112  1.00  0.00    -0.121 C  
HETATM   32  O   UNL     1      -8.536   9.451  63.392  1.00  0.00    -0.194 OA 
HETATM   33  C   UNL     1      -7.924   6.854  65.967  1.00  0.00    -0.109 C  
BRANCH  31  34
HETATM   34  C   UNL     1      -8.327   6.586  68.490  1.00  0.00    -0.121 C  
HETATM   35  C   UNL     1     -10.392   5.513  69.505  1.00  0.00    -0.357 C  
HETATM   36  C   UNL     1      -9.760   4.126  69.469  1.00  0.00    -0.254 C  
HETATM   37  C   UNL     1      -8.625   4.015  68.453  1.00  0.00    -0.113 C  
HETATM   38  C   UNL     1      -9.322   6.588  69.662  1.00  0.00    -0.144 C  
HETATM   39  C   UNL     1      -7.645   5.194  68.482  1.00  0.00    -0.079 C  
ENDBRANCH  31  34
ENDBRANCH  23  24
ENDBRANCH  11  23
ENDBRANCH  10  11
ENDBRANCH   6  10
ENDBRANCH   5   6
ENDBRANCH   3   5
ENDBRANCH   2   3
TORSDOF 13
ENDMDL
MODEL       94
REMARK 921   NORMALIZED FREE ENERGY PREDICTED BY IDOCK:   -5.11 KCAL/MOL
REMARK 922        TOTAL FREE ENERGY PREDICTED BY IDOCK:  -11.45 KCAL/MOL
REMARK 923 INTER-LIGAND FREE ENERGY PREDICTED BY IDOCK:   -9.32 KCAL/MOL
REMARK 924 INTRA-LIGAND FREE ENERGY PREDICTED BY IDOCK:   -2.13 KCAL/MOL
REMARK 927      BINDING AFFINITY PREDICTED BY RF-SCORE:    0.00 PKD
ROOT
HETATM    1  C   UNL     1      -5.126  11.572  66.779  1.00  0.00    -0.116 C  
HETATM    2  C   UNL     1      -6.644  11.592  66.770  1.00  0.00    -0.119 C  
ENDROOT
BRANCH   2   3
HETATM    3  C   UNL     1      -7.370  10.411  66.131  1.00  0.00    -0.131 C  
HETATM    4  O   UNL     1      -7.650  10.379  64.937  1.00  0.00    -0.140 OA 
BRANCH   3   5
HETATM    5  O   UNL     1      -7.555   9.381  66.993  1.00  0.00    -0.091 OA 
BRANCH   5   6
HETATM    6  C   UNL     1      -8.914   9.100  67.455  1.00  0.00    -0.122 C  
HETATM    7  C   UNL     1      -9.401   7.804  66.711  1.00  0.00    -0.227 C  
HETATM    8  C   UNL     1     -10.825   7.381  67.067  1.00  0.00    -0.307 C  
HETATM    9  C   UNL     1      -8.465   6.610  66.910  1.00  0.00    -0.115 C  
BRANCH   6  10
HETATM   10  O   UNL     1      -9.873  10.190  67.304  1.00  0.00    -0.171 OA 
BRANCH  10  11
HETATM   11  P   UNL     1     -10.119  11.187  68.616  1.00  0.00    -0.186 P  
HETATM   12  O   UNL     1      -9.254  10.282  69.526  1.00  0.00    -0.208 OA 
BRANCH  11  13
HETATM   13  C   UNL     1     -11.761  10.495  69.446  1.00  0.00    -0.223 C  
BRANCH  13  14
HETATM   14  C   UNL     1     -11.643  10.390  70.970  1.00  0.00    -0.384 C  
BRANCH  14  15
HETATM   15  C   UNL     1     -12.375   9.202  71.568  1.00  0.00    -0.421 C  
BRANCH  15  16
HETATM   16  C   UNL     1     -11.379   8.341  72.362  1.00  0.00    -0.457 C  
BRANCH  16  17
HETATM   17  C   UNL     1     -10.709   7.343  71.459  1.00  0.00    -0.243 A  
HETATM   18  C   UNL     1      -9.315   7.333  71.319  1.00  0.00    -0.155 A  
HETATM   19  C   UNL     1     -11.475   6.376  70.798  1.00  0.00    -0.415 A  
HETATM   20  C   UNL     1      -9.466   5.403  69.872  1.00  0.00    -0.210 A  
HETATM   21  C   UNL     1      -8.698   6.365  70.518  1.00  0.00    -0.144 A  
HETATM   22  C   UNL     1     -10.851   5.408  70.012  1.00  0.00    -0.208 A  
ENDBRANCH  16  17
ENDBRANCH  15  16
ENDBRANCH  14  15
ENDBRANCH  13  14
ENDBRANCH  11  13
BRANCH  11  23
HETATM   23  C   UNL     1     -11.141  12.258  67.540  1.00  0.00    -0.275 C  
BRANCH  23  24
HETATM   24  C   UNL     1     -10.546  13.657  67.291  1.00  0.00    -0.267 C  
HETATM   25  C   UNL     1     -10.108  16.038  67.940  1.00  0.00    -0.241 C  
HETATM   26  O   UNL     1     -10.053  13.926  66.188  1.00  0.00    -0.291 OA 
HETATM   27  N   UNL     1     -10.482  14.637  68.258  1.00  0.00    -0.232 N  
HETATM   28  C   UNL     1      -8.627  16.362  67.600  1.00  0.00    -0.174 C  
HETATM   29  O   UNL     1      -8.096  17.446  67.821  1.00  0.00    -0.207 OA 
HETATM   30  C   UNL     1     -10.491  14.472  69.699  1.00  0.00     0.003 C  
HETATM   31  C   UNL     1     -10.927  15.829  70.278  1.00  0.00    -0.368 C  
HETATM   32  O   UNL     1      -7.978  15.399  66.911  1.00  0.00    -0.218 OA 
HETATM   33  C   UNL     1     -10.526  16.844  69.185  1.00  0.00    -0.335 C  
BRANCH  31  34
HETATM   34  C   UNL     1     -12.433  15.961  70.663  1.00  0.00    -0.274 C  
HETATM   35  C   UNL     1     -12.829  13.524  71.252  1.00  0.00    -0.420 C  
HETATM   36  C   UNL     1     -12.996  13.849  72.732  1.00  0.00    -0.414 C  
HETATM   37  C   UNL     1     -12.350  15.175  73.128  1.00  0.00    -0.541 C  
HETATM   38  C   UNL     1     -13.270  14.701  70.389  1.00  0.00    -0.049 C  
HETATM   39  C   UNL     1     -12.641  16.324  72.155  1.00  0.00    -0.224 C  
ENDBRANCH  31  34
ENDBRANCH  23  24
ENDBRANCH  11  23
ENDBRANCH  10  11
ENDBRANCH   6  10
ENDBRANCH   5   6
ENDBRANCH   3   5
ENDBRANCH   2   3
TORSDOF 13
ENDMDL
MODEL       95
REMARK 921   NORMALIZED FREE ENERGY PREDICTED BY IDOCK:   -5.10 KCAL/MOL
REMARK 922        TOTAL FREE ENERGY PREDICTED BY IDOCK:  -11.45 KCAL/MOL
REMARK 923 INTER-LIGAND FREE ENERGY PREDICTED BY IDOCK:  -10.58 KCAL/MOL
REMARK 924 INTRA-LIGAND FREE ENERGY PREDICTED BY IDOCK:   -0.87 KCAL/MOL
REMARK 927      BINDING AFFINITY PREDICTED BY RF-SCORE:    0.00 PKD
ROOT
HETATM    1  C   UNL     1      -6.881  14.026  67.638  1.00  0.00    -0.195 C  
HETATM    2  C   UNL     1      -6.619  15.521  67.689  1.00  0.00    -0.195 C  
ENDROOT
BRANCH   2   3
HETATM    3  C   UNL     1      -7.825  16.453  67.775  1.00  0.00    -0.152 C  
HETATM    4  O   UNL     1      -8.414  16.671  68.828  1.00  0.00    -0.238 OA 
BRANCH   3   5
HETATM    5  O   UNL     1      -8.084  17.084  66.603  1.00  0.00    -0.211 OA 
BRANCH   5   6
HETATM    6  C   UNL     1      -9.421  17.637  66.395  1.00  0.00    -0.259 C  
HETATM    7  C   UNL     1      -9.538  18.925  67.289  1.00  0.00    -0.346 C  
HETATM    8  C   UNL     1     -10.896  19.620  67.204  1.00  0.00    -0.526 C  
HETATM    9  C   UNL     1      -8.438  19.951  67.009  1.00  0.00    -0.380 C  
BRANCH   6  10
HETATM   10  O   UNL     1     -10.532  16.721  66.638  1.00  0.00    -0.304 OA 
BRANCH  10  11
HETATM   11  P   UNL     1     -10.637  15.366  65.674  1.00  0.00    -0.411 P  
HETATM   12  O   UNL     1     -10.773  16.228  64.395  1.00  0.00    -0.544 OA 
BRANCH  11  13
HETATM   13  C   UNL     1     -12.558  14.954  65.631  1.00  0.00     0.235 C  
BRANCH  13  14
HETATM   14  C   UNL     1     -12.845  13.581  65.013  1.00  0.00    -0.330 C  
BRANCH  14  15
HETATM   15  C   UNL     1     -12.000  13.260  63.794  1.00  0.00    -0.551 C  
BRANCH  15  16
HETATM   16  C   UNL     1     -11.958  11.736  63.594  1.00  0.00    -0.490 C  
BRANCH  16  17
HETATM   17  C   UNL     1     -10.684  11.165  64.150  1.00  0.00    -0.415 A  
HETATM   18  C   UNL     1     -10.637  10.673  65.461  1.00  0.00    -0.180 A  
HETATM   19  C   UNL     1      -9.550  11.067  63.336  1.00  0.00    -0.361 A  
HETATM   20  C   UNL     1      -8.341   9.994  65.133  1.00  0.00    -0.156 A  
HETATM   21  C   UNL     1      -9.460  10.094  65.951  1.00  0.00    -0.249 A  
HETATM   22  C   UNL     1      -8.386  10.478  63.829  1.00  0.00    -0.101 A  
ENDBRANCH  16  17
ENDBRANCH  15  16
ENDBRANCH  14  15
ENDBRANCH  13  14
ENDBRANCH  11  13
BRANCH  11  23
HETATM   23  C   UNL     1     -10.476  14.347  67.186  1.00  0.00    -0.263 C  
BRANCH  23  24
HETATM   24  C   UNL     1     -11.333  14.832  68.370  1.00  0.00    -0.299 C  
HETATM   25  C   UNL     1     -12.643  14.454  70.473  1.00  0.00    -0.353 C  
HETATM   26  O   UNL     1     -11.738  16.001  68.394  1.00  0.00    -0.346 OA 
HETATM   27  N   UNL     1     -11.643  14.042  69.455  1.00  0.00    -0.278 N  
HETATM   28  C   UNL     1     -12.273  15.581  71.477  1.00  0.00    -0.397 C  
HETATM   29  O   UNL     1     -12.732  15.663  72.611  1.00  0.00    -0.368 OA 
HETATM   30  C   UNL     1     -10.932  12.878  69.945  1.00  0.00     0.478 C  
HETATM   31  C   UNL     1     -11.942  12.092  70.800  1.00  0.00    -0.151 C  
HETATM   32  O   UNL     1     -11.498  16.563  70.968  1.00  0.00    -0.328 OA 
HETATM   33  C   UNL     1     -12.954  13.164  71.257  1.00  0.00    -0.339 C  
BRANCH  31  34
HETATM   34  C   UNL     1     -12.651  10.893  70.097  1.00  0.00    -0.304 C  
HETATM   35  C   UNL     1     -10.790   9.194  70.405  1.00  0.00    -0.285 C  
HETATM   36  C   UNL     1     -11.617   8.381  71.394  1.00  0.00    -0.332 C  
HETATM   37  C   UNL     1     -12.732   9.195  72.049  1.00  0.00    -0.473 C  
HETATM   38  C   UNL     1     -11.694   9.907  69.405  1.00  0.00     0.073 C  
HETATM   39  C   UNL     1     -13.528  10.062  71.066  1.00  0.00    -0.253 C  
ENDBRANCH  31  34
ENDBRANCH  23  24
ENDBRANCH  11  23
ENDBRANCH  10  11
ENDBRANCH   6  10
ENDBRANCH   5   6
ENDBRANCH   3   5
ENDBRANCH   2   3
TORSDOF 13
ENDMDL
MODEL       96
REMARK 921   NORMALIZED FREE ENERGY PREDICTED BY IDOCK:   -5.09 KCAL/MOL
REMARK 922        TOTAL FREE ENERGY PREDICTED BY IDOCK:  -11.43 KCAL/MOL
REMARK 923 INTER-LIGAND FREE ENERGY PREDICTED BY IDOCK:   -9.26 KCAL/MOL
REMARK 924 INTRA-LIGAND FREE ENERGY PREDICTED BY IDOCK:   -2.17 KCAL/MOL
REMARK 927      BINDING AFFINITY PREDICTED BY RF-SCORE:    0.00 PKD
ROOT
HETATM    1  C   UNL     1      -7.132  11.047  66.532  1.00  0.00    -0.136 C  
HETATM    2  C   UNL     1      -7.704  10.254  65.371  1.00  0.00    -0.146 C  
ENDROOT
BRANCH   2   3
HETATM    3  C   UNL     1      -9.217  10.058  65.318  1.00  0.00    -0.218 C  
HETATM    4  O   UNL     1      -9.983  10.948  64.963  1.00  0.00    -0.255 OA 
BRANCH   3   5
HETATM    5  O   UNL     1      -9.589   8.783  65.587  1.00  0.00    -0.184 OA 
BRANCH   5   6
HETATM    6  C   UNL     1     -10.068   8.471  66.934  1.00  0.00    -0.294 C  
HETATM    7  C   UNL     1     -10.589   6.987  66.911  1.00  0.00    -0.372 C  
HETATM    8  C   UNL     1     -11.150   6.505  68.248  1.00  0.00    -0.332 C  
HETATM    9  C   UNL     1      -9.535   5.990  66.427  1.00  0.00    -0.174 C  
BRANCH   6  10
HETATM   10  O   UNL     1     -11.077   9.378  67.474  1.00  0.00    -0.137 OA 
BRANCH  10  11
HETATM   11  P   UNL     1     -10.746  10.118  68.929  1.00  0.00    -0.236 P  
HETATM   12  O   UNL     1     -12.215  10.583  69.081  1.00  0.00    -0.250 OA 
BRANCH  11  13
HETATM   13  C   UNL     1     -10.196  11.938  68.430  1.00  0.00    -0.204 C  
BRANCH  13  14
HETATM   14  C   UNL     1     -11.242  12.644  67.561  1.00  0.00    -0.335 C  
BRANCH  14  15
HETATM   15  C   UNL     1     -11.781  13.931  68.161  1.00  0.00    -0.388 C  
BRANCH  15  16
HETATM   16  C   UNL     1     -10.837  14.401  69.279  1.00  0.00    -0.261 C  
BRANCH  16  17
HETATM   17  C   UNL     1     -11.587  14.554  70.573  1.00  0.00    -0.295 A  
HETATM   18  C   UNL     1     -11.425  15.701  71.359  1.00  0.00    -0.488 A  
HETATM   19  C   UNL     1     -12.501  13.570  70.969  1.00  0.00    -0.451 A  
HETATM   20  C   UNL     1     -13.081  14.879  72.917  1.00  0.00    -0.586 A  
HETATM   21  C   UNL     1     -12.169  15.857  72.535  1.00  0.00    -0.597 A  
HETATM   22  C   UNL     1     -13.246  13.739  72.135  1.00  0.00    -0.538 A  
ENDBRANCH  16  17
ENDBRANCH  15  16
ENDBRANCH  14  15
ENDBRANCH  13  14
ENDBRANCH  11  13
BRANCH  11  23
HETATM   23  C   UNL     1      -9.010   9.568  68.750  1.00  0.00    -0.133 C  
BRANCH  23  24
HETATM   24  C   UNL     1      -8.185   9.641  70.048  1.00  0.00    -0.184 C  
HETATM   25  C   UNL     1      -7.486   8.777  72.295  1.00  0.00     0.094 C  
HETATM   26  O   UNL     1      -7.514  10.653  70.291  1.00  0.00    -0.118 OA 
HETATM   27  N   UNL     1      -8.105   8.607  70.956  1.00  0.00    -0.125 N  
HETATM   28  C   UNL     1      -5.941   8.906  72.398  1.00  0.00    -0.057 C  
HETATM   29  O   UNL     1      -5.289   8.545  73.372  1.00  0.00    -0.055 OA 
HETATM   30  C   UNL     1      -8.332   7.195  70.722  1.00  0.00    -0.128 C  
HETATM   31  C   UNL     1      -8.633   6.580  72.100  1.00  0.00    -0.123 C  
HETATM   32  O   UNL     1      -5.358   9.576  71.381  1.00  0.00    -0.051 OA 
HETATM   33  C   UNL     1      -7.942   7.540  73.093  1.00  0.00    -0.139 C  
BRANCH  31  34
HETATM   34  C   UNL     1     -10.140   6.377  72.449  1.00  0.00    -0.191 C  
HETATM   35  C   UNL     1     -10.179   3.847  72.247  1.00  0.00    -0.216 C  
HETATM   36  C   UNL     1     -10.383   3.673  73.747  1.00  0.00    -0.235 C  
HETATM   37  C   UNL     1      -9.931   4.888  74.555  1.00  0.00    -0.244 C  
HETATM   38  C   UNL     1     -10.790   5.160  71.770  1.00  0.00    -0.149 C  
HETATM   39  C   UNL     1     -10.389   6.229  73.971  1.00  0.00    -0.322 C  
ENDBRANCH  31  34
ENDBRANCH  23  24
ENDBRANCH  11  23
ENDBRANCH  10  11
ENDBRANCH   6  10
ENDBRANCH   5   6
ENDBRANCH   3   5
ENDBRANCH   2   3
TORSDOF 13
ENDMDL
MODEL       97
REMARK 921   NORMALIZED FREE ENERGY PREDICTED BY IDOCK:   -5.07 KCAL/MOL
REMARK 922        TOTAL FREE ENERGY PREDICTED BY IDOCK:  -11.38 KCAL/MOL
REMARK 923 INTER-LIGAND FREE ENERGY PREDICTED BY IDOCK:   -8.88 KCAL/MOL
REMARK 924 INTRA-LIGAND FREE ENERGY PREDICTED BY IDOCK:   -2.50 KCAL/MOL
REMARK 927      BINDING AFFINITY PREDICTED BY RF-SCORE:    0.00 PKD
ROOT
HETATM    1  C   UNL     1      -7.832   8.280  74.557  1.00  0.00    -0.300 C  
HETATM    2  C   UNL     1      -8.532   8.084  73.225  1.00  0.00    -0.284 C  
ENDROOT
BRANCH   2   3
HETATM    3  C   UNL     1      -7.708   8.263  71.952  1.00  0.00    -0.114 C  
HETATM    4  O   UNL     1      -7.215   9.340  71.634  1.00  0.00    -0.321 OA 
BRANCH   3   5
HETATM    5  O   UNL     1      -7.494   7.095  71.298  1.00  0.00    -0.078 OA 
BRANCH   5   6
HETATM    6  C   UNL     1      -8.657   6.328  70.851  1.00  0.00    -0.135 C  
HETATM    7  C   UNL     1      -8.360   4.813  71.147  1.00  0.00    -0.107 C  
HETATM    8  C   UNL     1      -9.476   3.864  70.715  1.00  0.00    -0.233 C  
HETATM    9  C   UNL     1      -8.021   4.545  72.615  1.00  0.00    -0.088 C  
BRANCH   6  10
HETATM   10  O   UNL     1      -9.050   6.528  69.459  1.00  0.00    -0.139 OA 
BRANCH  10  11
HETATM   11  P   UNL     1     -10.563   7.165  69.170  1.00  0.00    -0.169 P  
HETATM   12  O   UNL     1     -11.253   5.853  69.614  1.00  0.00    -0.395 OA 
BRANCH  11  13
HETATM   13  C   UNL     1     -10.912   6.739  67.283  1.00  0.00    -0.363 C  
BRANCH  13  14
HETATM   14  C   UNL     1     -10.416   5.341  66.901  1.00  0.00    -0.313 C  
BRANCH  14  15
HETATM   15  C   UNL     1      -8.918   5.256  66.668  1.00  0.00    -0.117 C  
BRANCH  15  16
HETATM   16  C   UNL     1      -8.561   6.025  65.386  1.00  0.00    -0.127 C  
BRANCH  16  17
HETATM   17  C   UNL     1      -7.904   7.334  65.721  1.00  0.00    -0.108 A  
HETATM   18  C   UNL     1      -8.311   8.518  65.092  1.00  0.00    -0.178 A  
HETATM   19  C   UNL     1      -6.919   7.386  66.715  1.00  0.00    -0.077 A  
HETATM   20  C   UNL     1      -6.757   9.782  66.444  1.00  0.00    -0.080 A  
HETATM   21  C   UNL     1      -7.729   9.739  65.451  1.00  0.00    -0.123 A  
HETATM   22  C   UNL     1      -6.354   8.609  67.074  1.00  0.00    -0.057 A  
ENDBRANCH  16  17
ENDBRANCH  15  16
ENDBRANCH  14  15
ENDBRANCH  13  14
ENDBRANCH  11  13
BRANCH  11  23
HETATM   23  C   UNL     1      -9.747   8.717  68.645  1.00  0.00    -0.162 C  
BRANCH  23  24
HETATM   24  C   UNL     1     -10.261   9.978  69.365  1.00  0.00    -0.222 C  
HETATM   25  C   UNL     1     -11.210  12.297  69.390  1.00  0.00    -0.176 C  
HETATM   26  O   UNL     1     -10.132  10.078  70.592  1.00  0.00    -0.177 OA 
HETATM   27  N   UNL     1     -10.918  11.004  68.722  1.00  0.00    -0.203 N  
HETATM   28  C   UNL     1     -12.321  12.349  70.476  1.00  0.00    -0.262 C  
HETATM   29  O   UNL     1     -12.994  13.345  70.717  1.00  0.00    -0.188 OA 
HETATM   30  C   UNL     1     -11.644  10.952  67.468  1.00  0.00    -0.014 C  
HETATM   31  C   UNL     1     -11.714  12.402  66.958  1.00  0.00    -0.423 C  
HETATM   32  O   UNL     1     -12.414  11.244  71.246  1.00  0.00    -0.368 OA 
HETATM   33  C   UNL     1     -11.586  13.252  68.240  1.00  0.00    -0.369 C  
BRANCH  31  34
HETATM   34  C   UNL     1     -10.651  12.807  65.890  1.00  0.00    -0.295 C  
HETATM   35  C   UNL     1     -11.834  11.823  63.871  1.00  0.00    -0.449 C  
HETATM   36  C   UNL     1     -12.125  13.204  63.295  1.00  0.00    -0.460 C  
HETATM   37  C   UNL     1     -12.092  14.308  64.350  1.00  0.00    -0.490 C  
HETATM   38  C   UNL     1     -10.553  11.842  64.696  1.00  0.00    -0.353 C  
HETATM   39  C   UNL     1     -10.896  14.221  65.306  1.00  0.00    -0.363 C  
ENDBRANCH  31  34
ENDBRANCH  23  24
ENDBRANCH  11  23
ENDBRANCH  10  11
ENDBRANCH   6  10
ENDBRANCH   5   6
ENDBRANCH   3   5
ENDBRANCH   2   3
TORSDOF 13
ENDMDL
MODEL       98
REMARK 921   NORMALIZED FREE ENERGY PREDICTED BY IDOCK:   -5.06 KCAL/MOL
REMARK 922        TOTAL FREE ENERGY PREDICTED BY IDOCK:  -11.37 KCAL/MOL
REMARK 923 INTER-LIGAND FREE ENERGY PREDICTED BY IDOCK:   -8.80 KCAL/MOL
REMARK 924 INTRA-LIGAND FREE ENERGY PREDICTED BY IDOCK:   -2.58 KCAL/MOL
REMARK 927      BINDING AFFINITY PREDICTED BY RF-SCORE:    0.00 PKD
ROOT
HETATM    1  C   UNL     1     -10.298  15.091  66.340  1.00  0.00    -0.293 C  
HETATM    2  C   UNL     1     -11.555  14.307  66.008  1.00  0.00    -0.362 C  
ENDROOT
BRANCH   2   3
HETATM    3  C   UNL     1     -11.389  12.935  65.360  1.00  0.00    -0.303 C  
HETATM    4  O   UNL     1     -12.313  12.132  65.274  1.00  0.00    -0.513 OA 
BRANCH   3   5
HETATM    5  O   UNL     1     -10.166  12.763  64.802  1.00  0.00    -0.305 OA 
BRANCH   5   6
HETATM    6  C   UNL     1      -9.448  11.519  65.075  1.00  0.00    -0.152 C  
HETATM    7  C   UNL     1      -9.561  10.623  63.787  1.00  0.00    -0.354 C  
HETATM    8  C   UNL     1      -8.876   9.263  63.914  1.00  0.00    -0.160 C  
HETATM    9  C   UNL     1      -9.050  11.320  62.525  1.00  0.00    -0.288 C  
BRANCH   6  10
HETATM   10  O   UNL     1      -9.873  10.790  66.267  1.00  0.00    -0.200 OA 
BRANCH  10  11
HETATM   11  P   UNL     1      -8.848  10.799  67.580  1.00  0.00    -0.134 P  
HETATM   12  O   UNL     1      -7.988  11.927  66.961  1.00  0.00    -0.158 OA 
BRANCH  11  13
HETATM   13  C   UNL     1      -7.473   9.469  67.128  1.00  0.00    -0.091 C  
BRANCH  13  14
HETATM   14  C   UNL     1      -7.567   8.214  68.002  1.00  0.00    -0.106 C  
BRANCH  14  15
HETATM   15  C   UNL     1      -7.405   6.912  67.237  1.00  0.00    -0.091 C  
BRANCH  15  16
HETATM   16  C   UNL     1      -8.644   6.032  67.468  1.00  0.00    -0.106 C  
BRANCH  16  17
HETATM   17  C   UNL     1      -8.328   4.915  68.423  1.00  0.00    -0.091 A  
HETATM   18  C   UNL     1      -7.014   4.702  68.860  1.00  0.00    -0.052 A  
HETATM   19  C   UNL     1      -9.360   4.117  68.929  1.00  0.00    -0.228 A  
HETATM   20  C   UNL     1      -7.772   2.910  70.294  1.00  0.00    -0.043 A  
HETATM   21  C   UNL     1      -6.740   3.693  69.790  1.00  0.00    -0.034 A  
HETATM   22  C   UNL     1      -9.079   3.122  69.864  1.00  0.00    -0.196 A  
ENDBRANCH  16  17
ENDBRANCH  15  16
ENDBRANCH  14  15
ENDBRANCH  13  14
ENDBRANCH  11  13
BRANCH  11  23
HETATM   23  C   UNL     1      -9.865   9.466  68.312  1.00  0.00    -0.160 C  
BRANCH  23  24
HETATM   24  C   UNL     1     -11.082   9.965  69.113  1.00  0.00    -0.159 C  
HETATM   25  C   UNL     1     -12.594   9.944  71.112  1.00  0.00    -0.367 C  
HETATM   26  O   UNL     1     -11.886  10.743  68.583  1.00  0.00    -0.404 OA 
HETATM   27  N   UNL     1     -11.312   9.632  70.430  1.00  0.00    -0.264 N  
HETATM   28  C   UNL     1     -12.903  11.418  71.495  1.00  0.00    -0.403 C  
HETATM   29  O   UNL     1     -13.600  11.744  72.449  1.00  0.00    -0.251 OA 
HETATM   30  C   UNL     1     -10.349   9.199  71.423  1.00  0.00    -0.338 C  
HETATM   31  C   UNL     1     -11.159   8.473  72.512  1.00  0.00    -0.328 C  
HETATM   32  O   UNL     1     -12.454  12.339  70.615  1.00  0.00    -0.315 OA 
HETATM   33  C   UNL     1     -12.571   9.086  72.392  1.00  0.00    -0.403 C  
BRANCH  31  34
HETATM   34  C   UNL     1     -11.196   6.917  72.419  1.00  0.00    -0.303 C  
HETATM   35  C   UNL     1      -8.827   6.588  71.570  1.00  0.00    -0.139 C  
HETATM   36  C   UNL     1      -8.385   5.944  72.879  1.00  0.00    -0.118 C  
HETATM   37  C   UNL     1      -9.286   6.310  74.057  1.00  0.00    -0.150 C  
HETATM   38  C   UNL     1     -10.306   6.325  71.313  1.00  0.00    -0.255 C  
HETATM   39  C   UNL     1     -10.785   6.226  73.744  1.00  0.00    -0.182 C  
ENDBRANCH  31  34
ENDBRANCH  23  24
ENDBRANCH  11  23
ENDBRANCH  10  11
ENDBRANCH   6  10
ENDBRANCH   5   6
ENDBRANCH   3   5
ENDBRANCH   2   3
TORSDOF 13
ENDMDL
MODEL       99
REMARK 921   NORMALIZED FREE ENERGY PREDICTED BY IDOCK:   -5.04 KCAL/MOL
REMARK 922        TOTAL FREE ENERGY PREDICTED BY IDOCK:  -11.34 KCAL/MOL
REMARK 923 INTER-LIGAND FREE ENERGY PREDICTED BY IDOCK:  -10.68 KCAL/MOL
REMARK 924 INTRA-LIGAND FREE ENERGY PREDICTED BY IDOCK:   -0.66 KCAL/MOL
REMARK 927      BINDING AFFINITY PREDICTED BY RF-SCORE:    0.00 PKD
ROOT
HETATM    1  C   UNL     1      -8.697   4.377  68.229  1.00  0.00    -0.116 C  
HETATM    2  C   UNL     1      -9.893   4.612  67.324  1.00  0.00    -0.218 C  
ENDROOT
BRANCH   2   3
HETATM    3  C   UNL     1     -10.229   6.052  66.946  1.00  0.00    -0.210 C  
HETATM    4  O   UNL     1     -11.382   6.467  66.898  1.00  0.00    -0.330 OA 
BRANCH   3   5
HETATM    5  O   UNL     1      -9.126   6.823  66.788  1.00  0.00    -0.130 OA 
BRANCH   5   6
HETATM    6  C   UNL     1      -9.242   8.045  65.992  1.00  0.00    -0.120 C  
HETATM    7  C   UNL     1      -7.898   8.212  65.194  1.00  0.00    -0.118 C  
HETATM    8  C   UNL     1      -7.845   9.465  64.321  1.00  0.00    -0.124 C  
HETATM    9  C   UNL     1      -7.556   6.994  64.335  1.00  0.00    -0.108 C  
BRANCH   6  10
HETATM   10  O   UNL     1      -9.571   9.257  66.737  1.00  0.00    -0.158 OA 
BRANCH  10  11
HETATM   11  P   UNL     1      -8.458   9.802  67.851  1.00  0.00    -0.125 P  
HETATM   12  O   UNL     1      -8.420   8.425  68.557  1.00  0.00    -0.129 OA 
BRANCH  11  13
HETATM   13  C   UNL     1      -9.554  10.544  69.304  1.00  0.00    -0.181 C  
BRANCH  13  14
HETATM   14  C   UNL     1      -9.729   9.558  70.463  1.00  0.00    -0.325 C  
BRANCH  14  15
HETATM   15  C   UNL     1     -11.029   9.725  71.229  1.00  0.00    -0.331 C  
BRANCH  15  16
HETATM   16  C   UNL     1     -12.076  10.379  70.312  1.00  0.00    -0.370 C  
BRANCH  16  17
HETATM   17  C   UNL     1     -12.479  11.724  70.847  1.00  0.00    -0.416 A  
HETATM   18  C   UNL     1     -11.993  12.899  70.259  1.00  0.00    -0.359 A  
HETATM   19  C   UNL     1     -13.395  11.809  71.902  1.00  0.00    -0.401 A  
HETATM   20  C   UNL     1     -13.334  14.222  71.774  1.00  0.00    -0.450 A  
HETATM   21  C   UNL     1     -12.417  14.147  70.731  1.00  0.00    -0.436 A  
HETATM   22  C   UNL     1     -13.821  13.057  72.358  1.00  0.00    -0.526 A  
ENDBRANCH  16  17
ENDBRANCH  15  16
ENDBRANCH  14  15
ENDBRANCH  13  14
ENDBRANCH  11  13
BRANCH  11  23
HETATM   23  C   UNL     1      -8.502  11.429  67.016  1.00  0.00    -0.159 C  
BRANCH  23  24
HETATM   24  C   UNL     1      -9.919  11.989  66.795  1.00  0.00    -0.201 C  
HETATM   25  C   UNL     1     -11.617  13.833  66.836  1.00  0.00    -0.370 C  
HETATM   26  O   UNL     1     -10.846  11.217  66.521  1.00  0.00    -0.274 OA 
HETATM   27  N   UNL     1     -10.218  13.334  66.835  1.00  0.00    -0.248 N  
HETATM   28  C   UNL     1     -12.446  13.749  65.524  1.00  0.00    -0.512 C  
HETATM   29  O   UNL     1     -13.345  14.532  65.233  1.00  0.00    -0.464 OA 
HETATM   30  C   UNL     1      -9.324  14.454  66.623  1.00  0.00    -0.278 C  
HETATM   31  C   UNL     1     -10.002  15.669  67.281  1.00  0.00    -0.236 C  
HETATM   32  O   UNL     1     -12.200  12.660  64.765  1.00  0.00    -0.416 OA 
HETATM   33  C   UNL     1     -11.503  15.308  67.266  1.00  0.00    -0.227 C  
BRANCH  31  34
HETATM   34  C   UNL     1      -9.512  16.037  68.715  1.00  0.00    -0.227 C  
HETATM   35  C   UNL     1      -7.876  17.856  68.040  1.00  0.00    -0.251 C  
HETATM   36  C   UNL     1      -8.743  18.947  68.660  1.00  0.00    -0.374 C  
HETATM   37  C   UNL     1     -10.204  18.529  68.815  1.00  0.00    -0.326 C  
HETATM   38  C   UNL     1      -8.059  16.537  68.781  1.00  0.00    -0.244 C  
HETATM   39  C   UNL     1     -10.391  17.120  69.391  1.00  0.00    -0.195 C  
ENDBRANCH  31  34
ENDBRANCH  23  24
ENDBRANCH  11  23
ENDBRANCH  10  11
ENDBRANCH   6  10
ENDBRANCH   5   6
ENDBRANCH   3   5
ENDBRANCH   2   3
TORSDOF 13
ENDMDL
MODEL      100
REMARK 921   NORMALIZED FREE ENERGY PREDICTED BY IDOCK:   -5.04 KCAL/MOL
REMARK 922        TOTAL FREE ENERGY PREDICTED BY IDOCK:  -11.34 KCAL/MOL
REMARK 923 INTER-LIGAND FREE ENERGY PREDICTED BY IDOCK:   -8.64 KCAL/MOL
REMARK 924 INTRA-LIGAND FREE ENERGY PREDICTED BY IDOCK:   -2.69 KCAL/MOL
REMARK 927      BINDING AFFINITY PREDICTED BY RF-SCORE:    0.00 PKD
ROOT
HETATM    1  C   UNL     1      -5.752   5.558  69.634  1.00  0.00    -0.012 C  
HETATM    2  C   UNL     1      -6.994   6.363  69.969  1.00  0.00    -0.066 C  
ENDROOT
BRANCH   2   3
HETATM    3  C   UNL     1      -7.556   6.252  71.384  1.00  0.00    -0.098 C  
HETATM    4  O   UNL     1      -7.449   7.156  72.206  1.00  0.00    -0.083 OA 
BRANCH   3   5
HETATM    5  O   UNL     1      -8.268   5.115  71.577  1.00  0.00    -0.111 OA 
BRANCH   5   6
HETATM    6  C   UNL     1      -9.528   5.203  72.314  1.00  0.00    -0.138 C  
HETATM    7  C   UNL     1      -9.820   3.779  72.912  1.00  0.00    -0.194 C  
HETATM    8  C   UNL     1     -11.125   3.691  73.701  1.00  0.00    -0.317 C  
HETATM    9  C   UNL     1      -8.678   3.247  73.781  1.00  0.00    -0.076 C  
BRANCH   6  10
HETATM   10  O   UNL     1     -10.672   5.705  71.558  1.00  0.00    -0.241 OA 
BRANCH  10  11
HETATM   11  P   UNL     1     -11.042   7.323  71.706  1.00  0.00    -0.249 P  
HETATM   12  O   UNL     1     -10.948   7.252  73.250  1.00  0.00    -0.352 OA 
BRANCH  11  13
HETATM   13  C   UNL     1     -13.005   7.360  71.803  1.00  0.00    -0.325 C  
BRANCH  13  14
HETATM   14  C   UNL     1     -13.543   8.741  72.191  1.00  0.00    -0.480 C  
BRANCH  14  15
HETATM   15  C   UNL     1     -12.548   9.871  71.997  1.00  0.00    -0.410 C  
BRANCH  15  16
HETATM   16  C   UNL     1     -12.969  10.713  70.782  1.00  0.00    -0.396 C  
BRANCH  16  17
HETATM   17  C   UNL     1     -12.882  12.179  71.099  1.00  0.00    -0.313 A  
HETATM   18  C   UNL     1     -13.522  12.703  72.229  1.00  0.00    -0.541 A  
HETATM   19  C   UNL     1     -12.105  13.021  70.295  1.00  0.00    -0.388 A  
HETATM   20  C   UNL     1     -12.609  14.888  71.745  1.00  0.00    -0.398 A  
HETATM   21  C   UNL     1     -13.389  14.060  72.545  1.00  0.00    -0.639 A  
HETATM   22  C   UNL     1     -11.969  14.370  70.623  1.00  0.00    -0.393 A  
ENDBRANCH  16  17
ENDBRANCH  15  16
ENDBRANCH  14  15
ENDBRANCH  13  14
ENDBRANCH  11  13
BRANCH  11  23
HETATM   23  C   UNL     1     -11.153   7.407  69.881  1.00  0.00    -0.190 C  
BRANCH  23  24
HETATM   24  C   UNL     1     -10.120   8.343  69.227  1.00  0.00    -0.202 C  
HETATM   25  C   UNL     1      -8.392   8.890  67.496  1.00  0.00    -0.109 C  
HETATM   26  O   UNL     1      -9.816   9.405  69.786  1.00  0.00    -0.178 OA 
HETATM   27  N   UNL     1      -9.537   8.093  68.004  1.00  0.00    -0.153 N  
HETATM   28  C   UNL     1      -8.646  10.344  67.008  1.00  0.00    -0.130 C  
HETATM   29  O   UNL     1      -7.979  10.900  66.142  1.00  0.00    -0.161 OA 
HETATM   30  C   UNL     1     -10.040   7.261  66.928  1.00  0.00    -0.247 C  
HETATM   31  C   UNL     1      -8.819   6.906  66.060  1.00  0.00    -0.154 C  
HETATM   32  O   UNL     1      -9.584  11.021  67.705  1.00  0.00    -0.166 OA 
HETATM   33  C   UNL     1      -7.828   8.059  66.328  1.00  0.00    -0.099 C  
BRANCH  31  34
HETATM   34  C   UNL     1      -8.169   5.514  66.326  1.00  0.00    -0.111 C  
HETATM   35  C   UNL     1      -9.669   4.160  64.788  1.00  0.00    -0.187 C  
HETATM   36  C   UNL     1      -8.525   3.889  63.817  1.00  0.00    -0.094 C  
HETATM   37  C   UNL     1      -7.391   4.904  63.933  1.00  0.00    -0.051 C  
HETATM   38  C   UNL     1      -9.140   4.327  66.208  1.00  0.00    -0.129 C  
HETATM   39  C   UNL     1      -6.980   5.216  65.377  1.00  0.00    -0.062 C  
ENDBRANCH  31  34
ENDBRANCH  23  24
ENDBRANCH  11  23
ENDBRANCH  10  11
ENDBRANCH   6  10
ENDBRANCH   5   6
ENDBRANCH   3   5
ENDBRANCH   2   3
TORSDOF 13
ENDMDL
MODEL      101
REMARK 921   NORMALIZED FREE ENERGY PREDICTED BY IDOCK:   -5.02 KCAL/MOL
REMARK 922        TOTAL FREE ENERGY PREDICTED BY IDOCK:  -11.30 KCAL/MOL
REMARK 923 INTER-LIGAND FREE ENERGY PREDICTED BY IDOCK:   -9.56 KCAL/MOL
REMARK 924 INTRA-LIGAND FREE ENERGY PREDICTED BY IDOCK:   -1.74 KCAL/MOL
REMARK 927      BINDING AFFINITY PREDICTED BY RF-SCORE:    0.00 PKD
ROOT
HETATM    1  C   UNL     1     -13.293  13.392  72.286  1.00  0.00    -0.641 C  
HETATM    2  C   UNL     1     -13.243  11.965  71.773  1.00  0.00    -0.426 C  
ENDROOT
BRANCH   2   3
HETATM    3  C   UNL     1     -12.500  11.702  70.466  1.00  0.00    -0.257 C  
HETATM    4  O   UNL     1     -11.980  12.601  69.813  1.00  0.00    -0.319 OA 
BRANCH   3   5
HETATM    5  O   UNL     1     -12.387  10.381  70.184  1.00  0.00    -0.273 OA 
BRANCH   5   6
HETATM    6  C   UNL     1     -11.082   9.745  70.357  1.00  0.00    -0.307 C  
HETATM    7  C   UNL     1     -11.006   9.230  71.840  1.00  0.00    -0.284 C  
HETATM    8  C   UNL     1      -9.684   8.553  72.197  1.00  0.00    -0.387 C  
HETATM    9  C   UNL     1     -12.159   8.294  72.210  1.00  0.00    -0.439 C  
BRANCH   6  10
HETATM   10  O   UNL     1      -9.925  10.570  70.022  1.00  0.00    -0.082 OA 
BRANCH  10  11
HETATM   11  P   UNL     1      -9.009  10.115  68.707  1.00  0.00    -0.163 P  
HETATM   12  O   UNL     1      -7.916  11.158  69.046  1.00  0.00    -0.137 OA 
BRANCH  11  13
HETATM   13  C   UNL     1      -9.671  11.250  67.244  1.00  0.00    -0.174 C  
BRANCH  13  14
HETATM   14  C   UNL     1      -9.359  12.733  67.472  1.00  0.00    -0.189 C  
BRANCH  14  15
HETATM   15  C   UNL     1     -10.412  13.680  66.924  1.00  0.00    -0.272 C  
BRANCH  15  16
HETATM   16  C   UNL     1      -9.792  14.536  65.808  1.00  0.00    -0.343 C  
BRANCH  16  17
HETATM   17  C   UNL     1      -9.821  15.991  66.181  1.00  0.00    -0.351 A  
HETATM   18  C   UNL     1     -10.638  16.890  65.483  1.00  0.00    -0.215 A  
HETATM   19  C   UNL     1      -9.073  16.446  67.273  1.00  0.00    -0.211 A  
HETATM   20  C   UNL     1      -9.957  18.674  66.964  1.00  0.00    -0.368 A  
HETATM   21  C   UNL     1     -10.698  18.232  65.873  1.00  0.00    -0.168 A  
HETATM   22  C   UNL     1      -9.147  17.783  67.662  1.00  0.00    -0.246 A  
ENDBRANCH  16  17
ENDBRANCH  15  16
ENDBRANCH  14  15
ENDBRANCH  13  14
ENDBRANCH  11  13
BRANCH  11  23
HETATM   23  C   UNL     1     -10.301   8.883  68.305  1.00  0.00    -0.206 C  
BRANCH  23  24
HETATM   24  C   UNL     1      -9.755   7.536  67.797  1.00  0.00    -0.146 C  
HETATM   25  C   UNL     1      -9.194   5.109  68.082  1.00  0.00    -0.116 C  
HETATM   26  O   UNL     1      -9.182   7.482  66.701  1.00  0.00    -0.148 OA 
HETATM   27  N   UNL     1      -9.911   6.348  68.478  1.00  0.00    -0.135 N  
HETATM   28  C   UNL     1      -9.642   4.360  66.796  1.00  0.00    -0.199 C  
HETATM   29  O   UNL     1      -9.525   3.150  66.635  1.00  0.00    -0.152 OA 
HETATM   30  C   UNL     1     -10.921   6.009  69.460  1.00  0.00    -0.397 C  
HETATM   31  C   UNL     1     -10.351   4.826  70.264  1.00  0.00    -0.180 C  
HETATM   32  O   UNL     1     -10.058   5.158  65.789  1.00  0.00    -0.141 OA 
HETATM   33  C   UNL     1      -9.348   4.168  69.292  1.00  0.00    -0.237 C  
BRANCH  31  34
HETATM   34  C   UNL     1      -9.683   5.180  71.628  1.00  0.00    -0.217 C  
HETATM   35  C   UNL     1     -11.508   4.253  73.129  1.00  0.00    -0.190 C  
HETATM   36  C   UNL     1     -10.612   3.121  73.618  1.00  0.00    -0.273 C  
HETATM   37  C   UNL     1      -9.461   2.817  72.661  1.00  0.00    -0.159 C  
HETATM   38  C   UNL     1     -10.678   5.478  72.763  1.00  0.00    -0.290 C  
HETATM   39  C   UNL     1      -8.737   4.065  72.141  1.00  0.00    -0.121 C  
ENDBRANCH  31  34
ENDBRANCH  23  24
ENDBRANCH  11  23
ENDBRANCH  10  11
ENDBRANCH   6  10
ENDBRANCH   5   6
ENDBRANCH   3   5
ENDBRANCH   2   3
TORSDOF 13
ENDMDL
MODEL      102
REMARK 921   NORMALIZED FREE ENERGY PREDICTED BY IDOCK:   -5.01 KCAL/MOL
REMARK 922        TOTAL FREE ENERGY PREDICTED BY IDOCK:  -11.27 KCAL/MOL
REMARK 923 INTER-LIGAND FREE ENERGY PREDICTED BY IDOCK:   -8.51 KCAL/MOL
REMARK 924 INTRA-LIGAND FREE ENERGY PREDICTED BY IDOCK:   -2.76 KCAL/MOL
REMARK 927      BINDING AFFINITY PREDICTED BY RF-SCORE:    0.00 PKD
ROOT
HETATM    1  C   UNL     1      -8.153  10.138  64.005  1.00  0.00    -0.158 C  
HETATM    2  C   UNL     1      -8.308   8.742  64.580  1.00  0.00    -0.171 C  
ENDROOT
BRANCH   2   3
HETATM    3  C   UNL     1      -8.925   8.607  65.969  1.00  0.00    -0.184 C  
HETATM    4  O   UNL     1     -10.112   8.830  66.187  1.00  0.00    -0.269 OA 
BRANCH   3   5
HETATM    5  O   UNL     1      -8.055   8.112  66.883  1.00  0.00    -0.102 OA 
BRANCH   5   6
HETATM    6  C   UNL     1      -8.283   8.418  68.295  1.00  0.00    -0.124 C  
HETATM    7  C   UNL     1      -7.058   9.269  68.792  1.00  0.00    -0.073 C  
HETATM    8  C   UNL     1      -7.128   9.657  70.268  1.00  0.00    -0.127 C  
HETATM    9  C   UNL     1      -6.825  10.530  67.957  1.00  0.00    -0.073 C  
BRANCH   6  10
HETATM   10  O   UNL     1      -8.517   7.268  69.164  1.00  0.00    -0.131 OA 
BRANCH  10  11
HETATM   11  P   UNL     1      -9.770   7.372  70.257  1.00  0.00    -0.170 P  
HETATM   12  O   UNL     1      -9.237   6.157  71.055  1.00  0.00    -0.155 OA 
BRANCH  11  13
HETATM   13  C   UNL     1     -11.189   6.263  69.470  1.00  0.00    -0.430 C  
BRANCH  13  14
HETATM   14  C   UNL     1     -11.029   6.103  67.954  1.00  0.00    -0.399 C  
BRANCH  14  15
HETATM   15  C   UNL     1     -10.286   4.847  67.538  1.00  0.00    -0.152 C  
BRANCH  15  16
HETATM   16  C   UNL     1     -10.302   4.734  66.005  1.00  0.00    -0.328 C  
BRANCH  16  17
HETATM   17  C   UNL     1      -8.911   4.858  65.451  1.00  0.00    -0.149 A  
HETATM   18  C   UNL     1      -8.703   5.020  64.075  1.00  0.00    -0.089 A  
HETATM   19  C   UNL     1      -7.813   4.875  66.320  1.00  0.00    -0.096 A  
HETATM   20  C   UNL     1      -6.322   5.212  64.448  1.00  0.00    -0.033 A  
HETATM   21  C   UNL     1      -7.405   5.189  63.577  1.00  0.00    -0.051 A  
HETATM   22  C   UNL     1      -6.526   5.056  65.816  1.00  0.00    -0.040 A  
ENDBRANCH  16  17
ENDBRANCH  15  16
ENDBRANCH  14  15
ENDBRANCH  13  14
ENDBRANCH  11  13
BRANCH  11  23
HETATM   23  C   UNL     1     -10.400   8.808  69.314  1.00  0.00    -0.214 C  
BRANCH  23  24
HETATM   24  C   UNL     1     -10.952   9.948  70.190  1.00  0.00    -0.301 C  
HETATM   25  C   UNL     1     -11.812  12.278  70.533  1.00  0.00    -0.072 C  
HETATM   26  O   UNL     1     -10.969   9.820  71.421  1.00  0.00    -0.342 OA 
HETATM   27  N   UNL     1     -11.488  11.109  69.676  1.00  0.00    -0.282 N  
HETATM   28  C   UNL     1     -13.044  12.199  71.476  1.00  0.00    -0.257 C  
HETATM   29  O   UNL     1     -13.705  13.174  71.819  1.00  0.00    -0.326 OA 
HETATM   30  C   UNL     1     -12.057  11.323  68.360  1.00  0.00    -0.040 C  
HETATM   31  C   UNL     1     -12.010  12.843  68.120  1.00  0.00    -0.306 C  
HETATM   32  O   UNL     1     -13.271  10.982  72.014  1.00  0.00    -0.499 OA 
HETATM   33  C   UNL     1     -12.009  13.442  69.543  1.00  0.00    -0.377 C  
BRANCH  31  34
HETATM   34  C   UNL     1     -10.811  13.369  67.272  1.00  0.00    -0.278 C  
HETATM   35  C   UNL     1     -11.323  12.070  65.152  1.00  0.00    -0.359 C  
HETATM   36  C   UNL     1     -11.694  13.340  64.394  1.00  0.00    -0.433 C  
HETATM   37  C   UNL     1     -12.084  14.492  65.318  1.00  0.00    -0.337 C  
HETATM   38  C   UNL     1     -10.286  12.369  66.228  1.00  0.00    -0.258 C  
HETATM   39  C   UNL     1     -11.141  14.679  66.513  1.00  0.00    -0.329 C  
ENDBRANCH  31  34
ENDBRANCH  23  24
ENDBRANCH  11  23
ENDBRANCH  10  11
ENDBRANCH   6  10
ENDBRANCH   5   6
ENDBRANCH   3   5
ENDBRANCH   2   3
TORSDOF 13
ENDMDL
MODEL      103
REMARK 921   NORMALIZED FREE ENERGY PREDICTED BY IDOCK:   -5.01 KCAL/MOL
REMARK 922        TOTAL FREE ENERGY PREDICTED BY IDOCK:  -11.27 KCAL/MOL
REMARK 923 INTER-LIGAND FREE ENERGY PREDICTED BY IDOCK:   -9.39 KCAL/MOL
REMARK 924 INTRA-LIGAND FREE ENERGY PREDICTED BY IDOCK:   -1.89 KCAL/MOL
REMARK 927      BINDING AFFINITY PREDICTED BY RF-SCORE:    0.00 PKD
ROOT
HETATM    1  C   UNL     1     -13.325  10.851  71.904  1.00  0.00    -0.429 C  
HETATM    2  C   UNL     1     -12.070  10.510  71.123  1.00  0.00    -0.473 C  
ENDROOT
BRANCH   2   3
HETATM    3  C   UNL     1     -11.436   9.141  71.352  1.00  0.00    -0.350 C  
HETATM    4  O   UNL     1     -12.059   8.094  71.204  1.00  0.00    -0.299 OA 
BRANCH   3   5
HETATM    5  O   UNL     1     -10.108   9.215  71.616  1.00  0.00    -0.327 OA 
BRANCH   5   6
HETATM    6  C   UNL     1      -9.172   9.107  70.498  1.00  0.00    -0.241 C  
HETATM    7  C   UNL     1      -7.728   8.989  71.108  1.00  0.00    -0.143 C  
HETATM    8  C   UNL     1      -6.618   8.889  70.064  1.00  0.00    -0.042 C  
HETATM    9  C   UNL     1      -7.587   7.828  72.095  1.00  0.00    -0.093 C  
BRANCH   6  10
HETATM   10  O   UNL     1      -9.242  10.177  69.506  1.00  0.00    -0.206 OA 
BRANCH  10  11
HETATM   11  P   UNL     1      -9.073   9.752  67.904  1.00  0.00    -0.118 P  
HETATM   12  O   UNL     1      -8.159  10.972  67.629  1.00  0.00    -0.113 OA 
BRANCH  11  13
HETATM   13  C   UNL     1     -10.577  10.646  67.008  1.00  0.00    -0.262 C  
BRANCH  13  14
HETATM   14  C   UNL     1     -11.590  11.221  68.004  1.00  0.00    -0.343 C  
BRANCH  14  15
HETATM   15  C   UNL     1     -11.381  12.690  68.324  1.00  0.00    -0.337 C  
BRANCH  15  16
HETATM   16  C   UNL     1     -12.152  13.544  67.304  1.00  0.00    -0.367 C  
BRANCH  16  17
HETATM   17  C   UNL     1     -11.467  14.865  67.097  1.00  0.00    -0.344 A  
HETATM   18  C   UNL     1     -11.229  15.722  68.179  1.00  0.00    -0.344 A  
HETATM   19  C   UNL     1     -11.007  15.220  65.823  1.00  0.00    -0.340 A  
HETATM   20  C   UNL     1     -10.082  17.267  66.716  1.00  0.00    -0.302 A  
HETATM   21  C   UNL     1     -10.543  16.926  67.983  1.00  0.00    -0.367 A  
HETATM   22  C   UNL     1     -10.314  16.416  65.639  1.00  0.00    -0.371 A  
ENDBRANCH  16  17
ENDBRANCH  15  16
ENDBRANCH  14  15
ENDBRANCH  13  14
ENDBRANCH  11  13
BRANCH  11  23
HETATM   23  C   UNL     1     -10.152   8.311  68.229  1.00  0.00    -0.198 C  
BRANCH  23  24
HETATM   24  C   UNL     1      -9.590   6.971  67.720  1.00  0.00    -0.123 C  
HETATM   25  C   UNL     1      -8.939   4.570  68.022  1.00  0.00    -0.116 C  
HETATM   26  O   UNL     1      -9.072   6.912  66.597  1.00  0.00    -0.140 OA 
HETATM   27  N   UNL     1      -9.673   5.794  68.431  1.00  0.00    -0.127 N  
HETATM   28  C   UNL     1      -9.428   3.781  66.776  1.00  0.00    -0.194 C  
HETATM   29  O   UNL     1      -9.281   2.571  66.632  1.00  0.00    -0.130 OA 
HETATM   30  C   UNL     1     -10.621   5.444  69.471  1.00  0.00    -0.246 C  
HETATM   31  C   UNL     1      -9.973   4.297  70.266  1.00  0.00    -0.203 C  
HETATM   32  O   UNL     1      -9.919   4.544  65.776  1.00  0.00    -0.200 OA 
HETATM   33  C   UNL     1      -9.001   3.649  69.256  1.00  0.00    -0.176 C  
BRANCH  31  34
HETATM   34  C   UNL     1      -9.248   4.699  71.587  1.00  0.00    -0.183 C  
HETATM   35  C   UNL     1     -11.285   4.641  73.102  1.00  0.00    -0.367 C  
HETATM   36  C   UNL     1     -10.768   3.416  73.846  1.00  0.00    -0.297 C  
HETATM   37  C   UNL     1      -9.746   2.616  73.041  1.00  0.00    -0.163 C  
HETATM   38  C   UNL     1     -10.125   5.482  72.579  1.00  0.00    -0.211 C  
HETATM   39  C   UNL     1      -8.680   3.480  72.356  1.00  0.00    -0.100 C  
ENDBRANCH  31  34
ENDBRANCH  23  24
ENDBRANCH  11  23
ENDBRANCH  10  11
ENDBRANCH   6  10
ENDBRANCH   5   6
ENDBRANCH   3   5
ENDBRANCH   2   3
TORSDOF 13
ENDMDL
MODEL      104
REMARK 921   NORMALIZED FREE ENERGY PREDICTED BY IDOCK:   -5.01 KCAL/MOL
REMARK 922        TOTAL FREE ENERGY PREDICTED BY IDOCK:  -11.27 KCAL/MOL
REMARK 923 INTER-LIGAND FREE ENERGY PREDICTED BY IDOCK:   -8.26 KCAL/MOL
REMARK 924 INTRA-LIGAND FREE ENERGY PREDICTED BY IDOCK:   -3.01 KCAL/MOL
REMARK 927      BINDING AFFINITY PREDICTED BY RF-SCORE:    0.00 PKD
ROOT
HETATM    1  C   UNL     1      -7.502   5.785  72.721  1.00  0.00    -0.096 C  
HETATM    2  C   UNL     1      -6.790   7.103  72.479  1.00  0.00    -0.064 C  
ENDROOT
BRANCH   2   3
HETATM    3  C   UNL     1      -7.607   8.387  72.595  1.00  0.00    -0.077 C  
HETATM    4  O   UNL     1      -8.536   8.507  73.387  1.00  0.00    -0.367 OA 
BRANCH   3   5
HETATM    5  O   UNL     1      -7.121   9.389  71.821  1.00  0.00    -0.319 OA 
BRANCH   5   6
HETATM    6  C   UNL     1      -7.566   9.468  70.430  1.00  0.00    -0.159 C  
HETATM    7  C   UNL     1      -7.051  10.837  69.853  1.00  0.00    -0.099 C  
HETATM    8  C   UNL     1      -7.452  11.090  68.401  1.00  0.00    -0.100 C  
HETATM    9  C   UNL     1      -5.537  11.013  69.988  1.00  0.00    -0.075 C  
BRANCH   6  10
HETATM   10  O   UNL     1      -9.000   9.307  70.212  1.00  0.00    -0.189 OA 
BRANCH  10  11
HETATM   11  P   UNL     1      -9.509   7.930  69.424  1.00  0.00    -0.156 P  
HETATM   12  O   UNL     1      -8.052   7.519  69.102  1.00  0.00    -0.119 OA 
BRANCH  11  13
HETATM   13  C   UNL     1      -9.782   8.512  67.566  1.00  0.00    -0.162 C  
BRANCH  13  14
HETATM   14  C   UNL     1      -9.793   7.336  66.584  1.00  0.00    -0.257 C  
BRANCH  14  15
HETATM   15  C   UNL     1     -10.822   6.267  66.906  1.00  0.00    -0.428 C  
BRANCH  15  16
HETATM   16  C   UNL     1     -10.244   4.886  66.556  1.00  0.00    -0.305 C  
BRANCH  16  17
HETATM   17  C   UNL     1      -9.295   4.425  67.627  1.00  0.00    -0.186 A  
HETATM   18  C   UNL     1      -7.943   4.206  67.335  1.00  0.00    -0.092 A  
HETATM   19  C   UNL     1      -9.750   4.269  68.941  1.00  0.00    -0.195 A  
HETATM   20  C   UNL     1      -7.516   3.684  69.656  1.00  0.00    -0.051 A  
HETATM   21  C   UNL     1      -7.058   3.829  68.351  1.00  0.00    -0.051 A  
HETATM   22  C   UNL     1      -8.859   3.904  69.950  1.00  0.00    -0.143 A  
ENDBRANCH  16  17
ENDBRANCH  15  16
ENDBRANCH  14  15
ENDBRANCH  13  14
ENDBRANCH  11  13
BRANCH  11  23
HETATM   23  C   UNL     1     -11.232   8.416  69.806  1.00  0.00     0.034 C  
BRANCH  23  24
HETATM   24  C   UNL     1     -11.379   9.848  70.354  1.00  0.00    -0.307 C  
HETATM   25  C   UNL     1     -11.503  12.336  70.078  1.00  0.00    -0.053 C  
HETATM   26  O   UNL     1     -11.364  10.040  71.576  1.00  0.00    -0.301 OA 
HETATM   27  N   UNL     1     -11.581  10.950  69.552  1.00  0.00    -0.284 N  
HETATM   28  C   UNL     1     -12.651  12.861  70.985  1.00  0.00    -0.287 C  
HETATM   29  O   UNL     1     -12.979  14.041  71.056  1.00  0.00    -0.329 OA 
HETATM   30  C   UNL     1     -12.135  10.990  68.213  1.00  0.00     0.133 C  
HETATM   31  C   UNL     1     -11.662  12.319  67.598  1.00  0.00    -0.403 C  
HETATM   32  O   UNL     1     -13.192  11.938  71.809  1.00  0.00    -0.454 OA 
HETATM   33  C   UNL     1     -11.407  13.224  68.823  1.00  0.00    -0.331 C  
BRANCH  31  34
HETATM   34  C   UNL     1     -10.411  12.240  66.669  1.00  0.00    -0.237 C  
HETATM   35  C   UNL     1     -11.652  11.850  64.490  1.00  0.00    -0.344 C  
HETATM   36  C   UNL     1     -11.269  13.226  63.957  1.00  0.00    -0.374 C  
HETATM   37  C   UNL     1     -10.901  14.212  65.065  1.00  0.00    -0.408 C  
HETATM   38  C   UNL     1     -10.586  11.326  65.445  1.00  0.00    -0.312 C  
HETATM   39  C   UNL     1      -9.971  13.627  66.135  1.00  0.00    -0.314 C  
ENDBRANCH  31  34
ENDBRANCH  23  24
ENDBRANCH  11  23
ENDBRANCH  10  11
ENDBRANCH   6  10
ENDBRANCH   5   6
ENDBRANCH   3   5
ENDBRANCH   2   3
TORSDOF 13
ENDMDL
MODEL      105
REMARK 921   NORMALIZED FREE ENERGY PREDICTED BY IDOCK:   -4.99 KCAL/MOL
REMARK 922        TOTAL FREE ENERGY PREDICTED BY IDOCK:  -11.25 KCAL/MOL
REMARK 923 INTER-LIGAND FREE ENERGY PREDICTED BY IDOCK:   -9.78 KCAL/MOL
REMARK 924 INTRA-LIGAND FREE ENERGY PREDICTED BY IDOCK:   -1.47 KCAL/MOL
REMARK 927      BINDING AFFINITY PREDICTED BY RF-SCORE:    0.00 PKD
ROOT
HETATM    1  C   UNL     1     -12.378  11.460  70.726  1.00  0.00    -0.483 C  
HETATM    2  C   UNL     1     -11.886  10.931  69.391  1.00  0.00    -0.400 C  
ENDROOT
BRANCH   2   3
HETATM    3  C   UNL     1     -10.410  10.560  69.270  1.00  0.00    -0.227 C  
HETATM    4  O   UNL     1      -9.814   9.942  70.145  1.00  0.00    -0.247 OA 
BRANCH   3   5
HETATM    5  O   UNL     1      -9.886  10.883  68.062  1.00  0.00    -0.165 OA 
BRANCH   5   6
HETATM    6  C   UNL     1      -8.435  10.805  67.893  1.00  0.00    -0.122 C  
HETATM    7  C   UNL     1      -7.947  12.214  67.397  1.00  0.00    -0.168 C  
HETATM    8  C   UNL     1      -6.442  12.299  67.147  1.00  0.00    -0.118 C  
HETATM    9  C   UNL     1      -8.360  13.355  68.330  1.00  0.00    -0.160 C  
BRANCH   6  10
HETATM   10  O   UNL     1      -7.956   9.739  67.018  1.00  0.00    -0.105 OA 
BRANCH  10  11
HETATM   11  P   UNL     1      -8.837   9.419  65.640  1.00  0.00    -0.201 P  
HETATM   12  O   UNL     1      -7.981  10.404  64.807  1.00  0.00    -0.152 OA 
BRANCH  11  13
HETATM   13  C   UNL     1     -10.313  10.716  65.702  1.00  0.00    -0.216 C  
BRANCH  13  14
HETATM   14  C   UNL     1     -10.462  11.492  64.389  1.00  0.00    -0.380 C  
BRANCH  14  15
HETATM   15  C   UNL     1     -11.318  12.740  64.499  1.00  0.00    -0.378 C  
BRANCH  15  16
HETATM   16  C   UNL     1     -12.020  12.753  65.867  1.00  0.00    -0.506 C  
BRANCH  16  17
HETATM   17  C   UNL     1     -11.661  13.996  66.632  1.00  0.00    -0.420 A  
HETATM   18  C   UNL     1     -12.007  14.124  67.984  1.00  0.00    -0.372 A  
HETATM   19  C   UNL     1     -10.922  15.009  66.010  1.00  0.00    -0.334 A  
HETATM   20  C   UNL     1     -10.879  16.261  68.077  1.00  0.00    -0.339 A  
HETATM   21  C   UNL     1     -11.620  15.263  68.701  1.00  0.00    -0.370 A  
HETATM   22  C   UNL     1     -10.531  16.134  66.736  1.00  0.00    -0.294 A  
ENDBRANCH  16  17
ENDBRANCH  15  16
ENDBRANCH  14  15
ENDBRANCH  13  14
ENDBRANCH  11  13
BRANCH  11  23
HETATM   23  C   UNL     1      -9.848   8.255  66.626  1.00  0.00    -0.267 C  
BRANCH  23  24
HETATM   24  C   UNL     1      -9.344   6.800  66.599  1.00  0.00    -0.165 C  
HETATM   25  C   UNL     1      -8.935   4.565  67.658  1.00  0.00    -0.115 C  
HETATM   26  O   UNL     1      -8.707   6.391  65.620  1.00  0.00    -0.149 OA 
HETATM   27  N   UNL     1      -9.607   5.888  67.598  1.00  0.00    -0.110 N  
HETATM   28  C   UNL     1      -9.340   3.469  66.634  1.00  0.00    -0.175 C  
HETATM   29  O   UNL     1      -9.279   2.265  66.862  1.00  0.00    -0.122 OA 
HETATM   30  C   UNL     1     -10.694   5.903  68.557  1.00  0.00    -0.255 C  
HETATM   31  C   UNL     1     -10.240   5.010  69.726  1.00  0.00    -0.336 C  
HETATM   32  O   UNL     1      -9.648   3.928  65.402  1.00  0.00    -0.165 OA 
HETATM   33  C   UNL     1      -9.215   4.051  69.083  1.00  0.00    -0.217 C  
BRANCH  31  34
HETATM   34  C   UNL     1      -9.642   5.749  70.963  1.00  0.00    -0.203 C  
HETATM   35  C   UNL     1     -11.820   6.077  72.226  1.00  0.00    -0.305 C  
HETATM   36  C   UNL     1     -11.405   5.092  73.313  1.00  0.00    -0.393 C  
HETATM   37  C   UNL     1     -10.325   4.115  72.851  1.00  0.00    -0.241 C  
HETATM   38  C   UNL     1     -10.597   6.758  71.622  1.00  0.00    -0.239 C  
HETATM   39  C   UNL     1      -9.178   4.776  72.077  1.00  0.00    -0.167 C  
ENDBRANCH  31  34
ENDBRANCH  23  24
ENDBRANCH  11  23
ENDBRANCH  10  11
ENDBRANCH   6  10
ENDBRANCH   5   6
ENDBRANCH   3   5
ENDBRANCH   2   3
TORSDOF 13
ENDMDL
MODEL      106
REMARK 921   NORMALIZED FREE ENERGY PREDICTED BY IDOCK:   -4.99 KCAL/MOL
REMARK 922        TOTAL FREE ENERGY PREDICTED BY IDOCK:  -11.25 KCAL/MOL
REMARK 923 INTER-LIGAND FREE ENERGY PREDICTED BY IDOCK:   -9.66 KCAL/MOL
REMARK 924 INTRA-LIGAND FREE ENERGY PREDICTED BY IDOCK:   -1.59 KCAL/MOL
REMARK 927      BINDING AFFINITY PREDICTED BY RF-SCORE:    0.00 PKD
ROOT
HETATM    1  C   UNL     1      -6.769   7.767  67.911  1.00  0.00    -0.067 C  
HETATM    2  C   UNL     1      -7.226   8.179  69.299  1.00  0.00    -0.072 C  
ENDROOT
BRANCH   2   3
HETATM    3  C   UNL     1      -7.096   9.650  69.685  1.00  0.00    -0.075 C  
HETATM    4  O   UNL     1      -7.326  10.054  70.820  1.00  0.00    -0.323 OA 
BRANCH   3   5
HETATM    5  O   UNL     1      -6.596  10.413  68.682  1.00  0.00    -0.051 OA 
BRANCH   5   6
HETATM    6  C   UNL     1      -7.467  11.420  68.078  1.00  0.00    -0.100 C  
HETATM    7  C   UNL     1      -7.267  12.754  68.884  1.00  0.00    -0.039 C  
HETATM    8  C   UNL     1      -8.130  13.915  68.391  1.00  0.00    -0.145 C  
HETATM    9  C   UNL     1      -5.807  13.210  68.938  1.00  0.00    -0.076 C  
BRANCH   6  10
HETATM   10  O   UNL     1      -8.880  11.063  67.985  1.00  0.00    -0.130 OA 
BRANCH  10  11
HETATM   11  P   UNL     1      -9.424  10.441  66.539  1.00  0.00    -0.179 P  
HETATM   12  O   UNL     1      -8.440  11.325  65.734  1.00  0.00    -0.130 OA 
BRANCH  11  13
HETATM   13  C   UNL     1     -10.921  11.615  66.042  1.00  0.00    -0.286 C  
BRANCH  13  14
HETATM   14  C   UNL     1     -10.453  13.021  65.651  1.00  0.00    -0.291 C  
BRANCH  14  15
HETATM   15  C   UNL     1     -11.289  14.141  66.245  1.00  0.00    -0.340 C  
BRANCH  15  16
HETATM   16  C   UNL     1     -10.890  15.473  65.588  1.00  0.00    -0.354 C  
BRANCH  16  17
HETATM   17  C   UNL     1     -10.132  16.333  66.559  1.00  0.00    -0.301 A  
HETATM   18  C   UNL     1      -8.861  16.824  66.234  1.00  0.00    -0.334 A  
HETATM   19  C   UNL     1     -10.722  16.700  67.774  1.00  0.00    -0.327 A  
HETATM   20  C   UNL     1      -8.783  18.034  68.325  1.00  0.00    -0.289 A  
HETATM   21  C   UNL     1      -8.186  17.669  67.123  1.00  0.00    -0.229 A  
HETATM   22  C   UNL     1     -10.048  17.552  68.649  1.00  0.00    -0.361 A  
ENDBRANCH  16  17
ENDBRANCH  15  16
ENDBRANCH  14  15
ENDBRANCH  13  14
ENDBRANCH  11  13
BRANCH  11  23
HETATM   23  C   UNL     1     -10.588   9.397  67.489  1.00  0.00    -0.267 C  
BRANCH  23  24
HETATM   24  C   UNL     1     -11.511  10.182  68.439  1.00  0.00    -0.015 C  
HETATM   25  C   UNL     1     -12.684  10.523  70.628  1.00  0.00    -0.355 C  
HETATM   26  O   UNL     1     -12.153  11.149  68.009  1.00  0.00    -0.635 OA 
HETATM   27  N   UNL     1     -11.634   9.900  69.782  1.00  0.00    -0.143 N  
HETATM   28  C   UNL     1     -12.546  12.021  71.017  1.00  0.00    -0.273 C  
HETATM   29  O   UNL     1     -12.996  12.502  72.051  1.00  0.00    -0.351 OA 
HETATM   30  C   UNL     1     -10.687   9.218  70.642  1.00  0.00    -0.269 C  
HETATM   31  C   UNL     1     -11.498   8.711  71.848  1.00  0.00    -0.419 C  
HETATM   32  O   UNL     1     -12.002  12.808  70.064  1.00  0.00    -0.332 OA 
HETATM   33  C   UNL     1     -12.706   9.670  71.911  1.00  0.00    -0.499 C  
BRANCH  31  34
HETATM   34  C   UNL     1     -11.949   7.218  71.795  1.00  0.00    -0.342 C  
HETATM   35  C   UNL     1     -10.374   6.473  69.948  1.00  0.00    -0.231 C  
HETATM   36  C   UNL     1      -9.561   5.613  70.909  1.00  0.00    -0.212 C  
HETATM   37  C   UNL     1      -9.716   6.041  72.367  1.00  0.00    -0.172 C  
HETATM   38  C   UNL     1     -11.825   6.567  70.407  1.00  0.00    -0.378 C  
HETATM   39  C   UNL     1     -11.165   6.319  72.784  1.00  0.00    -0.272 C  
ENDBRANCH  31  34
ENDBRANCH  23  24
ENDBRANCH  11  23
ENDBRANCH  10  11
ENDBRANCH   6  10
ENDBRANCH   5   6
ENDBRANCH   3   5
ENDBRANCH   2   3
TORSDOF 13
ENDMDL
MODEL      107
REMARK 921   NORMALIZED FREE ENERGY PREDICTED BY IDOCK:   -4.99 KCAL/MOL
REMARK 922        TOTAL FREE ENERGY PREDICTED BY IDOCK:  -11.24 KCAL/MOL
REMARK 923 INTER-LIGAND FREE ENERGY PREDICTED BY IDOCK:   -8.87 KCAL/MOL
REMARK 924 INTRA-LIGAND FREE ENERGY PREDICTED BY IDOCK:   -2.37 KCAL/MOL
REMARK 927      BINDING AFFINITY PREDICTED BY RF-SCORE:    0.00 PKD
ROOT
HETATM    1  C   UNL     1      -9.846  20.896  67.215  1.00  0.00    -0.300 C  
HETATM    2  C   UNL     1      -9.401  19.906  66.154  1.00  0.00    -0.442 C  
ENDROOT
BRANCH   2   3
HETATM    3  C   UNL     1      -9.543  18.417  66.463  1.00  0.00    -0.327 C  
HETATM    4  O   UNL     1     -10.630  17.891  66.677  1.00  0.00    -0.324 OA 
BRANCH   3   5
HETATM    5  O   UNL     1      -8.370  17.746  66.357  1.00  0.00    -0.267 OA 
BRANCH   5   6
HETATM    6  C   UNL     1      -8.037  16.765  67.390  1.00  0.00    -0.170 C  
HETATM    7  C   UNL     1      -6.923  17.403  68.297  1.00  0.00    -0.193 C  
HETATM    8  C   UNL     1      -6.441  16.490  69.424  1.00  0.00    -0.210 C  
HETATM    9  C   UNL     1      -7.333  18.751  68.893  1.00  0.00    -0.325 C  
BRANCH   6  10
HETATM   10  O   UNL     1      -7.637  15.447  66.906  1.00  0.00    -0.196 OA 
BRANCH  10  11
HETATM   11  P   UNL     1      -8.764  14.223  66.985  1.00  0.00    -0.136 P  
HETATM   12  O   UNL     1      -9.663  14.918  65.933  1.00  0.00    -0.307 OA 
BRANCH  11  13
HETATM   13  C   UNL     1      -9.979  14.780  68.427  1.00  0.00    -0.223 C  
BRANCH  13  14
HETATM   14  C   UNL     1     -11.447  14.775  67.986  1.00  0.00    -0.351 C  
BRANCH  14  15
HETATM   15  C   UNL     1     -12.078  13.395  67.947  1.00  0.00    -0.289 C  
BRANCH  15  16
HETATM   16  C   UNL     1     -11.179  12.406  68.707  1.00  0.00    -0.318 C  
BRANCH  16  17
HETATM   17  C   UNL     1     -11.944  11.749  69.822  1.00  0.00    -0.392 A  
HETATM   18  C   UNL     1     -12.031  10.353  69.900  1.00  0.00    -0.289 A  
HETATM   19  C   UNL     1     -12.524  12.532  70.827  1.00  0.00    -0.357 A  
HETATM   20  C   UNL     1     -13.266  10.536  71.970  1.00  0.00    -0.483 A  
HETATM   21  C   UNL     1     -12.699   9.750  70.972  1.00  0.00    -0.392 A  
HETATM   22  C   UNL     1     -13.178  11.923  71.897  1.00  0.00    -0.467 A  
ENDBRANCH  16  17
ENDBRANCH  15  16
ENDBRANCH  14  15
ENDBRANCH  13  14
ENDBRANCH  11  13
BRANCH  11  23
HETATM   23  C   UNL     1      -7.702  13.401  68.228  1.00  0.00    -0.141 C  
BRANCH  23  24
HETATM   24  C   UNL     1      -6.866  12.233  67.673  1.00  0.00    -0.124 C  
HETATM   25  C   UNL     1      -6.168   9.826  67.610  1.00  0.00    -0.056 C  
HETATM   26  O   UNL     1      -5.950  12.461  66.873  1.00  0.00    -0.273 OA 
HETATM   27  N   UNL     1      -7.112  10.912  67.979  1.00  0.00    -0.076 N  
HETATM   28  C   UNL     1      -6.060   9.398  66.121  1.00  0.00    -0.059 C  
HETATM   29  O   UNL     1      -5.759   8.266  65.755  1.00  0.00    -0.039 OA 
HETATM   30  C   UNL     1      -8.353  10.316  68.434  1.00  0.00    -0.119 C  
HETATM   31  C   UNL     1      -7.964   8.991  69.113  1.00  0.00    -0.101 C  
HETATM   32  O   UNL     1      -6.192  10.403  65.229  1.00  0.00    -0.119 OA 
HETATM   33  C   UNL     1      -6.621   8.616  68.450  1.00  0.00    -0.060 C  
BRANCH  31  34
HETATM   34  C   UNL     1      -7.849   9.024  70.669  1.00  0.00    -0.147 C  
HETATM   35  C   UNL     1      -9.886   7.594  71.171  1.00  0.00    -0.184 C  
HETATM   36  C   UNL     1      -9.025   6.447  71.688  1.00  0.00    -0.144 C  
HETATM   37  C   UNL     1      -7.590   6.497  71.166  1.00  0.00    -0.090 C  
HETATM   38  C   UNL     1      -9.196   8.933  71.406  1.00  0.00    -0.328 C  
HETATM   39  C   UNL     1      -6.953   7.891  71.229  1.00  0.00    -0.050 C  
ENDBRANCH  31  34
ENDBRANCH  23  24
ENDBRANCH  11  23
ENDBRANCH  10  11
ENDBRANCH   6  10
ENDBRANCH   5   6
ENDBRANCH   3   5
ENDBRANCH   2   3
TORSDOF 13
ENDMDL
MODEL      108
REMARK 921   NORMALIZED FREE ENERGY PREDICTED BY IDOCK:   -4.94 KCAL/MOL
REMARK 922        TOTAL FREE ENERGY PREDICTED BY IDOCK:  -11.17 KCAL/MOL
REMARK 923 INTER-LIGAND FREE ENERGY PREDICTED BY IDOCK:  -10.60 KCAL/MOL
REMARK 924 INTRA-LIGAND FREE ENERGY PREDICTED BY IDOCK:   -0.56 KCAL/MOL
REMARK 927      BINDING AFFINITY PREDICTED BY RF-SCORE:    0.00 PKD
ROOT
HETATM    1  C   UNL     1     -12.655  14.046  65.397  1.00  0.00    -0.529 C  
HETATM    2  C   UNL     1     -12.738  12.622  64.879  1.00  0.00    -0.450 C  
ENDROOT
BRANCH   2   3
HETATM    3  C   UNL     1     -11.539  12.071  64.111  1.00  0.00    -0.379 C  
HETATM    4  O   UNL     1     -11.638  11.611  62.978  1.00  0.00    -0.142 OA 
BRANCH   3   5
HETATM    5  O   UNL     1     -10.367  12.256  64.767  1.00  0.00    -0.275 OA 
BRANCH   5   6
HETATM    6  C   UNL     1      -9.888  11.187  65.644  1.00  0.00    -0.235 C  
HETATM    7  C   UNL     1      -9.526   9.961  64.729  1.00  0.00    -0.356 C  
HETATM    8  C   UNL     1      -9.025   8.739  65.498  1.00  0.00    -0.231 C  
HETATM    9  C   UNL     1      -8.515  10.307  63.634  1.00  0.00    -0.183 C  
BRANCH   6  10
HETATM   10  O   UNL     1     -10.793  10.797  66.721  1.00  0.00    -0.249 OA 
BRANCH  10  11
HETATM   11  P   UNL     1     -10.607  11.551  68.194  1.00  0.00    -0.222 P  
HETATM   12  O   UNL     1     -12.129  11.810  68.307  1.00  0.00    -0.525 OA 
BRANCH  11  13
HETATM   13  C   UNL     1     -10.296  13.437  67.733  1.00  0.00    -0.241 C  
BRANCH  13  14
HETATM   14  C   UNL     1      -9.255  14.094  68.645  1.00  0.00    -0.146 C  
BRANCH  14  15
HETATM   15  C   UNL     1      -9.746  15.351  69.342  1.00  0.00    -0.273 C  
BRANCH  15  16
HETATM   16  C   UNL     1     -11.282  15.387  69.297  1.00  0.00    -0.300 C  
BRANCH  16  17
HETATM   17  C   UNL     1     -11.855  15.205  70.674  1.00  0.00    -0.371 A  
HETATM   18  C   UNL     1     -11.693  16.197  71.650  1.00  0.00    -0.558 A  
HETATM   19  C   UNL     1     -12.609  14.063  70.970  1.00  0.00    -0.437 A  
HETATM   20  C   UNL     1     -13.030  14.907  73.196  1.00  0.00    -0.627 A  
HETATM   21  C   UNL     1     -12.276  16.040  72.913  1.00  0.00    -0.621 A  
HETATM   22  C   UNL     1     -13.196  13.921  72.227  1.00  0.00    -0.568 A  
ENDBRANCH  16  17
ENDBRANCH  15  16
ENDBRANCH  14  15
ENDBRANCH  13  14
ENDBRANCH  11  13
BRANCH  11  23
HETATM   23  C   UNL     1      -8.808  11.245  68.060  1.00  0.00    -0.148 C  
BRANCH  23  24
HETATM   24  C   UNL     1      -8.186  10.576  69.301  1.00  0.00    -0.145 C  
HETATM   25  C   UNL     1      -8.033   8.741  71.000  1.00  0.00    -0.144 C  
HETATM   26  O   UNL     1      -7.348  11.192  69.972  1.00  0.00     0.040 OA 
HETATM   27  N   UNL     1      -8.472   9.286  69.691  1.00  0.00    -0.128 N  
HETATM   28  C   UNL     1      -6.530   8.405  71.209  1.00  0.00    -0.051 C  
HETATM   29  O   UNL     1      -6.124   7.529  71.965  1.00  0.00    -0.039 OA 
HETATM   30  C   UNL     1      -8.973   8.197  68.876  1.00  0.00    -0.141 C  
HETATM   31  C   UNL     1      -9.601   7.189  69.855  1.00  0.00    -0.163 C  
HETATM   32  O   UNL     1      -5.670   9.243  70.591  1.00  0.00    -0.034 OA 
HETATM   33  C   UNL     1      -8.865   7.457  71.185  1.00  0.00    -0.142 C  
BRANCH  31  34
HETATM   34  C   UNL     1     -11.150   7.271  70.026  1.00  0.00    -0.262 C  
HETATM   35  C   UNL     1     -11.230   6.697  72.498  1.00  0.00    -0.302 C  
HETATM   36  C   UNL     1     -11.673   8.108  72.870  1.00  0.00    -0.194 C  
HETATM   37  C   UNL     1     -11.319   9.144  71.806  1.00  0.00    -0.451 C  
HETATM   38  C   UNL     1     -11.720   6.331  71.102  1.00  0.00    -0.292 C  
HETATM   39  C   UNL     1     -11.640   8.700  70.373  1.00  0.00    -0.090 C  
ENDBRANCH  31  34
ENDBRANCH  23  24
ENDBRANCH  11  23
ENDBRANCH  10  11
ENDBRANCH   6  10
ENDBRANCH   5   6
ENDBRANCH   3   5
ENDBRANCH   2   3
TORSDOF 13
ENDMDL
MODEL      109
REMARK 921   NORMALIZED FREE ENERGY PREDICTED BY IDOCK:   -4.93 KCAL/MOL
REMARK 922        TOTAL FREE ENERGY PREDICTED BY IDOCK:  -11.14 KCAL/MOL
REMARK 923 INTER-LIGAND FREE ENERGY PREDICTED BY IDOCK:   -9.76 KCAL/MOL
REMARK 924 INTRA-LIGAND FREE ENERGY PREDICTED BY IDOCK:   -1.38 KCAL/MOL
REMARK 927      BINDING AFFINITY PREDICTED BY RF-SCORE:    0.00 PKD
ROOT
HETATM    1  C   UNL     1      -9.221  10.075  62.948  1.00  0.00    -0.311 C  
HETATM    2  C   UNL     1      -9.849  11.450  62.818  1.00  0.00    -0.208 C  
ENDROOT
BRANCH   2   3
HETATM    3  C   UNL     1     -11.019  11.791  63.738  1.00  0.00    -0.429 C  
HETATM    4  O   UNL     1     -12.177  11.844  63.338  1.00  0.00    -0.531 OA 
BRANCH   3   5
HETATM    5  O   UNL     1     -10.648  11.906  65.037  1.00  0.00    -0.267 OA 
BRANCH   5   6
HETATM    6  C   UNL     1     -11.639  12.379  66.002  1.00  0.00    -0.401 C  
HETATM    7  C   UNL     1     -11.197  13.817  66.459  1.00  0.00    -0.319 C  
HETATM    8  C   UNL     1     -12.123  14.453  67.495  1.00  0.00    -0.327 C  
HETATM    9  C   UNL     1     -11.018  14.789  65.291  1.00  0.00    -0.382 C  
BRANCH   6  10
HETATM   10  O   UNL     1     -11.874  11.507  67.150  1.00  0.00    -0.595 OA 
BRANCH  10  11
HETATM   11  P   UNL     1     -10.548  10.773  67.842  1.00  0.00    -0.263 P  
HETATM   12  O   UNL     1     -10.471  11.851  68.951  1.00  0.00    -0.202 OA 
BRANCH  11  13
HETATM   13  C   UNL     1      -9.013  11.582  66.917  1.00  0.00    -0.179 C  
BRANCH  13  14
HETATM   14  C   UNL     1      -8.043  12.264  67.887  1.00  0.00    -0.155 C  
BRANCH  14  15
HETATM   15  C   UNL     1      -7.689  13.692  67.510  1.00  0.00    -0.183 C  
BRANCH  15  16
HETATM   16  C   UNL     1      -8.021  14.623  68.687  1.00  0.00    -0.141 C  
BRANCH  16  17
HETATM   17  C   UNL     1      -8.642  15.899  68.191  1.00  0.00    -0.169 A  
HETATM   18  C   UNL     1      -8.274  16.436  66.950  1.00  0.00    -0.253 A  
HETATM   19  C   UNL     1      -9.640  16.527  68.945  1.00  0.00    -0.261 A  
HETATM   20  C   UNL     1      -9.894  18.208  67.226  1.00  0.00    -0.316 A  
HETATM   21  C   UNL     1      -8.898  17.595  66.475  1.00  0.00    -0.287 A  
HETATM   22  C   UNL     1     -10.264  17.676  68.458  1.00  0.00    -0.386 A  
ENDBRANCH  16  17
ENDBRANCH  15  16
ENDBRANCH  14  15
ENDBRANCH  13  14
ENDBRANCH  11  13
BRANCH  11  23
HETATM   23  C   UNL     1     -10.638   9.500  66.531  1.00  0.00    -0.062 C  
BRANCH  23  24
HETATM   24  C   UNL     1      -9.620   8.355  66.690  1.00  0.00    -0.229 C  
HETATM   25  C   UNL     1      -8.376   6.653  68.044  1.00  0.00    -0.117 C  
HETATM   26  O   UNL     1      -8.891   8.048  65.737  1.00  0.00    -0.165 OA 
HETATM   27  N   UNL     1      -9.501   7.599  67.835  1.00  0.00    -0.142 N  
HETATM   28  C   UNL     1      -8.351   5.324  67.238  1.00  0.00    -0.107 C  
HETATM   29  O   UNL     1      -7.834   4.289  67.644  1.00  0.00    -0.086 OA 
HETATM   30  C   UNL     1     -10.496   7.375  68.865  1.00  0.00    -0.203 C  
HETATM   31  C   UNL     1      -9.718   6.933  70.118  1.00  0.00    -0.175 C  
HETATM   32  O   UNL     1      -8.830   5.415  65.979  1.00  0.00    -0.134 OA 
HETATM   33  C   UNL     1      -8.416   6.327  69.550  1.00  0.00    -0.129 C  
BRANCH  31  34
HETATM   34  C   UNL     1      -9.425   8.044  71.173  1.00  0.00    -0.181 C  
HETATM   35  C   UNL     1     -11.351   7.515  72.740  1.00  0.00    -0.388 C  
HETATM   36  C   UNL     1     -10.406   7.013  73.825  1.00  0.00    -0.408 C  
HETATM   37  C   UNL     1      -9.043   6.590  73.280  1.00  0.00    -0.139 C  
HETATM   38  C   UNL     1     -10.674   8.584  71.889  1.00  0.00    -0.394 C  
HETATM   39  C   UNL     1      -8.440   7.579  72.276  1.00  0.00    -0.138 C  
ENDBRANCH  31  34
ENDBRANCH  23  24
ENDBRANCH  11  23
ENDBRANCH  10  11
ENDBRANCH   6  10
ENDBRANCH   5   6
ENDBRANCH   3   5
ENDBRANCH   2   3
TORSDOF 13
ENDMDL
MODEL      110
REMARK 921   NORMALIZED FREE ENERGY PREDICTED BY IDOCK:   -4.89 KCAL/MOL
REMARK 922        TOTAL FREE ENERGY PREDICTED BY IDOCK:  -11.08 KCAL/MOL
REMARK 923 INTER-LIGAND FREE ENERGY PREDICTED BY IDOCK:  -10.09 KCAL/MOL
REMARK 924 INTRA-LIGAND FREE ENERGY PREDICTED BY IDOCK:   -0.99 KCAL/MOL
REMARK 927      BINDING AFFINITY PREDICTED BY RF-SCORE:    0.00 PKD
ROOT
HETATM    1  C   UNL     1      -6.130  19.255  68.138  1.00  0.00    -0.235 C  
HETATM    2  C   UNL     1      -7.014  18.044  67.907  1.00  0.00    -0.211 C  
ENDROOT
BRANCH   2   3
HETATM    3  C   UNL     1      -8.401  18.041  68.544  1.00  0.00    -0.304 C  
HETATM    4  O   UNL     1      -8.865  19.023  69.114  1.00  0.00    -0.221 OA 
BRANCH   3   5
HETATM    5  O   UNL     1      -9.084  16.894  68.308  1.00  0.00    -0.221 OA 
BRANCH   5   6
HETATM    6  C   UNL     1      -9.147  16.395  66.935  1.00  0.00    -0.216 C  
HETATM    7  C   UNL     1     -10.459  16.973  66.288  1.00  0.00    -0.258 C  
HETATM    8  C   UNL     1     -10.690  16.526  64.846  1.00  0.00    -0.168 C  
HETATM    9  C   UNL     1     -10.537  18.500  66.353  1.00  0.00    -0.365 C  
BRANCH   6  10
HETATM   10  O   UNL     1      -9.076  14.945  66.783  1.00  0.00    -0.239 OA 
BRANCH  10  11
HETATM   11  P   UNL     1      -8.605  14.054  68.110  1.00  0.00    -0.195 P  
HETATM   12  O   UNL     1      -7.239  14.780  68.171  1.00  0.00    -0.103 OA 
BRANCH  11  13
HETATM   13  C   UNL     1      -7.751  12.460  67.340  1.00  0.00    -0.170 C  
BRANCH  13  14
HETATM   14  C   UNL     1      -6.698  11.855  68.276  1.00  0.00    -0.063 C  
BRANCH  14  15
HETATM   15  C   UNL     1      -7.279  11.082  69.447  1.00  0.00    -0.114 C  
BRANCH  15  16
HETATM   16  C   UNL     1      -8.272  10.034  68.919  1.00  0.00    -0.121 C  
BRANCH  16  17
HETATM   17  C   UNL     1      -9.288   9.691  69.972  1.00  0.00    -0.276 A  
HETATM   18  C   UNL     1     -10.621  10.099  69.835  1.00  0.00    -0.331 A  
HETATM   19  C   UNL     1      -8.916   8.907  71.070  1.00  0.00    -0.298 A  
HETATM   20  C   UNL     1     -11.194   8.943  71.879  1.00  0.00    -0.447 A  
HETATM   21  C   UNL     1     -11.570   9.728  70.795  1.00  0.00    -0.417 A  
HETATM   22  C   UNL     1      -9.870   8.533  72.016  1.00  0.00    -0.383 A  
ENDBRANCH  16  17
ENDBRANCH  15  16
ENDBRANCH  14  15
ENDBRANCH  13  14
ENDBRANCH  11  13
BRANCH  11  23
HETATM   23  C   UNL     1     -10.220  13.197  68.038  1.00  0.00    -0.233 C  
BRANCH  23  24
HETATM   24  C   UNL     1     -10.861  13.172  66.638  1.00  0.00    -0.280 C  
HETATM   25  C   UNL     1     -11.121  12.246  64.323  1.00  0.00    -0.348 C  
HETATM   26  O   UNL     1     -11.625  14.084  66.298  1.00  0.00    -0.341 OA 
HETATM   27  N   UNL     1     -10.674  12.147  65.736  1.00  0.00    -0.258 N  
HETATM   28  C   UNL     1     -12.640  12.163  64.008  1.00  0.00    -0.403 C  
HETATM   29  O   UNL     1     -13.097  11.728  62.956  1.00  0.00    -0.508 OA 
HETATM   30  C   UNL     1     -10.289  10.776  66.009  1.00  0.00    -0.238 C  
HETATM   31  C   UNL     1      -9.721  10.224  64.689  1.00  0.00    -0.398 C  
HETATM   32  O   UNL     1     -13.443  12.735  64.930  1.00  0.00    -0.557 OA 
HETATM   33  C   UNL     1     -10.394  11.092  63.605  1.00  0.00    -0.449 C  
BRANCH  31  34
HETATM   34  C   UNL     1      -8.167  10.234  64.553  1.00  0.00    -0.158 C  
HETATM   35  C   UNL     1      -7.770   7.818  65.222  1.00  0.00    -0.102 C  
HETATM   36  C   UNL     1      -7.335   7.438  63.811  1.00  0.00    -0.089 C  
HETATM   37  C   UNL     1      -7.850   8.405  62.748  1.00  0.00    -0.144 C  
HETATM   38  C   UNL     1      -7.440   9.277  65.513  1.00  0.00    -0.090 C  
HETATM   39  C   UNL     1      -7.688   9.884  63.121  1.00  0.00    -0.141 C  
ENDBRANCH  31  34
ENDBRANCH  23  24
ENDBRANCH  11  23
ENDBRANCH  10  11
ENDBRANCH   6  10
ENDBRANCH   5   6
ENDBRANCH   3   5
ENDBRANCH   2   3
TORSDOF 13
ENDMDL
MODEL      111
REMARK 921   NORMALIZED FREE ENERGY PREDICTED BY IDOCK:   -4.89 KCAL/MOL
REMARK 922        TOTAL FREE ENERGY PREDICTED BY IDOCK:  -11.08 KCAL/MOL
REMARK 923 INTER-LIGAND FREE ENERGY PREDICTED BY IDOCK:   -8.69 KCAL/MOL
REMARK 924 INTRA-LIGAND FREE ENERGY PREDICTED BY IDOCK:   -2.39 KCAL/MOL
REMARK 927      BINDING AFFINITY PREDICTED BY RF-SCORE:    0.00 PKD
ROOT
HETATM    1  C   UNL     1      -9.956  19.660  68.036  1.00  0.00    -0.541 C  
HETATM    2  C   UNL     1     -10.769  18.643  67.256  1.00  0.00    -0.449 C  
ENDROOT
BRANCH   2   3
HETATM    3  C   UNL     1     -10.597  17.169  67.611  1.00  0.00    -0.343 C  
HETATM    4  O   UNL     1     -11.289  16.610  68.456  1.00  0.00    -0.317 OA 
BRANCH   3   5
HETATM    5  O   UNL     1      -9.694  16.541  66.819  1.00  0.00    -0.239 OA 
BRANCH   5   6
HETATM    6  C   UNL     1      -9.016  15.356  67.344  1.00  0.00    -0.191 C  
HETATM    7  C   UNL     1      -7.496  15.722  67.506  1.00  0.00    -0.198 C  
HETATM    8  C   UNL     1      -6.632  14.575  68.030  1.00  0.00    -0.156 C  
HETATM    9  C   UNL     1      -7.266  16.955  68.383  1.00  0.00    -0.195 C  
BRANCH   6  10
HETATM   10  O   UNL     1      -9.186  14.131  66.567  1.00  0.00    -0.268 OA 
BRANCH  10  11
HETATM   11  P   UNL     1     -10.231  12.980  67.165  1.00  0.00    -0.248 P  
HETATM   12  O   UNL     1     -11.462  13.746  66.623  1.00  0.00    -0.320 OA 
BRANCH  11  13
HETATM   13  C   UNL     1     -10.625  13.590  68.992  1.00  0.00    -0.098 C  
BRANCH  13  14
HETATM   14  C   UNL     1     -12.025  13.173  69.455  1.00  0.00    -0.354 C  
BRANCH  14  15
HETATM   15  C   UNL     1     -12.283  11.679  69.384  1.00  0.00    -0.246 C  
BRANCH  15  16
HETATM   16  C   UNL     1     -11.559  10.984  70.549  1.00  0.00    -0.344 C  
BRANCH  16  17
HETATM   17  C   UNL     1     -12.295   9.741  70.962  1.00  0.00    -0.422 A  
HETATM   18  C   UNL     1     -13.602   9.819  71.460  1.00  0.00    -0.351 A  
HETATM   19  C   UNL     1     -11.696   8.487  70.792  1.00  0.00    -0.228 A  
HETATM   20  C   UNL     1     -13.697   7.408  71.611  1.00  0.00    -0.468 A  
HETATM   21  C   UNL     1     -14.297   8.649  71.790  1.00  0.00    -0.476 A  
HETATM   22  C   UNL     1     -12.400   7.327  71.113  1.00  0.00    -0.381 A  
ENDBRANCH  16  17
ENDBRANCH  15  16
ENDBRANCH  14  15
ENDBRANCH  13  14
ENDBRANCH  11  13
BRANCH  11  23
HETATM   23  C   UNL     1      -8.776  12.073  67.806  1.00  0.00    -0.161 C  
BRANCH  23  24
HETATM   24  C   UNL     1      -8.305  10.915  66.906  1.00  0.00    -0.133 C  
HETATM   25  C   UNL     1      -7.551   8.555  66.526  1.00  0.00    -0.088 C  
HETATM   26  O   UNL     1      -8.037  11.134  65.718  1.00  0.00    -0.098 OA 
HETATM   27  N   UNL     1      -8.209   9.610  67.338  1.00  0.00    -0.114 N  
HETATM   28  C   UNL     1      -8.277   8.019  65.260  1.00  0.00    -0.146 C  
HETATM   29  O   UNL     1      -8.137   6.882  64.823  1.00  0.00    -0.125 OA 
HETATM   30  C   UNL     1      -8.905   8.982  68.443  1.00  0.00    -0.134 C  
HETATM   31  C   UNL     1      -8.078   7.738  68.814  1.00  0.00    -0.126 C  
HETATM   32  O   UNL     1      -8.987   8.943  64.578  1.00  0.00    -0.113 OA 
HETATM   33  C   UNL     1      -7.328   7.391  67.510  1.00  0.00    -0.102 C  
BRANCH  31  34
HETATM   34  C   UNL     1      -7.097   7.898  70.016  1.00  0.00    -0.050 C  
HETATM   35  C   UNL     1      -8.752   7.334  71.857  1.00  0.00    -0.124 C  
HETATM   36  C   UNL     1      -8.042   6.022  72.172  1.00  0.00    -0.107 C  
HETATM   37  C   UNL     1      -7.193   5.510  71.011  1.00  0.00    -0.078 C  
HETATM   38  C   UNL     1      -7.765   8.364  71.321  1.00  0.00    -0.110 C  
HETATM   39  C   UNL     1      -6.332   6.591  70.345  1.00  0.00    -0.043 C  
ENDBRANCH  31  34
ENDBRANCH  23  24
ENDBRANCH  11  23
ENDBRANCH  10  11
ENDBRANCH   6  10
ENDBRANCH   5   6
ENDBRANCH   3   5
ENDBRANCH   2   3
TORSDOF 13
ENDMDL
MODEL      112
REMARK 921   NORMALIZED FREE ENERGY PREDICTED BY IDOCK:   -4.87 KCAL/MOL
REMARK 922        TOTAL FREE ENERGY PREDICTED BY IDOCK:  -11.04 KCAL/MOL
REMARK 923 INTER-LIGAND FREE ENERGY PREDICTED BY IDOCK:   -8.26 KCAL/MOL
REMARK 924 INTRA-LIGAND FREE ENERGY PREDICTED BY IDOCK:   -2.78 KCAL/MOL
REMARK 927      BINDING AFFINITY PREDICTED BY RF-SCORE:    0.00 PKD
ROOT
HETATM    1  C   UNL     1     -12.097  15.436  68.503  1.00  0.00    -0.081 C  
HETATM    2  C   UNL     1     -12.269  14.170  67.685  1.00  0.00    -0.231 C  
ENDROOT
BRANCH   2   3
HETATM    3  C   UNL     1     -12.236  14.294  66.164  1.00  0.00    -0.410 C  
HETATM    4  O   UNL     1     -13.233  14.126  65.468  1.00  0.00    -0.688 OA 
BRANCH   3   5
HETATM    5  O   UNL     1     -11.035  14.716  65.698  1.00  0.00    -0.312 OA 
BRANCH   5   6
HETATM    6  C   UNL     1      -9.824  14.197  66.335  1.00  0.00    -0.296 C  
HETATM    7  C   UNL     1      -8.801  15.387  66.429  1.00  0.00    -0.340 C  
HETATM    8  C   UNL     1      -7.461  15.006  67.056  1.00  0.00    -0.021 C  
HETATM    9  C   UNL     1      -9.364  16.605  67.165  1.00  0.00    -0.236 C  
BRANCH   6  10
HETATM   10  O   UNL     1      -9.222  13.030  65.696  1.00  0.00     0.117 OA 
BRANCH  10  11
HETATM   11  P   UNL     1      -9.390  11.561  66.464  1.00  0.00    -0.206 P  
HETATM   12  O   UNL     1     -10.869  11.446  66.024  1.00  0.00    -0.279 OA 
BRANCH  11  13
HETATM   13  C   UNL     1      -9.944  12.033  68.290  1.00  0.00    -0.203 C  
BRANCH  13  14
HETATM   14  C   UNL     1     -11.068  11.130  68.809  1.00  0.00    -0.291 C  
BRANCH  14  15
HETATM   15  C   UNL     1     -11.470  11.403  70.247  1.00  0.00    -0.244 C  
BRANCH  15  16
HETATM   16  C   UNL     1     -12.807  10.705  70.541  1.00  0.00    -0.356 C  
BRANCH  16  17
HETATM   17  C   UNL     1     -12.573   9.340  71.125  1.00  0.00    -0.324 A  
HETATM   18  C   UNL     1     -11.420   9.075  71.876  1.00  0.00    -0.440 A  
HETATM   19  C   UNL     1     -13.540   8.340  70.970  1.00  0.00     0.086 A  
HETATM   20  C   UNL     1     -12.208   6.831  72.308  1.00  0.00    -0.174 A  
HETATM   21  C   UNL     1     -11.238   7.816  72.460  1.00  0.00    -0.419 A  
HETATM   22  C   UNL     1     -13.355   7.092  71.566  1.00  0.00    -0.413 A  
ENDBRANCH  16  17
ENDBRANCH  15  16
ENDBRANCH  14  15
ENDBRANCH  13  14
ENDBRANCH  11  13
BRANCH  11  23
HETATM   23  C   UNL     1      -7.640  11.697  66.984  1.00  0.00    -0.154 C  
BRANCH  23  24
HETATM   24  C   UNL     1      -7.371  11.229  68.426  1.00  0.00    -0.097 C  
HETATM   25  C   UNL     1      -7.612   9.611  70.325  1.00  0.00    -0.166 C  
HETATM   26  O   UNL     1      -6.806  11.992  69.221  1.00  0.00    -0.106 OA 
HETATM   27  N   UNL     1      -7.680   9.967  68.885  1.00  0.00    -0.083 N  
HETATM   28  C   UNL     1      -6.219   9.447  70.994  1.00  0.00    -0.080 C  
HETATM   29  O   UNL     1      -6.001   8.701  71.943  1.00  0.00    -0.048 OA 
HETATM   30  C   UNL     1      -7.851   8.753  68.111  1.00  0.00    -0.102 C  
HETATM   31  C   UNL     1      -8.677   7.801  68.994  1.00  0.00    -0.135 C  
HETATM   32  O   UNL     1      -5.268  10.292  70.542  1.00  0.00    -0.043 OA 
HETATM   33  C   UNL     1      -8.382   8.281  70.432  1.00  0.00    -0.120 C  
BRANCH  31  34
HETATM   34  C   UNL     1     -10.209   7.751  68.706  1.00  0.00    -0.212 C  
HETATM   35  C   UNL     1     -10.057   7.009  66.283  1.00  0.00     0.093 C  
HETATM   36  C   UNL     1     -10.637   5.637  66.607  1.00  0.00    -0.361 C  
HETATM   37  C   UNL     1     -10.480   5.255  68.077  1.00  0.00    -0.143 C  
HETATM   38  C   UNL     1     -10.591   8.061  67.249  1.00  0.00    -0.360 C  
HETATM   39  C   UNL     1     -10.841   6.380  69.055  1.00  0.00    -0.385 C  
ENDBRANCH  31  34
ENDBRANCH  23  24
ENDBRANCH  11  23
ENDBRANCH  10  11
ENDBRANCH   6  10
ENDBRANCH   5   6
ENDBRANCH   3   5
ENDBRANCH   2   3
TORSDOF 13
ENDMDL
MODEL      113
REMARK 921   NORMALIZED FREE ENERGY PREDICTED BY IDOCK:   -4.87 KCAL/MOL
REMARK 922        TOTAL FREE ENERGY PREDICTED BY IDOCK:  -11.04 KCAL/MOL
REMARK 923 INTER-LIGAND FREE ENERGY PREDICTED BY IDOCK:   -8.46 KCAL/MOL
REMARK 924 INTRA-LIGAND FREE ENERGY PREDICTED BY IDOCK:   -2.58 KCAL/MOL
REMARK 927      BINDING AFFINITY PREDICTED BY RF-SCORE:    0.00 PKD
ROOT
HETATM    1  C   UNL     1     -13.617   7.267  71.470  1.00  0.00    -0.442 C  
HETATM    2  C   UNL     1     -12.241   6.685  71.741  1.00  0.00    -0.400 C  
ENDROOT
BRANCH   2   3
HETATM    3  C   UNL     1     -11.272   6.567  70.567  1.00  0.00    -0.344 C  
HETATM    4  O   UNL     1     -11.643   6.279  69.434  1.00  0.00    -0.403 OA 
BRANCH   3   5
HETATM    5  O   UNL     1     -10.007   6.926  70.895  1.00  0.00    -0.189 OA 
BRANCH   5   6
HETATM    6  C   UNL     1      -8.898   6.199  70.277  1.00  0.00    -0.149 C  
HETATM    7  C   UNL     1      -8.088   5.512  71.435  1.00  0.00    -0.117 C  
HETATM    8  C   UNL     1      -6.870   4.722  70.958  1.00  0.00    -0.036 C  
HETATM    9  C   UNL     1      -8.952   4.607  72.317  1.00  0.00    -0.140 C  
BRANCH   6  10
HETATM   10  O   UNL     1      -8.024   6.990  69.415  1.00  0.00    -0.114 OA 
BRANCH  10  11
HETATM   11  P   UNL     1      -8.440   7.119  67.807  1.00  0.00    -0.119 P  
HETATM   12  O   UNL     1      -8.920   5.647  67.764  1.00  0.00    -0.110 OA 
BRANCH  11  13
HETATM   13  C   UNL     1      -6.796   6.636  66.844  1.00  0.00    -0.065 C  
BRANCH  13  14
HETATM   14  C   UNL     1      -5.731   7.735  66.925  1.00  0.00    -0.032 C  
BRANCH  14  15
HETATM   15  C   UNL     1      -5.222   8.207  65.575  1.00  0.00    -0.032 C  
BRANCH  15  16
HETATM   16  C   UNL     1      -6.067   7.564  64.463  1.00  0.00    -0.038 C  
BRANCH  16  17
HETATM   17  C   UNL     1      -6.857   8.611  63.728  1.00  0.00    -0.087 A  
HETATM   18  C   UNL     1      -8.255   8.636  63.810  1.00  0.00    -0.145 A  
HETATM   19  C   UNL     1      -6.191   9.607  63.005  1.00  0.00    -0.105 A  
HETATM   20  C   UNL     1      -8.307  10.637  62.455  1.00  0.00    -0.263 A  
HETATM   21  C   UNL     1      -8.977   9.647  63.165  1.00  0.00    -0.253 A  
HETATM   22  C   UNL     1      -6.918  10.617  62.375  1.00  0.00    -0.134 A  
ENDBRANCH  16  17
ENDBRANCH  15  16
ENDBRANCH  14  15
ENDBRANCH  13  14
ENDBRANCH  11  13
BRANCH  11  23
HETATM   23  C   UNL     1      -7.874   8.858  67.858  1.00  0.00    -0.102 C  
BRANCH  23  24
HETATM   24  C   UNL     1      -8.777   9.794  68.682  1.00  0.00    -0.122 C  
HETATM   25  C   UNL     1     -10.525  11.577  68.903  1.00  0.00    -0.187 C  
HETATM   26  O   UNL     1      -8.616   9.878  69.906  1.00  0.00    -0.194 OA 
HETATM   27  N   UNL     1      -9.811  10.524  68.138  1.00  0.00    -0.150 N  
HETATM   28  C   UNL     1     -11.502  11.153  70.035  1.00  0.00    -0.292 C  
HETATM   29  O   UNL     1     -12.483  11.807  70.371  1.00  0.00    -0.270 OA 
HETATM   30  C   UNL     1     -10.543  10.260  66.914  1.00  0.00    -0.217 C  
HETATM   31  C   UNL     1     -11.185  11.598  66.507  1.00  0.00    -0.356 C  
HETATM   32  O   UNL     1     -11.123  10.060  70.732  1.00  0.00    -0.311 OA 
HETATM   33  C   UNL     1     -11.304  12.372  67.838  1.00  0.00    -0.344 C  
BRANCH  31  34
HETATM   34  C   UNL     1     -10.424  12.425  65.426  1.00  0.00    -0.306 C  
HETATM   35  C   UNL     1     -12.462  13.259  64.164  1.00  0.00    -0.330 C  
HETATM   36  C   UNL     1     -12.231  14.694  64.624  1.00  0.00    -0.447 C  
HETATM   37  C   UNL     1     -11.381  14.785  65.889  1.00  0.00    -0.331 C  
HETATM   38  C   UNL     1     -11.140  12.506  64.067  1.00  0.00    -0.449 C  
HETATM   39  C   UNL     1     -10.141  13.882  65.872  1.00  0.00    -0.331 C  
ENDBRANCH  31  34
ENDBRANCH  23  24
ENDBRANCH  11  23
ENDBRANCH  10  11
ENDBRANCH   6  10
ENDBRANCH   5   6
ENDBRANCH   3   5
ENDBRANCH   2   3
TORSDOF 13
ENDMDL
MODEL      114
REMARK 921   NORMALIZED FREE ENERGY PREDICTED BY IDOCK:   -4.87 KCAL/MOL
REMARK 922        TOTAL FREE ENERGY PREDICTED BY IDOCK:  -11.03 KCAL/MOL
REMARK 923 INTER-LIGAND FREE ENERGY PREDICTED BY IDOCK:   -9.53 KCAL/MOL
REMARK 924 INTRA-LIGAND FREE ENERGY PREDICTED BY IDOCK:   -1.50 KCAL/MOL
REMARK 927      BINDING AFFINITY PREDICTED BY RF-SCORE:    0.00 PKD
ROOT
HETATM    1  C   UNL     1      -9.956  19.269  68.856  1.00  0.00    -0.495 C  
HETATM    2  C   UNL     1      -9.656  17.832  68.473  1.00  0.00    -0.322 C  
ENDROOT
BRANCH   2   3
HETATM    3  C   UNL     1     -10.656  16.758  68.895  1.00  0.00    -0.350 C  
HETATM    4  O   UNL     1     -10.779  16.395  70.060  1.00  0.00    -0.319 OA 
BRANCH   3   5
HETATM    5  O   UNL     1     -11.449  16.351  67.874  1.00  0.00    -0.177 OA 
BRANCH   5   6
HETATM    6  C   UNL     1     -11.089  15.125  67.162  1.00  0.00    -0.335 C  
HETATM    7  C   UNL     1     -11.036  15.474  65.630  1.00  0.00    -0.235 C  
HETATM    8  C   UNL     1     -10.692  14.286  64.733  1.00  0.00    -0.435 C  
HETATM    9  C   UNL     1     -10.085  16.629  65.310  1.00  0.00     0.108 C  
BRANCH   6  10
HETATM   10  O   UNL     1     -11.946  13.970  67.413  1.00  0.00    -0.388 OA 
BRANCH  10  11
HETATM   11  P   UNL     1     -11.257  12.459  67.291  1.00  0.00    -0.345 P  
HETATM   12  O   UNL     1     -12.326  12.001  66.270  1.00  0.00    -0.432 OA 
BRANCH  11  13
HETATM   13  C   UNL     1     -12.130  11.415  68.710  1.00  0.00    -0.189 C  
BRANCH  13  14
HETATM   14  C   UNL     1     -11.993  12.076  70.086  1.00  0.00    -0.401 C  
BRANCH  14  15
HETATM   15  C   UNL     1     -12.705  11.334  71.204  1.00  0.00    -0.492 C  
BRANCH  15  16
HETATM   16  C   UNL     1     -13.102   9.934  70.709  1.00  0.00    -0.256 C  
BRANCH  16  17
HETATM   17  C   UNL     1     -12.160   8.896  71.251  1.00  0.00    -0.360 A  
HETATM   18  C   UNL     1     -10.918   9.268  71.781  1.00  0.00    -0.383 A  
HETATM   19  C   UNL     1     -12.547   7.551  71.283  1.00  0.00    -0.345 A  
HETATM   20  C   UNL     1     -10.468   6.967  72.368  1.00  0.00    -0.234 A  
HETATM   21  C   UNL     1     -10.071   8.299  72.332  1.00  0.00    -0.383 A  
HETATM   22  C   UNL     1     -11.703   6.594  71.845  1.00  0.00    -0.355 A  
ENDBRANCH  16  17
ENDBRANCH  15  16
ENDBRANCH  14  15
ENDBRANCH  13  14
ENDBRANCH  11  13
BRANCH  11  23
HETATM   23  C   UNL     1      -9.992  13.000  68.498  1.00  0.00    -0.172 C  
BRANCH  23  24
HETATM   24  C   UNL     1      -8.626  12.308  68.337  1.00  0.00    -0.136 C  
HETATM   25  C   UNL     1      -7.178  10.297  67.962  1.00  0.00    -0.085 C  
HETATM   26  O   UNL     1      -7.588  12.946  68.556  1.00  0.00    -0.126 OA 
HETATM   27  N   UNL     1      -8.480  11.009  67.903  1.00  0.00    -0.125 N  
HETATM   28  C   UNL     1      -6.059  10.693  66.959  1.00  0.00    -0.064 C  
HETATM   29  O   UNL     1      -5.200   9.917  66.553  1.00  0.00    -0.042 OA 
HETATM   30  C   UNL     1      -9.407  10.221  67.115  1.00  0.00    -0.153 C  
HETATM   31  C   UNL     1      -9.027   8.749  67.359  1.00  0.00    -0.143 C  
HETATM   32  O   UNL     1      -6.009  12.007  66.653  1.00  0.00    -0.219 OA 
HETATM   33  C   UNL     1      -7.537   8.813  67.756  1.00  0.00    -0.097 C  
BRANCH  31  34
HETATM   34  C   UNL     1      -9.876   7.988  68.424  1.00  0.00    -0.184 C  
HETATM   35  C   UNL     1     -10.720   6.141  66.901  1.00  0.00    -0.413 C  
HETATM   36  C   UNL     1      -9.888   5.086  67.622  1.00  0.00    -0.202 C  
HETATM   37  C   UNL     1      -8.705   5.680  68.383  1.00  0.00    -0.109 C  
HETATM   38  C   UNL     1     -11.108   7.265  67.854  1.00  0.00    -0.001 C  
HETATM   39  C   UNL     1      -9.053   6.929  69.201  1.00  0.00    -0.136 C  
ENDBRANCH  31  34
ENDBRANCH  23  24
ENDBRANCH  11  23
ENDBRANCH  10  11
ENDBRANCH   6  10
ENDBRANCH   5   6
ENDBRANCH   3   5
ENDBRANCH   2   3
TORSDOF 13
ENDMDL
MODEL      115
REMARK 921   NORMALIZED FREE ENERGY PREDICTED BY IDOCK:   -4.84 KCAL/MOL
REMARK 922        TOTAL FREE ENERGY PREDICTED BY IDOCK:  -10.99 KCAL/MOL
REMARK 923 INTER-LIGAND FREE ENERGY PREDICTED BY IDOCK:   -8.49 KCAL/MOL
REMARK 924 INTRA-LIGAND FREE ENERGY PREDICTED BY IDOCK:   -2.50 KCAL/MOL
REMARK 927      BINDING AFFINITY PREDICTED BY RF-SCORE:    0.00 PKD
ROOT
HETATM    1  C   UNL     1     -13.607   7.420  71.428  1.00  0.00    -0.410 C  
HETATM    2  C   UNL     1     -12.355   6.615  71.727  1.00  0.00    -0.385 C  
ENDROOT
BRANCH   2   3
HETATM    3  C   UNL     1     -11.329   6.452  70.609  1.00  0.00    -0.357 C  
HETATM    4  O   UNL     1     -11.651   6.345  69.431  1.00  0.00    -0.382 OA 
BRANCH   3   5
HETATM    5  O   UNL     1     -10.052   6.555  71.052  1.00  0.00    -0.183 OA 
BRANCH   5   6
HETATM    6  C   UNL     1      -8.986   5.969  70.238  1.00  0.00    -0.148 C  
HETATM    7  C   UNL     1      -8.142   5.033  71.178  1.00  0.00    -0.109 C  
HETATM    8  C   UNL     1      -6.964   4.354  70.482  1.00  0.00    -0.037 C  
HETATM    9  C   UNL     1      -8.987   3.967  71.877  1.00  0.00    -0.153 C  
BRANCH   6  10
HETATM   10  O   UNL     1      -8.133   6.921  69.532  1.00  0.00    -0.125 OA 
BRANCH  10  11
HETATM   11  P   UNL     1      -8.441   7.178  67.915  1.00  0.00    -0.120 P  
HETATM   12  O   UNL     1      -8.934   5.723  67.729  1.00  0.00    -0.110 OA 
BRANCH  11  13
HETATM   13  C   UNL     1      -6.743   6.743  67.026  1.00  0.00    -0.059 C  
BRANCH  13  14
HETATM   14  C   UNL     1      -6.540   7.542  65.735  1.00  0.00    -0.045 C  
BRANCH  14  15
HETATM   15  C   UNL     1      -7.442   7.112  64.591  1.00  0.00    -0.098 C  
BRANCH  15  16
HETATM   16  C   UNL     1      -6.828   5.886  63.896  1.00  0.00    -0.038 C  
BRANCH  16  17
HETATM   17  C   UNL     1      -7.605   4.645  64.232  1.00  0.00    -0.072 A  
HETATM   18  C   UNL     1      -6.966   3.536  64.801  1.00  0.00    -0.056 A  
HETATM   19  C   UNL     1      -8.990   4.614  64.031  1.00  0.00    -0.117 A  
HETATM   20  C   UNL     1      -9.086   2.386  64.965  1.00  0.00    -0.129 A  
HETATM   21  C   UNL     1      -7.710   2.405  65.160  1.00  0.00    -0.077 A  
HETATM   22  C   UNL     1      -9.725   3.488  64.402  1.00  0.00    -0.172 A  
ENDBRANCH  16  17
ENDBRANCH  15  16
ENDBRANCH  14  15
ENDBRANCH  13  14
ENDBRANCH  11  13
BRANCH  11  23
HETATM   23  C   UNL     1      -7.858   8.899  68.136  1.00  0.00    -0.101 C  
BRANCH  23  24
HETATM   24  C   UNL     1      -8.804   9.786  68.966  1.00  0.00    -0.153 C  
HETATM   25  C   UNL     1     -10.573  11.546  69.201  1.00  0.00    -0.136 C  
HETATM   26  O   UNL     1      -8.698   9.808  70.199  1.00  0.00    -0.207 OA 
HETATM   27  N   UNL     1      -9.818  10.538  68.414  1.00  0.00    -0.156 N  
HETATM   28  C   UNL     1     -11.596  11.059  70.264  1.00  0.00    -0.322 C  
HETATM   29  O   UNL     1     -12.596  11.689  70.589  1.00  0.00    -0.297 OA 
HETATM   30  C   UNL     1     -10.493  10.333  67.148  1.00  0.00    -0.254 C  
HETATM   31  C   UNL     1     -11.126  11.688  66.781  1.00  0.00    -0.366 C  
HETATM   32  O   UNL     1     -11.241   9.933  70.920  1.00  0.00    -0.315 OA 
HETATM   33  C   UNL     1     -11.310  12.391  68.143  1.00  0.00    -0.341 C  
BRANCH  31  34
HETATM   34  C   UNL     1     -10.323  12.573  65.779  1.00  0.00    -0.288 C  
HETATM   35  C   UNL     1     -11.484  11.795  63.660  1.00  0.00    -0.524 C  
HETATM   36  C   UNL     1     -12.153  13.150  63.459  1.00  0.00    -0.585 C  
HETATM   37  C   UNL     1     -12.247  13.965  64.748  1.00  0.00    -0.441 C  
HETATM   38  C   UNL     1     -10.151  11.954  64.382  1.00  0.00    -0.310 C  
HETATM   39  C   UNL     1     -10.956  13.973  65.575  1.00  0.00    -0.309 C  
ENDBRANCH  31  34
ENDBRANCH  23  24
ENDBRANCH  11  23
ENDBRANCH  10  11
ENDBRANCH   6  10
ENDBRANCH   5   6
ENDBRANCH   3   5
ENDBRANCH   2   3
TORSDOF 13
ENDMDL
MODEL      116
REMARK 921   NORMALIZED FREE ENERGY PREDICTED BY IDOCK:   -4.84 KCAL/MOL
REMARK 922        TOTAL FREE ENERGY PREDICTED BY IDOCK:  -10.97 KCAL/MOL
REMARK 923 INTER-LIGAND FREE ENERGY PREDICTED BY IDOCK:   -9.20 KCAL/MOL
REMARK 924 INTRA-LIGAND FREE ENERGY PREDICTED BY IDOCK:   -1.77 KCAL/MOL
REMARK 927      BINDING AFFINITY PREDICTED BY RF-SCORE:    0.00 PKD
ROOT
HETATM    1  C   UNL     1     -12.543  15.311  65.808  1.00  0.00     0.874 C  
HETATM    2  C   UNL     1     -13.013  13.906  65.476  1.00  0.00    -0.375 C  
ENDROOT
BRANCH   2   3
HETATM    3  C   UNL     1     -12.184  13.091  64.487  1.00  0.00    -0.416 C  
HETATM    4  O   UNL     1     -12.679  12.547  63.505  1.00  0.00    -0.722 OA 
BRANCH   3   5
HETATM    5  O   UNL     1     -10.856  13.139  64.753  1.00  0.00    -0.315 OA 
BRANCH   5   6
HETATM    6  C   UNL     1     -10.263  12.047  65.524  1.00  0.00    -0.258 C  
HETATM    7  C   UNL     1     -10.125  10.814  64.558  1.00  0.00    -0.415 C  
HETATM    8  C   UNL     1      -9.537   9.569  65.219  1.00  0.00    -0.314 C  
HETATM    9  C   UNL     1      -9.323  11.130  63.294  1.00  0.00    -0.307 C  
BRANCH   6  10
HETATM   10  O   UNL     1     -10.967  11.683  66.751  1.00  0.00    -0.264 OA 
BRANCH  10  11
HETATM   11  P   UNL     1     -10.356  12.260  68.189  1.00  0.00    -0.224 P  
HETATM   12  O   UNL     1     -11.754  12.742  68.645  1.00  0.00    -0.288 OA 
BRANCH  11  13
HETATM   13  C   UNL     1      -9.825  14.108  67.779  1.00  0.00    -0.231 C  
BRANCH  13  14
HETATM   14  C   UNL     1      -8.629  14.570  68.618  1.00  0.00    -0.168 C  
BRANCH  14  15
HETATM   15  C   UNL     1      -8.726  16.007  69.099  1.00  0.00    -0.248 C  
BRANCH  15  16
HETATM   16  C   UNL     1     -10.070  16.601  68.648  1.00  0.00    -0.270 C  
BRANCH  16  17
HETATM   17  C   UNL     1      -9.860  17.925  67.968  1.00  0.00    -0.320 A  
HETATM   18  C   UNL     1      -8.650  18.617  68.114  1.00  0.00    -0.332 A  
HETATM   19  C   UNL     1     -10.855  18.446  67.134  1.00  0.00    -0.271 A  
HETATM   20  C   UNL     1      -9.437  20.329  66.600  1.00  0.00    -0.487 A  
HETATM   21  C   UNL     1      -8.445  19.822  67.433  1.00  0.00    -0.360 A  
HETATM   22  C   UNL     1     -10.638  19.642  66.450  1.00  0.00    -0.592 A  
ENDBRANCH  16  17
ENDBRANCH  15  16
ENDBRANCH  14  15
ENDBRANCH  13  14
ENDBRANCH  11  13
BRANCH  11  23
HETATM   23  C   UNL     1      -8.702  11.690  67.650  1.00  0.00    -0.156 C  
BRANCH  23  24
HETATM   24  C   UNL     1      -7.821  11.139  68.787  1.00  0.00    -0.142 C  
HETATM   25  C   UNL     1      -7.351   9.559  70.675  1.00  0.00    -0.120 C  
HETATM   26  O   UNL     1      -6.793  11.746  69.113  1.00  0.00    -0.100 OA 
HETATM   27  N   UNL     1      -8.084   9.958  69.447  1.00  0.00    -0.125 N  
HETATM   28  C   UNL     1      -5.875   9.090  70.551  1.00  0.00    -0.036 C  
HETATM   29  O   UNL     1      -5.345   8.291  71.316  1.00  0.00    -0.032 OA 
HETATM   30  C   UNL     1      -8.860   8.827  68.978  1.00  0.00    -0.137 C  
HETATM   31  C   UNL     1      -9.274   8.046  70.238  1.00  0.00    -0.155 C  
HETATM   32  O   UNL     1      -5.153   9.730  69.605  1.00  0.00    -0.034 OA 
HETATM   33  C   UNL     1      -8.193   8.417  71.275  1.00  0.00    -0.161 C  
BRANCH  31  34
HETATM   34  C   UNL     1     -10.711   8.325  70.778  1.00  0.00    -0.244 C  
HETATM   35  C   UNL     1     -11.447   5.905  70.995  1.00  0.00    -0.139 C  
HETATM   36  C   UNL     1     -11.462   5.986  72.517  1.00  0.00    -0.336 C  
HETATM   37  C   UNL     1     -10.588   7.114  73.062  1.00  0.00    -0.346 C  
HETATM   38  C   UNL     1     -11.754   7.267  70.381  1.00  0.00    -0.219 C  
HETATM   39  C   UNL     1     -10.758   8.446  72.322  1.00  0.00    -0.417 C  
ENDBRANCH  31  34
ENDBRANCH  23  24
ENDBRANCH  11  23
ENDBRANCH  10  11
ENDBRANCH   6  10
ENDBRANCH   5   6
ENDBRANCH   3   5
ENDBRANCH   2   3
TORSDOF 13
ENDMDL
MODEL      117
REMARK 921   NORMALIZED FREE ENERGY PREDICTED BY IDOCK:   -4.81 KCAL/MOL
REMARK 922        TOTAL FREE ENERGY PREDICTED BY IDOCK:  -10.93 KCAL/MOL
REMARK 923 INTER-LIGAND FREE ENERGY PREDICTED BY IDOCK:   -8.80 KCAL/MOL
REMARK 924 INTRA-LIGAND FREE ENERGY PREDICTED BY IDOCK:   -2.13 KCAL/MOL
REMARK 927      BINDING AFFINITY PREDICTED BY RF-SCORE:    0.00 PKD
ROOT
HETATM    1  C   UNL     1     -10.594  17.608  67.808  1.00  0.00    -0.380 C  
HETATM    2  C   UNL     1     -10.351  16.254  67.168  1.00  0.00    -0.285 C  
ENDROOT
BRANCH   2   3
HETATM    3  C   UNL     1     -10.545  16.133  65.659  1.00  0.00    -0.363 C  
HETATM    4  O   UNL     1     -11.127  16.988  64.999  1.00  0.00    -0.503 OA 
BRANCH   3   5
HETATM    5  O   UNL     1      -9.911  15.055  65.134  1.00  0.00    -0.293 OA 
BRANCH   5   6
HETATM    6  C   UNL     1     -10.455  13.727  65.413  1.00  0.00    -0.331 C  
HETATM    7  C   UNL     1     -11.932  13.705  64.873  1.00  0.00    -0.410 C  
HETATM    8  C   UNL     1     -12.660  12.382  65.107  1.00  0.00    -0.215 C  
HETATM    9  C   UNL     1     -12.034  14.072  63.391  1.00  0.00     0.228 C  
BRANCH   6  10
HETATM   10  O   UNL     1     -10.394  13.296  66.807  1.00  0.00    -0.253 OA 
BRANCH  10  11
HETATM   11  P   UNL     1      -9.265  12.138  67.205  1.00  0.00    -0.199 P  
HETATM   12  O   UNL     1      -8.104  13.152  67.063  1.00  0.00    -0.132 OA 
BRANCH  11  13
HETATM   13  C   UNL     1      -8.791  11.316  65.484  1.00  0.00    -0.088 C  
BRANCH  13  14
HETATM   14  C   UNL     1      -9.465   9.955  65.283  1.00  0.00    -0.331 C  
BRANCH  14  15
HETATM   15  C   UNL     1      -8.494   8.802  65.102  1.00  0.00    -0.192 C  
BRANCH  15  16
HETATM   16  C   UNL     1      -7.116   9.210  65.647  1.00  0.00    -0.082 C  
BRANCH  16  17
HETATM   17  C   UNL     1      -6.854   8.545  66.969  1.00  0.00    -0.067 A  
HETATM   18  C   UNL     1      -6.849   7.149  67.076  1.00  0.00    -0.072 A  
HETATM   19  C   UNL     1      -6.550   9.323  68.093  1.00  0.00    -0.059 A  
HETATM   20  C   UNL     1      -6.242   7.319  69.409  1.00  0.00    -0.031 A  
HETATM   21  C   UNL     1      -6.550   6.540  68.300  1.00  0.00    -0.059 A  
HETATM   22  C   UNL     1      -6.242   8.708  69.306  1.00  0.00    -0.042 A  
ENDBRANCH  16  17
ENDBRANCH  15  16
ENDBRANCH  14  15
ENDBRANCH  13  14
ENDBRANCH  11  13
BRANCH  11  23
HETATM   23  C   UNL     1     -10.638  10.939  67.374  1.00  0.00    -0.243 C  
BRANCH  23  24
HETATM   24  C   UNL     1     -11.611  11.249  68.526  1.00  0.00    -0.315 C  
HETATM   25  C   UNL     1     -12.721  10.715  70.709  1.00  0.00    -0.378 C  
HETATM   26  O   UNL     1     -12.389  12.207  68.429  1.00  0.00    -0.224 OA 
HETATM   27  N   UNL     1     -11.638  10.541  69.707  1.00  0.00    -0.278 N  
HETATM   28  C   UNL     1     -12.758  12.015  71.558  1.00  0.00    -0.255 C  
HETATM   29  O   UNL     1     -13.220  12.077  72.693  1.00  0.00    -0.080 OA 
HETATM   30  C   UNL     1     -10.575   9.755  70.302  1.00  0.00    -0.292 C  
HETATM   31  C   UNL     1     -11.261   8.786  71.282  1.00  0.00    -0.352 C  
HETATM   32  O   UNL     1     -12.360  13.130  70.908  1.00  0.00    -0.364 OA 
HETATM   33  C   UNL     1     -12.578   9.503  71.650  1.00  0.00    -0.476 C  
BRANCH  31  34
HETATM   34  C   UNL     1     -11.520   7.341  70.753  1.00  0.00    -0.328 C  
HETATM   35  C   UNL     1      -9.291   6.342  71.444  1.00  0.00    -0.157 C  
HETATM   36  C   UNL     1      -9.947   5.470  72.510  1.00  0.00    -0.198 C  
HETATM   37  C   UNL     1     -11.309   5.998  72.955  1.00  0.00    -0.177 C  
HETATM   38  C   UNL     1     -10.254   6.599  70.291  1.00  0.00    -0.215 C  
HETATM   39  C   UNL     1     -12.216   6.435  71.799  1.00  0.00    -0.312 C  
ENDBRANCH  31  34
ENDBRANCH  23  24
ENDBRANCH  11  23
ENDBRANCH  10  11
ENDBRANCH   6  10
ENDBRANCH   5   6
ENDBRANCH   3   5
ENDBRANCH   2   3
TORSDOF 13
ENDMDL
MODEL      118
REMARK 921   NORMALIZED FREE ENERGY PREDICTED BY IDOCK:   -4.80 KCAL/MOL
REMARK 922        TOTAL FREE ENERGY PREDICTED BY IDOCK:  -10.91 KCAL/MOL
REMARK 923 INTER-LIGAND FREE ENERGY PREDICTED BY IDOCK:  -10.44 KCAL/MOL
REMARK 924 INTRA-LIGAND FREE ENERGY PREDICTED BY IDOCK:   -0.47 KCAL/MOL
REMARK 927      BINDING AFFINITY PREDICTED BY RF-SCORE:    0.00 PKD
ROOT
HETATM    1  C   UNL     1      -9.604  10.855  63.054  1.00  0.00    -0.382 C  
HETATM    2  C   UNL     1      -9.482  10.205  64.420  1.00  0.00    -0.368 C  
ENDROOT
BRANCH   2   3
HETATM    3  C   UNL     1      -8.091  10.103  65.040  1.00  0.00    -0.149 C  
HETATM    4  O   UNL     1      -7.077   9.973  64.363  1.00  0.00    -0.131 OA 
BRANCH   3   5
HETATM    5  O   UNL     1      -8.102  10.288  66.383  1.00  0.00    -0.116 OA 
BRANCH   5   6
HETATM    6  C   UNL     1      -8.527  11.588  66.901  1.00  0.00    -0.165 C  
HETATM    7  C   UNL     1      -7.388  12.106  67.853  1.00  0.00    -0.108 C  
HETATM    8  C   UNL     1      -7.686  13.456  68.502  1.00  0.00    -0.124 C  
HETATM    9  C   UNL     1      -6.021  12.175  67.171  1.00  0.00    -0.143 C  
BRANCH   6  10
HETATM   10  O   UNL     1      -9.826  11.611  67.567  1.00  0.00    -0.185 OA 
BRANCH  10  11
HETATM   11  P   UNL     1     -10.044  10.588  68.864  1.00  0.00    -0.221 P  
HETATM   12  O   UNL     1      -8.573  10.112  68.797  1.00  0.00    -0.119 OA 
BRANCH  11  13
HETATM   13  C   UNL     1     -10.652   8.904  68.052  1.00  0.00    -0.168 C  
BRANCH  13  14
HETATM   14  C   UNL     1      -9.525   7.871  67.943  1.00  0.00    -0.160 C  
BRANCH  14  15
HETATM   15  C   UNL     1      -9.733   6.634  68.799  1.00  0.00    -0.130 C  
BRANCH  15  16
HETATM   16  C   UNL     1     -11.086   6.740  69.521  1.00  0.00    -0.324 C  
BRANCH  16  17
HETATM   17  C   UNL     1     -10.888   6.763  71.011  1.00  0.00    -0.280 A  
HETATM   18  C   UNL     1     -10.818   5.569  71.739  1.00  0.00    -0.277 A  
HETATM   19  C   UNL     1     -10.711   7.984  71.672  1.00  0.00    -0.284 A  
HETATM   20  C   UNL     1     -10.397   6.818  73.766  1.00  0.00    -0.397 A  
HETATM   21  C   UNL     1     -10.580   5.601  73.118  1.00  0.00    -0.277 A  
HETATM   22  C   UNL     1     -10.462   8.006  73.044  1.00  0.00    -0.341 A  
ENDBRANCH  16  17
ENDBRANCH  15  16
ENDBRANCH  14  15
ENDBRANCH  13  14
ENDBRANCH  11  13
BRANCH  11  23
HETATM   23  C   UNL     1     -11.783  11.152  68.944  1.00  0.00    -0.337 C  
BRANCH  23  24
HETATM   24  C   UNL     1     -12.081  12.125  70.099  1.00  0.00    -0.290 C  
HETATM   25  C   UNL     1     -12.114  14.407  71.137  1.00  0.00    -0.341 C  
HETATM   26  O   UNL     1     -12.425  11.680  71.202  1.00  0.00    -0.364 OA 
HETATM   27  N   UNL     1     -12.037  13.496  69.966  1.00  0.00    -0.339 N  
HETATM   28  C   UNL     1     -13.475  14.582  71.865  1.00  0.00    -0.378 C  
HETATM   29  O   UNL     1     -13.808  15.605  72.454  1.00  0.00    -0.515 OA 
HETATM   30  C   UNL     1     -12.175  14.281  68.755  1.00  0.00    -0.190 C  
HETATM   31  C   UNL     1     -11.539  15.649  69.061  1.00  0.00    -0.396 C  
HETATM   32  O   UNL     1     -14.236  13.468  71.924  1.00  0.00    -0.290 OA 
HETATM   33  C   UNL     1     -11.653  15.774  70.596  1.00  0.00    -0.416 C  
BRANCH  31  34
HETATM   34  C   UNL     1     -10.071  15.849  68.573  1.00  0.00    -0.217 C  
HETATM   35  C   UNL     1     -10.606  16.352  66.143  1.00  0.00    -0.259 C  
HETATM   36  C   UNL     1     -10.168  17.805  66.287  1.00  0.00    -0.364 C  
HETATM   37  C   UNL     1     -10.194  18.295  67.734  1.00  0.00    -0.400 C  
HETATM   38  C   UNL     1      -9.832  15.458  67.105  1.00  0.00    -0.221 C  
HETATM   39  C   UNL     1      -9.579  17.310  68.736  1.00  0.00    -0.269 C  
ENDBRANCH  31  34
ENDBRANCH  23  24
ENDBRANCH  11  23
ENDBRANCH  10  11
ENDBRANCH   6  10
ENDBRANCH   5   6
ENDBRANCH   3   5
ENDBRANCH   2   3
TORSDOF 13
ENDMDL
MODEL      119
REMARK 921   NORMALIZED FREE ENERGY PREDICTED BY IDOCK:   -4.79 KCAL/MOL
REMARK 922        TOTAL FREE ENERGY PREDICTED BY IDOCK:  -10.90 KCAL/MOL
REMARK 923 INTER-LIGAND FREE ENERGY PREDICTED BY IDOCK:   -8.07 KCAL/MOL
REMARK 924 INTRA-LIGAND FREE ENERGY PREDICTED BY IDOCK:   -2.83 KCAL/MOL
REMARK 927      BINDING AFFINITY PREDICTED BY RF-SCORE:    0.00 PKD
ROOT
HETATM    1  C   UNL     1     -10.265   7.608  66.910  1.00  0.00    -0.365 C  
HETATM    2  C   UNL     1      -9.480   8.476  65.944  1.00  0.00    -0.207 C  
ENDROOT
BRANCH   2   3
HETATM    3  C   UNL     1      -8.476   9.467  66.530  1.00  0.00    -0.133 C  
HETATM    4  O   UNL     1      -7.509   9.108  67.194  1.00  0.00    -0.086 OA 
BRANCH   3   5
HETATM    5  O   UNL     1      -8.711  10.743  66.139  1.00  0.00    -0.166 OA 
BRANCH   5   6
HETATM    6  C   UNL     1     -10.066  11.275  66.286  1.00  0.00    -0.230 C  
HETATM    7  C   UNL     1     -10.404  12.061  64.967  1.00  0.00    -0.318 C  
HETATM    8  C   UNL     1     -11.790  12.705  64.966  1.00  0.00    -0.439 C  
HETATM    9  C   UNL     1     -10.252  11.209  63.706  1.00  0.00    -0.434 C  
BRANCH   6  10
HETATM   10  O   UNL     1     -10.298  12.099  67.469  1.00  0.00    -0.202 OA 
BRANCH  10  11
HETATM   11  P   UNL     1     -11.471  11.596  68.539  1.00  0.00    -0.343 P  
HETATM   12  O   UNL     1     -12.526  12.528  67.895  1.00  0.00    -0.068 OA 
BRANCH  11  13
HETATM   13  C   UNL     1     -11.287  12.820  70.066  1.00  0.00     0.135 C  
BRANCH  13  14
HETATM   14  C   UNL     1     -12.370  13.903  70.078  1.00  0.00    -0.378 C  
BRANCH  14  15
HETATM   15  C   UNL     1     -11.830  15.321  70.147  1.00  0.00    -0.356 C  
BRANCH  15  16
HETATM   16  C   UNL     1     -11.878  15.949  68.745  1.00  0.00    -0.277 C  
BRANCH  16  17
HETATM   17  C   UNL     1     -10.574  15.741  68.028  1.00  0.00    -0.279 A  
HETATM   18  C   UNL     1     -10.545  15.565  66.639  1.00  0.00    -0.307 A  
HETATM   19  C   UNL     1      -9.371  15.784  68.743  1.00  0.00    -0.218 A  
HETATM   20  C   UNL     1      -8.129  15.477  66.691  1.00  0.00    -0.189 A  
HETATM   21  C   UNL     1      -9.320  15.426  65.975  1.00  0.00    -0.364 A  
HETATM   22  C   UNL     1      -8.155  15.657  68.072  1.00  0.00    -0.140 A  
ENDBRANCH  16  17
ENDBRANCH  15  16
ENDBRANCH  14  15
ENDBRANCH  13  14
ENDBRANCH  11  13
BRANCH  11  23
HETATM   23  C   UNL     1     -10.224  10.494  69.301  1.00  0.00    -0.225 C  
BRANCH  23  24
HETATM   24  C   UNL     1     -10.820   9.337  70.125  1.00  0.00    -0.242 C  
HETATM   25  C   UNL     1     -10.751   7.028  71.097  1.00  0.00    -0.230 C  
HETATM   26  O   UNL     1     -11.988   9.411  70.527  1.00  0.00    -0.216 OA 
HETATM   27  N   UNL     1     -10.103   8.221  70.495  1.00  0.00    -0.194 N  
HETATM   28  C   UNL     1     -11.261   7.110  72.562  1.00  0.00    -0.290 C  
HETATM   29  O   UNL     1     -11.327   6.146  73.318  1.00  0.00    -0.131 OA 
HETATM   30  C   UNL     1      -8.665   8.086  70.624  1.00  0.00    -0.131 C  
HETATM   31  C   UNL     1      -8.371   6.577  70.536  1.00  0.00    -0.133 C  
HETATM   32  O   UNL     1     -11.765   8.310  72.922  1.00  0.00    -0.348 OA 
HETATM   33  C   UNL     1      -9.688   5.917  70.996  1.00  0.00    -0.209 C  
BRANCH  31  34
HETATM   34  C   UNL     1      -7.917   6.046  69.141  1.00  0.00    -0.103 C  
HETATM   35  C   UNL     1      -5.913   4.710  69.945  1.00  0.00    -0.018 C  
HETATM   36  C   UNL     1      -6.588   3.385  69.610  1.00  0.00    -0.033 C  
HETATM   37  C   UNL     1      -8.110   3.494  69.535  1.00  0.00    -0.064 C  
HETATM   38  C   UNL     1      -6.401   5.814  69.014  1.00  0.00    -0.040 C  
HETATM   39  C   UNL     1      -8.609   4.715  68.752  1.00  0.00    -0.096 C  
ENDBRANCH  31  34
ENDBRANCH  23  24
ENDBRANCH  11  23
ENDBRANCH  10  11
ENDBRANCH   6  10
ENDBRANCH   5   6
ENDBRANCH   3   5
ENDBRANCH   2   3
TORSDOF 13
ENDMDL
MODEL      120
REMARK 921   NORMALIZED FREE ENERGY PREDICTED BY IDOCK:   -4.79 KCAL/MOL
REMARK 922        TOTAL FREE ENERGY PREDICTED BY IDOCK:  -10.89 KCAL/MOL
REMARK 923 INTER-LIGAND FREE ENERGY PREDICTED BY IDOCK:   -7.89 KCAL/MOL
REMARK 924 INTRA-LIGAND FREE ENERGY PREDICTED BY IDOCK:   -3.01 KCAL/MOL
REMARK 927      BINDING AFFINITY PREDICTED BY RF-SCORE:    0.00 PKD
ROOT
HETATM    1  C   UNL     1      -7.412   7.140  71.776  1.00  0.00    -0.086 C  
HETATM    2  C   UNL     1      -8.304   7.056  70.551  1.00  0.00    -0.132 C  
ENDROOT
BRANCH   2   3
HETATM    3  C   UNL     1      -8.869   8.359  69.990  1.00  0.00    -0.137 C  
HETATM    4  O   UNL     1      -8.486   9.460  70.371  1.00  0.00    -0.184 OA 
BRANCH   3   5
HETATM    5  O   UNL     1      -9.733   8.156  68.965  1.00  0.00    -0.159 OA 
BRANCH   5   6
HETATM    6  C   UNL     1      -9.199   8.121  67.604  1.00  0.00    -0.137 C  
HETATM    7  C   UNL     1      -9.274   6.630  67.111  1.00  0.00    -0.134 C  
HETATM    8  C   UNL     1      -8.729   6.414  65.700  1.00  0.00    -0.108 C  
HETATM    9  C   UNL     1     -10.684   6.042  67.194  1.00  0.00    -0.409 C  
BRANCH   6  10
HETATM   10  O   UNL     1      -7.856   8.668  67.436  1.00  0.00    -0.097 OA 
BRANCH  10  11
HETATM   11  P   UNL     1      -7.658   9.899  66.330  1.00  0.00    -0.106 P  
HETATM   12  O   UNL     1      -6.453   9.181  65.676  1.00  0.00    -0.066 OA 
BRANCH  11  13
HETATM   13  C   UNL     1      -6.450  11.163  67.228  1.00  0.00    -0.079 C  
BRANCH  13  14
HETATM   14  C   UNL     1      -7.181  12.046  68.243  1.00  0.00    -0.090 C  
BRANCH  14  15
HETATM   15  C   UNL     1      -6.262  12.897  69.102  1.00  0.00    -0.101 C  
BRANCH  15  16
HETATM   16  C   UNL     1      -5.406  13.792  68.192  1.00  0.00    -0.114 C  
BRANCH  16  17
HETATM   17  C   UNL     1      -5.898  15.212  68.233  1.00  0.00    -0.123 A  
HETATM   18  C   UNL     1      -5.707  15.999  69.376  1.00  0.00    -0.125 A  
HETATM   19  C   UNL     1      -6.500  15.774  67.102  1.00  0.00    -0.041 A  
HETATM   20  C   UNL     1      -6.711  17.889  68.252  1.00  0.00    -0.205 A  
HETATM   21  C   UNL     1      -6.122  17.336  69.383  1.00  0.00    -0.236 A  
HETATM   22  C   UNL     1      -6.900  17.110  67.114  1.00  0.00    -0.211 A  
ENDBRANCH  16  17
ENDBRANCH  15  16
ENDBRANCH  14  15
ENDBRANCH  13  14
ENDBRANCH  11  13
BRANCH  11  23
HETATM   23  C   UNL     1      -9.083  10.747  67.104  1.00  0.00    -0.144 C  
BRANCH  23  24
HETATM   24  C   UNL     1     -10.202  11.132  66.118  1.00  0.00    -0.244 C  
HETATM   25  C   UNL     1     -11.953  12.694  65.236  1.00  0.00    -0.439 C  
HETATM   26  O   UNL     1     -10.630  10.290  65.318  1.00  0.00    -0.147 OA 
HETATM   27  N   UNL     1     -10.736  12.400  66.034  1.00  0.00    -0.255 N  
HETATM   28  C   UNL     1     -11.852  12.700  63.685  1.00  0.00    -0.530 C  
HETATM   29  O   UNL     1     -12.562  13.385  62.957  1.00  0.00    -0.669 OA 
HETATM   30  C   UNL     1     -10.128  13.653  66.438  1.00  0.00    -0.295 C  
HETATM   31  C   UNL     1     -11.289  14.646  66.625  1.00  0.00    -0.358 C  
HETATM   32  O   UNL     1     -11.004  11.785  63.168  1.00  0.00    -0.310 OA 
HETATM   33  C   UNL     1     -12.405  14.087  65.716  1.00  0.00    -0.506 C  
BRANCH  31  34
HETATM   34  C   UNL     1     -11.788  14.852  68.089  1.00  0.00    -0.307 C  
HETATM   35  C   UNL     1      -9.512  14.798  69.214  1.00  0.00    -0.061 C  
HETATM   36  C   UNL     1      -9.589  16.279  69.570  1.00  0.00    -0.102 C  
HETATM   37  C   UNL     1     -10.565  17.054  68.687  1.00  0.00    -0.362 C  
HETATM   38  C   UNL     1     -10.907  14.185  69.159  1.00  0.00    -0.254 C  
HETATM   39  C   UNL     1     -11.910  16.348  68.476  1.00  0.00     0.176 C  
ENDBRANCH  31  34
ENDBRANCH  23  24
ENDBRANCH  11  23
ENDBRANCH  10  11
ENDBRANCH   6  10
ENDBRANCH   5   6
ENDBRANCH   3   5
ENDBRANCH   2   3
TORSDOF 13
ENDMDL
MODEL      121
REMARK 921   NORMALIZED FREE ENERGY PREDICTED BY IDOCK:   -4.79 KCAL/MOL
REMARK 922        TOTAL FREE ENERGY PREDICTED BY IDOCK:  -10.89 KCAL/MOL
REMARK 923 INTER-LIGAND FREE ENERGY PREDICTED BY IDOCK:   -7.88 KCAL/MOL
REMARK 924 INTRA-LIGAND FREE ENERGY PREDICTED BY IDOCK:   -3.00 KCAL/MOL
REMARK 927      BINDING AFFINITY PREDICTED BY RF-SCORE:    0.00 PKD
ROOT
HETATM    1  C   UNL     1     -10.896   5.951  72.953  1.00  0.00    -0.293 C  
HETATM    2  C   UNL     1     -12.042   6.359  72.045  1.00  0.00    -0.353 C  
ENDROOT
BRANCH   2   3
HETATM    3  C   UNL     1     -11.788   7.475  71.034  1.00  0.00    -0.293 C  
HETATM    4  O   UNL     1     -11.497   8.617  71.375  1.00  0.00    -0.259 OA 
BRANCH   3   5
HETATM    5  O   UNL     1     -11.806   7.035  69.752  1.00  0.00    -0.082 OA 
BRANCH   5   6
HETATM    6  C   UNL     1     -10.594   7.190  68.949  1.00  0.00    -0.201 C  
HETATM    7  C   UNL     1      -9.543   6.149  69.484  1.00  0.00    -0.165 C  
HETATM    8  C   UNL     1      -8.199   6.195  68.760  1.00  0.00    -0.108 C  
HETATM    9  C   UNL     1     -10.065   4.711  69.472  1.00  0.00    -0.212 C  
BRANCH   6  10
HETATM   10  O   UNL     1     -10.031   8.536  68.904  1.00  0.00    -0.179 OA 
BRANCH  10  11
HETATM   11  P   UNL     1     -10.175   9.383  67.477  1.00  0.00    -0.262 P  
HETATM   12  O   UNL     1      -9.201   8.422  66.753  1.00  0.00    -0.152 OA 
BRANCH  11  13
HETATM   13  C   UNL     1      -8.772  10.757  67.589  1.00  0.00    -0.126 C  
BRANCH  13  14
HETATM   14  C   UNL     1      -7.364  10.154  67.559  1.00  0.00    -0.089 C  
BRANCH  14  15
HETATM   15  C   UNL     1      -6.476  10.594  68.709  1.00  0.00    -0.051 C  
BRANCH  15  16
HETATM   16  C   UNL     1      -7.299  10.607  70.007  1.00  0.00     0.013 C  
BRANCH  16  17
HETATM   17  C   UNL     1      -7.089   9.334  70.778  1.00  0.00    -0.121 A  
HETATM   18  C   UNL     1      -8.098   8.829  71.608  1.00  0.00    -0.153 A  
HETATM   19  C   UNL     1      -5.899   8.613  70.623  1.00  0.00    -0.032 A  
HETATM   20  C   UNL     1      -6.730   6.901  72.113  1.00  0.00    -0.058 A  
HETATM   21  C   UNL     1      -7.912   7.615  72.279  1.00  0.00    -0.123 A  
HETATM   22  C   UNL     1      -5.727   7.399  71.287  1.00  0.00    -0.035 A  
ENDBRANCH  16  17
ENDBRANCH  15  16
ENDBRANCH  14  15
ENDBRANCH  13  14
ENDBRANCH  11  13
BRANCH  11  23
HETATM   23  C   UNL     1     -11.325  10.520  68.333  1.00  0.00    -0.262 C  
BRANCH  23  24
HETATM   24  C   UNL     1     -11.450  11.908  67.676  1.00  0.00    -0.317 C  
HETATM   25  C   UNL     1     -11.939  14.365  67.737  1.00  0.00    -0.333 C  
HETATM   26  O   UNL     1     -11.362  12.013  66.446  1.00  0.00    -0.325 OA 
HETATM   27  N   UNL     1     -11.605  13.075  68.392  1.00  0.00    -0.312 N  
HETATM   28  C   UNL     1     -10.845  15.092  66.908  1.00  0.00    -0.317 C  
HETATM   29  O   UNL     1     -10.792  16.309  66.764  1.00  0.00    -0.253 OA 
HETATM   30  C   UNL     1     -11.239  13.332  69.771  1.00  0.00     0.039 C  
HETATM   31  C   UNL     1     -12.077  14.545  70.213  1.00  0.00    -0.386 C  
HETATM   32  O   UNL     1     -10.010  14.276  66.229  1.00  0.00    -0.284 OA 
HETATM   33  C   UNL     1     -12.387  15.282  68.892  1.00  0.00    -0.007 C  
BRANCH  31  34
HETATM   34  C   UNL     1     -13.377  14.226  71.014  1.00  0.00    -0.326 C  
HETATM   35  C   UNL     1     -12.295  13.969  73.296  1.00  0.00     0.343 C  
HETATM   36  C   UNL     1     -12.952  15.243  73.815  1.00  0.00    -0.486 C  
HETATM   37  C   UNL     1     -13.376  16.193  72.697  1.00  0.00    -0.254 C  
HETATM   38  C   UNL     1     -13.165  13.310  72.231  1.00  0.00    -0.567 C  
HETATM   39  C   UNL     1     -14.091  15.501  71.530  1.00  0.00    -0.502 C  
ENDBRANCH  31  34
ENDBRANCH  23  24
ENDBRANCH  11  23
ENDBRANCH  10  11
ENDBRANCH   6  10
ENDBRANCH   5   6
ENDBRANCH   3   5
ENDBRANCH   2   3
TORSDOF 13
ENDMDL
MODEL      122
REMARK 921   NORMALIZED FREE ENERGY PREDICTED BY IDOCK:   -4.78 KCAL/MOL
REMARK 922        TOTAL FREE ENERGY PREDICTED BY IDOCK:  -10.88 KCAL/MOL
REMARK 923 INTER-LIGAND FREE ENERGY PREDICTED BY IDOCK:   -8.63 KCAL/MOL
REMARK 924 INTRA-LIGAND FREE ENERGY PREDICTED BY IDOCK:   -2.24 KCAL/MOL
REMARK 927      BINDING AFFINITY PREDICTED BY RF-SCORE:    0.00 PKD
ROOT
HETATM    1  C   UNL     1     -12.842  10.254  70.823  1.00  0.00    -0.427 C  
HETATM    2  C   UNL     1     -11.493  10.800  70.392  1.00  0.00    -0.397 C  
ENDROOT
BRANCH   2   3
HETATM    3  C   UNL     1     -10.574   9.880  69.591  1.00  0.00    -0.250 C  
HETATM    4  O   UNL     1     -10.961   9.259  68.606  1.00  0.00    -0.128 OA 
BRANCH   3   5
HETATM    5  O   UNL     1      -9.288   9.923  70.018  1.00  0.00    -0.227 OA 
BRANCH   5   6
HETATM    6  C   UNL     1      -8.275  10.465  69.113  1.00  0.00    -0.157 C  
HETATM    7  C   UNL     1      -6.877  10.256  69.800  1.00  0.00    -0.120 C  
HETATM    8  C   UNL     1      -5.699  10.793  68.987  1.00  0.00    -0.040 C  
HETATM    9  C   UNL     1      -6.601   8.797  70.168  1.00  0.00    -0.039 C  
BRANCH   6  10
HETATM   10  O   UNL     1      -8.465  11.855  68.708  1.00  0.00    -0.087 OA 
BRANCH  10  11
HETATM   11  P   UNL     1      -8.212  12.231  67.105  1.00  0.00    -0.126 P  
HETATM   12  O   UNL     1      -7.483  13.545  67.478  1.00  0.00    -0.163 OA 
BRANCH  11  13
HETATM   13  C   UNL     1      -9.818  13.241  66.589  1.00  0.00    -0.276 C  
BRANCH  13  14
HETATM   14  C   UNL     1     -10.947  13.103  67.616  1.00  0.00    -0.282 C  
BRANCH  14  15
HETATM   15  C   UNL     1     -10.873  14.101  68.758  1.00  0.00    -0.271 C  
BRANCH  15  16
HETATM   16  C   UNL     1     -12.284  14.629  69.061  1.00  0.00    -0.199 C  
BRANCH  16  17
HETATM   17  C   UNL     1     -12.478  14.796  70.542  1.00  0.00    -0.411 A  
HETATM   18  C   UNL     1     -11.956  15.912  71.207  1.00  0.00    -0.493 A  
HETATM   19  C   UNL     1     -13.238  13.862  71.255  1.00  0.00    -0.352 A  
HETATM   20  C   UNL     1     -12.951  15.156  73.276  1.00  0.00    -0.645 A  
HETATM   21  C   UNL     1     -12.189  16.085  72.577  1.00  0.00    -0.612 A  
HETATM   22  C   UNL     1     -13.475  14.048  72.617  1.00  0.00    -0.650 A  
ENDBRANCH  16  17
ENDBRANCH  15  16
ENDBRANCH  14  15
ENDBRANCH  13  14
ENDBRANCH  11  13
BRANCH  11  23
HETATM   23  C   UNL     1      -9.074  10.678  66.663  1.00  0.00    -0.160 C  
BRANCH  23  24
HETATM   24  C   UNL     1      -8.281   9.762  65.713  1.00  0.00    -0.122 C  
HETATM   25  C   UNL     1      -7.331   7.544  65.035  1.00  0.00    -0.078 C  
HETATM   26  O   UNL     1      -7.651  10.257  64.770  1.00  0.00    -0.143 OA 
HETATM   27  N   UNL     1      -8.268   8.389  65.819  1.00  0.00    -0.123 N  
HETATM   28  C   UNL     1      -7.578   7.363  63.512  1.00  0.00    -0.121 C  
HETATM   29  O   UNL     1      -7.248   6.365  62.880  1.00  0.00    -0.049 OA 
HETATM   30  C   UNL     1      -9.255   7.532  66.446  1.00  0.00    -0.167 C  
HETATM   31  C   UNL     1      -8.535   6.207  66.751  1.00  0.00    -0.111 C  
HETATM   32  O   UNL     1      -8.070   8.452  62.883  1.00  0.00    -0.163 OA 
HETATM   33  C   UNL     1      -7.385   6.165  65.721  1.00  0.00    -0.080 C  
BRANCH  31  34
HETATM   34  C   UNL     1      -8.009   6.030  68.209  1.00  0.00    -0.106 C  
HETATM   35  C   UNL     1     -10.250   5.556  69.303  1.00  0.00    -0.315 C  
HETATM   36  C   UNL     1      -9.872   4.106  69.584  1.00  0.00    -0.208 C  
HETATM   37  C   UNL     1      -8.754   3.595  68.676  1.00  0.00    -0.139 C  
HETATM   38  C   UNL     1      -9.011   6.444  69.299  1.00  0.00    -0.133 C  
HETATM   39  C   UNL     1      -7.583   4.572  68.520  1.00  0.00    -0.064 C  
ENDBRANCH  31  34
ENDBRANCH  23  24
ENDBRANCH  11  23
ENDBRANCH  10  11
ENDBRANCH   6  10
ENDBRANCH   5   6
ENDBRANCH   3   5
ENDBRANCH   2   3
TORSDOF 13
ENDMDL
MODEL      123
REMARK 921   NORMALIZED FREE ENERGY PREDICTED BY IDOCK:   -4.76 KCAL/MOL
REMARK 922        TOTAL FREE ENERGY PREDICTED BY IDOCK:  -10.84 KCAL/MOL
REMARK 923 INTER-LIGAND FREE ENERGY PREDICTED BY IDOCK:   -9.09 KCAL/MOL
REMARK 924 INTRA-LIGAND FREE ENERGY PREDICTED BY IDOCK:   -1.75 KCAL/MOL
REMARK 927      BINDING AFFINITY PREDICTED BY RF-SCORE:    0.00 PKD
ROOT
HETATM    1  C   UNL     1     -12.722  13.771  65.377  1.00  0.00    -0.513 C  
HETATM    2  C   UNL     1     -12.486  12.459  64.652  1.00  0.00    -0.500 C  
ENDROOT
BRANCH   2   3
HETATM    3  C   UNL     1     -11.144  12.262  63.950  1.00  0.00    -0.412 C  
HETATM    4  O   UNL     1     -11.046  12.179  62.731  1.00  0.00     0.119 OA 
BRANCH   3   5
HETATM    5  O   UNL     1     -10.094  12.309  64.806  1.00  0.00    -0.277 OA 
BRANCH   5   6
HETATM    6  C   UNL     1      -9.806  11.125  65.616  1.00  0.00    -0.235 C  
HETATM    7  C   UNL     1      -9.523   9.939  64.624  1.00  0.00    -0.343 C  
HETATM    8  C   UNL     1      -9.224   8.609  65.315  1.00  0.00    -0.032 C  
HETATM    9  C   UNL     1      -8.402  10.244  63.629  1.00  0.00    -0.169 C  
BRANCH   6  10
HETATM   10  O   UNL     1     -10.827  10.765  66.596  1.00  0.00    -0.237 OA 
BRANCH  10  11
HETATM   11  P   UNL     1     -10.663  11.375  68.138  1.00  0.00    -0.238 P  
HETATM   12  O   UNL     1     -12.198  11.454  68.321  1.00  0.00    -0.588 OA 
BRANCH  11  13
HETATM   13  C   UNL     1     -10.569  13.321  67.877  1.00  0.00    -0.238 C  
BRANCH  13  14
HETATM   14  C   UNL     1      -9.425  13.960  68.672  1.00  0.00    -0.123 C  
BRANCH  14  15
HETATM   15  C   UNL     1      -9.817  15.223  69.417  1.00  0.00    -0.253 C  
BRANCH  15  16
HETATM   16  C   UNL     1     -11.310  15.504  69.186  1.00  0.00    -0.333 C  
BRANCH  16  17
HETATM   17  C   UNL     1     -12.057  15.497  70.490  1.00  0.00    -0.423 A  
HETATM   18  C   UNL     1     -11.608  16.264  71.573  1.00  0.00    -0.435 A  
HETATM   19  C   UNL     1     -13.245  14.766  70.608  1.00  0.00    -0.292 A  
HETATM   20  C   UNL     1     -13.525  15.568  72.871  1.00  0.00    -0.641 A  
HETATM   21  C   UNL     1     -12.342  16.291  72.764  1.00  0.00    -0.543 A  
HETATM   22  C   UNL     1     -13.975  14.808  71.796  1.00  0.00    -0.568 A  
ENDBRANCH  16  17
ENDBRANCH  15  16
ENDBRANCH  14  15
ENDBRANCH  13  14
ENDBRANCH  11  13
BRANCH  11  23
HETATM   23  C   UNL     1      -8.848  11.280  67.921  1.00  0.00    -0.142 C  
BRANCH  23  24
HETATM   24  C   UNL     1      -8.097  10.682  69.125  1.00  0.00    -0.141 C  
HETATM   25  C   UNL     1      -7.397   8.771  70.587  1.00  0.00    -0.072 C  
HETATM   26  O   UNL     1      -7.568  11.436  69.952  1.00  0.00     0.315 OA 
HETATM   27  N   UNL     1      -7.930   9.329  69.318  1.00  0.00    -0.094 N  
HETATM   28  C   UNL     1      -5.886   8.942  70.907  1.00  0.00    -0.039 C  
HETATM   29  O   UNL     1      -5.238   8.152  71.586  1.00  0.00    -0.033 OA 
HETATM   30  C   UNL     1      -7.969   8.273  68.325  1.00  0.00    -0.119 C  
HETATM   31  C   UNL     1      -8.252   6.973  69.099  1.00  0.00    -0.122 C  
HETATM   32  O   UNL     1      -5.345  10.108  70.493  1.00  0.00    -0.043 OA 
HETATM   33  C   UNL     1      -7.730   7.268  70.522  1.00  0.00    -0.093 C  
BRANCH  31  34
HETATM   34  C   UNL     1      -9.736   6.493  69.117  1.00  0.00    -0.143 C  
HETATM   35  C   UNL     1      -9.618   5.005  67.063  1.00  0.00    -0.163 C  
HETATM   36  C   UNL     1      -9.782   3.741  67.899  1.00  0.00    -0.125 C  
HETATM   37  C   UNL     1      -9.393   3.939  69.362  1.00  0.00    -0.246 C  
HETATM   38  C   UNL     1     -10.320   6.184  67.728  1.00  0.00    -0.247 C  
HETATM   39  C   UNL     1      -9.947   5.227  69.985  1.00  0.00    -0.315 C  
ENDBRANCH  31  34
ENDBRANCH  23  24
ENDBRANCH  11  23
ENDBRANCH  10  11
ENDBRANCH   6  10
ENDBRANCH   5   6
ENDBRANCH   3   5
ENDBRANCH   2   3
TORSDOF 13
ENDMDL
MODEL      124
REMARK 921   NORMALIZED FREE ENERGY PREDICTED BY IDOCK:   -4.75 KCAL/MOL
REMARK 922        TOTAL FREE ENERGY PREDICTED BY IDOCK:  -10.83 KCAL/MOL
REMARK 923 INTER-LIGAND FREE ENERGY PREDICTED BY IDOCK:   -8.66 KCAL/MOL
REMARK 924 INTRA-LIGAND FREE ENERGY PREDICTED BY IDOCK:   -2.16 KCAL/MOL
REMARK 927      BINDING AFFINITY PREDICTED BY RF-SCORE:    0.00 PKD
ROOT
HETATM    1  C   UNL     1     -10.460  11.178  64.021  1.00  0.00    -0.447 C  
HETATM    2  C   UNL     1      -9.256  10.590  64.735  1.00  0.00    -0.266 C  
ENDROOT
BRANCH   2   3
HETATM    3  C   UNL     1      -8.658   9.300  64.180  1.00  0.00    -0.188 C  
HETATM    4  O   UNL     1      -8.541   9.093  62.977  1.00  0.00    -0.206 OA 
BRANCH   3   5
HETATM    5  O   UNL     1      -8.178   8.486  65.152  1.00  0.00    -0.135 OA 
BRANCH   5   6
HETATM    6  C   UNL     1      -8.119   8.999  66.520  1.00  0.00    -0.111 C  
HETATM    7  C   UNL     1      -6.619   9.366  66.816  1.00  0.00    -0.068 C  
HETATM    8  C   UNL     1      -6.377   9.902  68.227  1.00  0.00    -0.054 C  
HETATM    9  C   UNL     1      -6.032  10.352  65.804  1.00  0.00    -0.117 C  
BRANCH   6  10
HETATM   10  O   UNL     1      -8.663   8.120  67.551  1.00  0.00    -0.128 OA 
BRANCH  10  11
HETATM   11  P   UNL     1     -10.246   8.359  68.010  1.00  0.00    -0.196 P  
HETATM   12  O   UNL     1     -10.761   7.998  66.595  1.00  0.00    -0.215 OA 
BRANCH  11  13
HETATM   13  C   UNL     1     -10.564  10.268  67.664  1.00  0.00    -0.263 C  
BRANCH  13  14
HETATM   14  C   UNL     1     -10.113  11.153  68.831  1.00  0.00    -0.199 C  
BRANCH  14  15
HETATM   15  C   UNL     1     -10.709  12.550  68.817  1.00  0.00    -0.235 C  
BRANCH  15  16
HETATM   16  C   UNL     1     -11.930  12.569  67.883  1.00  0.00    -0.283 C  
BRANCH  16  17
HETATM   17  C   UNL     1     -11.740  13.581  66.788  1.00  0.00    -0.430 A  
HETATM   18  C   UNL     1     -10.762  14.577  66.900  1.00  0.00    -0.288 A  
HETATM   19  C   UNL     1     -12.504  13.494  65.618  1.00  0.00    -0.528 A  
HETATM   20  C   UNL     1     -11.315  15.383  64.689  1.00  0.00    -0.361 A  
HETATM   21  C   UNL     1     -10.558  15.481  65.851  1.00  0.00    -0.350 A  
HETATM   22  C   UNL     1     -12.286  14.391  64.573  1.00  0.00    -0.483 A  
ENDBRANCH  16  17
ENDBRANCH  15  16
ENDBRANCH  14  15
ENDBRANCH  13  14
ENDBRANCH  11  13
BRANCH  11  23
HETATM   23  C   UNL     1      -9.639   8.786  69.682  1.00  0.00    -0.171 C  
BRANCH  23  24
HETATM   24  C   UNL     1     -10.280   7.966  70.817  1.00  0.00    -0.194 C  
HETATM   25  C   UNL     1     -10.757   5.818  72.019  1.00  0.00    -0.233 C  
HETATM   26  O   UNL     1     -11.081   8.510  71.588  1.00  0.00    -0.253 OA 
HETATM   27  N   UNL     1      -9.974   6.646  71.066  1.00  0.00    -0.183 N  
HETATM   28  C   UNL     1     -10.602   6.078  73.543  1.00  0.00    -0.268 C  
HETATM   29  O   UNL     1     -10.749   5.214  74.401  1.00  0.00    -0.320 OA 
HETATM   30  C   UNL     1      -8.770   5.924  70.702  1.00  0.00    -0.137 C  
HETATM   31  C   UNL     1      -9.145   4.432  70.730  1.00  0.00    -0.182 C  
HETATM   32  O   UNL     1     -10.422   7.372  73.883  1.00  0.00    -0.314 OA 
HETATM   33  C   UNL     1     -10.337   4.368  71.710  1.00  0.00    -0.141 C  
BRANCH  31  34
HETATM   34  C   UNL     1      -9.496   3.785  69.354  1.00  0.00    -0.257 C  
HETATM   35  C   UNL     1      -7.350   4.410  68.150  1.00  0.00    -0.065 C  
HETATM   36  C   UNL     1      -6.893   2.956  68.088  1.00  0.00    -0.048 C  
HETATM   37  C   UNL     1      -7.563   2.076  69.142  1.00  0.00    -0.043 C  
HETATM   38  C   UNL     1      -8.872   4.496  68.142  1.00  0.00    -0.123 C  
HETATM   39  C   UNL     1      -9.075   2.296  69.267  1.00  0.00    -0.182 C  
ENDBRANCH  31  34
ENDBRANCH  23  24
ENDBRANCH  11  23
ENDBRANCH  10  11
ENDBRANCH   6  10
ENDBRANCH   5   6
ENDBRANCH   3   5
ENDBRANCH   2   3
TORSDOF 13
ENDMDL
MODEL      125
REMARK 921   NORMALIZED FREE ENERGY PREDICTED BY IDOCK:   -4.74 KCAL/MOL
REMARK 922        TOTAL FREE ENERGY PREDICTED BY IDOCK:  -10.80 KCAL/MOL
REMARK 923 INTER-LIGAND FREE ENERGY PREDICTED BY IDOCK:   -9.52 KCAL/MOL
REMARK 924 INTRA-LIGAND FREE ENERGY PREDICTED BY IDOCK:   -1.28 KCAL/MOL
REMARK 927      BINDING AFFINITY PREDICTED BY RF-SCORE:    0.00 PKD
ROOT
HETATM    1  C   UNL     1      -7.698  15.091  69.035  1.00  0.00    -0.170 C  
HETATM    2  C   UNL     1      -7.966  14.067  67.946  1.00  0.00    -0.158 C  
ENDROOT
BRANCH   2   3
HETATM    3  C   UNL     1      -7.190  12.754  67.995  1.00  0.00    -0.115 C  
HETATM    4  O   UNL     1      -6.368  12.507  68.871  1.00  0.00    -0.073 OA 
BRANCH   3   5
HETATM    5  O   UNL     1      -7.593  11.872  67.047  1.00  0.00    -0.151 OA 
BRANCH   5   6
HETATM    6  C   UNL     1      -7.213  10.468  67.200  1.00  0.00    -0.092 C  
HETATM    7  C   UNL     1      -6.472  10.039  65.882  1.00  0.00    -0.096 C  
HETATM    8  C   UNL     1      -6.022   8.579  65.868  1.00  0.00    -0.048 C  
HETATM    9  C   UNL     1      -5.273  10.931  65.551  1.00  0.00    -0.136 C  
BRANCH   6  10
HETATM   10  O   UNL     1      -8.300   9.547  67.521  1.00  0.00    -0.123 OA 
BRANCH  10  11
HETATM   11  P   UNL     1      -9.788   9.846  66.835  1.00  0.00    -0.222 P  
HETATM   12  O   UNL     1      -9.488   8.894  65.652  1.00  0.00    -0.229 OA 
BRANCH  11  13
HETATM   13  C   UNL     1      -9.483  11.411  65.685  1.00  0.00    -0.230 C  
BRANCH  13  14
HETATM   14  C   UNL     1     -10.450  11.459  64.497  1.00  0.00    -0.381 C  
BRANCH  14  15
HETATM   15  C   UNL     1     -11.270  12.734  64.416  1.00  0.00    -0.390 C  
BRANCH  15  16
HETATM   16  C   UNL     1     -12.044  12.922  65.731  1.00  0.00    -0.513 C  
BRANCH  16  17
HETATM   17  C   UNL     1     -11.572  14.156  66.449  1.00  0.00    -0.380 A  
HETATM   18  C   UNL     1     -10.899  15.170  65.755  1.00  0.00    -0.358 A  
HETATM   19  C   UNL     1     -11.859  14.324  67.808  1.00  0.00    -0.414 A  
HETATM   20  C   UNL     1     -10.807  16.500  67.772  1.00  0.00    -0.304 A  
HETATM   21  C   UNL     1     -10.511  16.338  66.423  1.00  0.00    -0.297 A  
HETATM   22  C   UNL     1     -11.480  15.495  68.462  1.00  0.00    -0.369 A  
ENDBRANCH  16  17
ENDBRANCH  15  16
ENDBRANCH  14  15
ENDBRANCH  13  14
ENDBRANCH  11  13
BRANCH  11  23
HETATM   23  C   UNL     1     -10.144  10.972  68.233  1.00  0.00    -0.177 C  
BRANCH  23  24
HETATM   24  C   UNL     1     -11.276  10.491  69.160  1.00  0.00    -0.256 C  
HETATM   25  C   UNL     1     -12.242   8.944  70.880  1.00  0.00    -0.137 C  
HETATM   26  O   UNL     1     -12.402  10.997  69.064  1.00  0.00    -0.481 OA 
HETATM   27  N   UNL     1     -11.099   9.547  70.148  1.00  0.00    -0.247 N  
HETATM   28  C   UNL     1     -13.004   9.805  71.925  1.00  0.00    -0.440 C  
HETATM   29  O   UNL     1     -13.570   9.342  72.909  1.00  0.00    -0.252 OA 
HETATM   30  C   UNL     1      -9.868   9.177  70.818  1.00  0.00    -0.270 C  
HETATM   31  C   UNL     1     -10.112   7.776  71.409  1.00  0.00    -0.211 C  
HETATM   32  O   UNL     1     -13.120  11.113  71.607  1.00  0.00    -0.449 OA 
HETATM   33  C   UNL     1     -11.644   7.710  71.584  1.00  0.00    -0.301 C  
BRANCH  31  34
HETATM   34  C   UNL     1      -9.574   6.574  70.573  1.00  0.00    -0.180 C  
HETATM   35  C   UNL     1      -7.705   5.896  72.151  1.00  0.00    -0.102 C  
HETATM   36  C   UNL     1      -8.413   4.599  72.526  1.00  0.00    -0.115 C  
HETATM   37  C   UNL     1      -9.917   4.645  72.265  1.00  0.00    -0.235 C  
HETATM   38  C   UNL     1      -8.066   6.316  70.730  1.00  0.00    -0.120 C  
HETATM   39  C   UNL     1     -10.295   5.243  70.904  1.00  0.00    -0.303 C  
ENDBRANCH  31  34
ENDBRANCH  23  24
ENDBRANCH  11  23
ENDBRANCH  10  11
ENDBRANCH   6  10
ENDBRANCH   5   6
ENDBRANCH   3   5
ENDBRANCH   2   3
TORSDOF 13
ENDMDL
MODEL      126
REMARK 921   NORMALIZED FREE ENERGY PREDICTED BY IDOCK:   -4.71 KCAL/MOL
REMARK 922        TOTAL FREE ENERGY PREDICTED BY IDOCK:  -10.76 KCAL/MOL
REMARK 923 INTER-LIGAND FREE ENERGY PREDICTED BY IDOCK:   -8.59 KCAL/MOL
REMARK 924 INTRA-LIGAND FREE ENERGY PREDICTED BY IDOCK:   -2.17 KCAL/MOL
REMARK 927      BINDING AFFINITY PREDICTED BY RF-SCORE:    0.00 PKD
ROOT
HETATM    1  C   UNL     1      -6.184  13.192  68.569  1.00  0.00    -0.079 C  
HETATM    2  C   UNL     1      -6.748  11.833  68.195  1.00  0.00    -0.064 C  
ENDROOT
BRANCH   2   3
HETATM    3  C   UNL     1      -6.305  11.217  66.870  1.00  0.00    -0.125 C  
HETATM    4  O   UNL     1      -5.371  11.668  66.215  1.00  0.00    -0.292 OA 
BRANCH   3   5
HETATM    5  O   UNL     1      -6.973  10.075  66.575  1.00  0.00    -0.089 OA 
BRANCH   5   6
HETATM    6  C   UNL     1      -7.934  10.099  65.473  1.00  0.00    -0.146 C  
HETATM    7  C   UNL     1      -7.138   9.793  64.152  1.00  0.00    -0.126 C  
HETATM    8  C   UNL     1      -7.999   9.802  62.890  1.00  0.00    -0.132 C  
HETATM    9  C   UNL     1      -6.361   8.476  64.212  1.00  0.00    -0.067 C  
BRANCH   6  10
HETATM   10  O   UNL     1      -8.721  11.322  65.345  1.00  0.00    -0.120 OA 
BRANCH  10  11
HETATM   11  P   UNL     1     -10.365  11.209  65.595  1.00  0.00    -0.227 P  
HETATM   12  O   UNL     1     -10.601  10.730  64.142  1.00  0.00    -0.347 OA 
BRANCH  11  13
HETATM   13  C   UNL     1     -11.044  12.997  65.141  1.00  0.00    -0.292 C  
BRANCH  13  14
HETATM   14  C   UNL     1     -10.792  14.016  66.258  1.00  0.00    -0.291 C  
BRANCH  14  15
HETATM   15  C   UNL     1      -9.928  15.192  65.841  1.00  0.00    -0.355 C  
BRANCH  15  16
HETATM   16  C   UNL     1      -8.812  15.394  66.880  1.00  0.00    -0.281 C  
BRANCH  16  17
HETATM   17  C   UNL     1      -8.903  16.763  67.492  1.00  0.00    -0.205 A  
HETATM   18  C   UNL     1     -10.148  17.317  67.819  1.00  0.00    -0.311 A  
HETATM   19  C   UNL     1      -7.734  17.470  67.796  1.00  0.00    -0.209 A  
HETATM   20  C   UNL     1      -9.050  19.262  68.745  1.00  0.00    -0.409 A  
HETATM   21  C   UNL     1     -10.217  18.570  68.439  1.00  0.00    -0.409 A  
HETATM   22  C   UNL     1      -7.812  18.712  68.424  1.00  0.00    -0.344 A  
ENDBRANCH  16  17
ENDBRANCH  15  16
ENDBRANCH  14  15
ENDBRANCH  13  14
ENDBRANCH  11  13
BRANCH  11  23
HETATM   23  C   UNL     1     -10.086  11.776  67.312  1.00  0.00    -0.192 C  
BRANCH  23  24
HETATM   24  C   UNL     1     -11.117  11.250  68.328  1.00  0.00    -0.240 C  
HETATM   25  C   UNL     1     -11.876   9.663  70.113  1.00  0.00    -0.031 C  
HETATM   26  O   UNL     1     -12.266  11.712  68.328  1.00  0.00    -0.525 OA 
HETATM   27  N   UNL     1     -10.822  10.311  69.292  1.00  0.00    -0.224 N  
HETATM   28  C   UNL     1     -12.581  10.492  71.223  1.00  0.00    -0.426 C  
HETATM   29  O   UNL     1     -13.045  10.006  72.248  1.00  0.00    -0.413 OA 
HETATM   30  C   UNL     1      -9.527   9.987  69.856  1.00  0.00    -0.181 C  
HETATM   31  C   UNL     1      -9.667   8.577  70.457  1.00  0.00    -0.202 C  
HETATM   32  O   UNL     1     -12.773  11.795  70.923  1.00  0.00    -0.314 OA 
HETATM   33  C   UNL     1     -11.176   8.452  70.758  1.00  0.00    -0.290 C  
BRANCH  31  34
HETATM   34  C   UNL     1      -9.156   7.398  69.573  1.00  0.00    -0.143 C  
HETATM   35  C   UNL     1      -6.677   7.708  70.025  1.00  0.00    -0.049 C  
HETATM   36  C   UNL     1      -6.601   6.410  70.821  1.00  0.00    -0.053 C  
HETATM   37  C   UNL     1      -7.958   5.963  71.363  1.00  0.00    -0.113 C  
HETATM   38  C   UNL     1      -7.764   7.622  68.959  1.00  0.00    -0.117 C  
HETATM   39  C   UNL     1      -9.097   6.053  70.341  1.00  0.00    -0.156 C  
ENDBRANCH  31  34
ENDBRANCH  23  24
ENDBRANCH  11  23
ENDBRANCH  10  11
ENDBRANCH   6  10
ENDBRANCH   5   6
ENDBRANCH   3   5
ENDBRANCH   2   3
TORSDOF 13
ENDMDL
MODEL      127
REMARK 921   NORMALIZED FREE ENERGY PREDICTED BY IDOCK:   -4.69 KCAL/MOL
REMARK 922        TOTAL FREE ENERGY PREDICTED BY IDOCK:  -10.72 KCAL/MOL
REMARK 923 INTER-LIGAND FREE ENERGY PREDICTED BY IDOCK:   -9.36 KCAL/MOL
REMARK 924 INTRA-LIGAND FREE ENERGY PREDICTED BY IDOCK:   -1.36 KCAL/MOL
REMARK 927      BINDING AFFINITY PREDICTED BY RF-SCORE:    0.00 PKD
ROOT
HETATM    1  C   UNL     1     -13.676   9.509  72.287  1.00  0.00    -0.444 C  
HETATM    2  C   UNL     1     -13.380   8.186  71.604  1.00  0.00    -0.358 C  
ENDROOT
BRANCH   2   3
HETATM    3  C   UNL     1     -11.917   7.813  71.376  1.00  0.00    -0.306 C  
HETATM    4  O   UNL     1     -11.583   6.824  70.732  1.00  0.00    -0.323 OA 
BRANCH   3   5
HETATM    5  O   UNL     1     -11.058   8.745  71.856  1.00  0.00    -0.318 OA 
BRANCH   5   6
HETATM    6  C   UNL     1      -9.623   8.496  71.729  1.00  0.00    -0.267 C  
HETATM    7  C   UNL     1      -9.086   8.118  73.157  1.00  0.00    -0.335 C  
HETATM    8  C   UNL     1      -7.583   7.846  73.205  1.00  0.00    -0.169 C  
HETATM    9  C   UNL     1      -9.825   6.933  73.781  1.00  0.00    -0.313 C  
BRANCH   6  10
HETATM   10  O   UNL     1      -8.841   9.579  71.138  1.00  0.00    -0.249 OA 
BRANCH  10  11
HETATM   11  P   UNL     1      -8.576   9.529  69.494  1.00  0.00    -0.202 P  
HETATM   12  O   UNL     1      -8.462  11.070  69.418  1.00  0.00    -0.008 OA 
BRANCH  11  13
HETATM   13  C   UNL     1     -10.379   9.599  68.714  1.00  0.00    -0.213 C  
BRANCH  13  14
HETATM   14  C   UNL     1     -10.694  10.967  68.100  1.00  0.00    -0.256 C  
BRANCH  14  15
HETATM   15  C   UNL     1     -11.984  11.591  68.604  1.00  0.00    -0.312 C  
BRANCH  15  16
HETATM   16  C   UNL     1     -11.956  11.636  70.141  1.00  0.00    -0.441 C  
BRANCH  16  17
HETATM   17  C   UNL     1     -12.345  13.001  70.635  1.00  0.00    -0.391 A  
HETATM   18  C   UNL     1     -13.172  13.144  71.757  1.00  0.00    -0.494 A  
HETATM   19  C   UNL     1     -11.831  14.143  70.008  1.00  0.00    -0.388 A  
HETATM   20  C   UNL     1     -12.962  15.548  71.617  1.00  0.00    -0.540 A  
HETATM   21  C   UNL     1     -13.483  14.420  72.241  1.00  0.00    -0.527 A  
HETATM   22  C   UNL     1     -12.138  15.410  70.504  1.00  0.00    -0.411 A  
ENDBRANCH  16  17
ENDBRANCH  15  16
ENDBRANCH  14  15
ENDBRANCH  13  14
ENDBRANCH  11  13
BRANCH  11  23
HETATM   23  C   UNL     1      -8.710   7.706  69.585  1.00  0.00    -0.136 C  
BRANCH  23  24
HETATM   24  C   UNL     1      -8.226   6.971  68.321  1.00  0.00    -0.124 C  
HETATM   25  C   UNL     1      -7.930   4.919  66.913  1.00  0.00    -0.103 C  
HETATM   26  O   UNL     1      -7.520   7.570  67.499  1.00  0.00    -0.099 OA 
HETATM   27  N   UNL     1      -8.578   5.675  68.015  1.00  0.00    -0.102 N  
HETATM   28  C   UNL     1      -8.270   5.294  65.444  1.00  0.00    -0.127 C  
HETATM   29  O   UNL     1      -8.243   4.497  64.512  1.00  0.00    -0.098 OA 
HETATM   30  C   UNL     1      -9.736   4.933  68.472  1.00  0.00    -0.155 C  
HETATM   31  C   UNL     1      -9.387   3.445  68.286  1.00  0.00    -0.239 C  
HETATM   32  O   UNL     1      -8.475   6.610  65.226  1.00  0.00    -0.139 OA 
HETATM   33  C   UNL     1      -8.328   3.452  67.163  1.00  0.00    -0.093 C  
BRANCH  31  34
HETATM   34  C   UNL     1      -8.876   2.695  69.555  1.00  0.00    -0.151 C  
HETATM   35  C   UNL     1      -6.755   4.048  69.896  1.00  0.00    -0.034 C  
HETATM   36  C   UNL     1      -7.296   4.683  71.172  1.00  0.00    -0.063 C  
HETATM   37  C   UNL     1      -8.821   4.647  71.255  1.00  0.00    -0.152 C  
HETATM   38  C   UNL     1      -7.345   2.656  69.696  1.00  0.00    -0.044 C  
HETATM   39  C   UNL     1      -9.433   3.294  70.872  1.00  0.00    -0.234 C  
ENDBRANCH  31  34
ENDBRANCH  23  24
ENDBRANCH  11  23
ENDBRANCH  10  11
ENDBRANCH   6  10
ENDBRANCH   5   6
ENDBRANCH   3   5
ENDBRANCH   2   3
TORSDOF 13
ENDMDL
MODEL      128
REMARK 921   NORMALIZED FREE ENERGY PREDICTED BY IDOCK:   -4.69 KCAL/MOL
REMARK 922        TOTAL FREE ENERGY PREDICTED BY IDOCK:  -10.72 KCAL/MOL
REMARK 923 INTER-LIGAND FREE ENERGY PREDICTED BY IDOCK:   -8.94 KCAL/MOL
REMARK 924 INTRA-LIGAND FREE ENERGY PREDICTED BY IDOCK:   -1.78 KCAL/MOL
REMARK 927      BINDING AFFINITY PREDICTED BY RF-SCORE:    0.00 PKD
ROOT
HETATM    1  C   UNL     1      -5.595  10.218  62.965  1.00  0.00    -0.135 C  
HETATM    2  C   UNL     1      -5.950   9.079  63.904  1.00  0.00    -0.072 C  
ENDROOT
BRANCH   2   3
HETATM    3  C   UNL     1      -7.142   9.270  64.838  1.00  0.00    -0.101 C  
HETATM    4  O   UNL     1      -7.693   8.330  65.401  1.00  0.00    -0.093 OA 
BRANCH   3   5
HETATM    5  O   UNL     1      -7.434  10.576  65.055  1.00  0.00    -0.111 OA 
BRANCH   5   6
HETATM    6  C   UNL     1      -7.705  11.006  66.426  1.00  0.00    -0.146 C  
HETATM    7  C   UNL     1      -6.444  10.639  67.290  1.00  0.00    -0.072 C  
HETATM    8  C   UNL     1      -6.574  11.005  68.767  1.00  0.00    -0.061 C  
HETATM    9  C   UNL     1      -5.147  11.238  66.742  1.00  0.00    -0.095 C  
BRANCH   6  10
HETATM   10  O   UNL     1      -8.929  10.481  67.025  1.00  0.00    -0.139 OA 
BRANCH  10  11
HETATM   11  P   UNL     1     -10.284  11.449  66.981  1.00  0.00    -0.228 P  
HETATM   12  O   UNL     1     -10.401  11.298  65.445  1.00  0.00    -0.253 OA 
BRANCH  11  13
HETATM   13  C   UNL     1      -9.569  13.268  66.773  1.00  0.00    -0.258 C  
BRANCH  13  14
HETATM   14  C   UNL     1      -9.916  14.170  67.962  1.00  0.00    -0.226 C  
BRANCH  14  15
HETATM   15  C   UNL     1      -8.925  15.296  68.197  1.00  0.00    -0.173 C  
BRANCH  15  16
HETATM   16  C   UNL     1      -9.656  16.488  68.835  1.00  0.00    -0.261 C  
BRANCH  16  17
HETATM   17  C   UNL     1      -9.398  17.746  68.054  1.00  0.00    -0.276 A  
HETATM   18  C   UNL     1     -10.137  18.908  68.309  1.00  0.00    -0.446 A  
HETATM   19  C   UNL     1      -8.369  17.778  67.105  1.00  0.00    -0.236 A  
HETATM   20  C   UNL     1      -8.823  20.113  66.677  1.00  0.00    -0.382 A  
HETATM   21  C   UNL     1      -9.851  20.088  67.613  1.00  0.00    -0.548 A  
HETATM   22  C   UNL     1      -8.084  18.961  66.424  1.00  0.00    -0.306 A  
ENDBRANCH  16  17
ENDBRANCH  15  16
ENDBRANCH  14  15
ENDBRANCH  13  14
ENDBRANCH  11  13
BRANCH  11  23
HETATM   23  C   UNL     1     -10.147  11.627  68.798  1.00  0.00    -0.156 C  
BRANCH  23  24
HETATM   24  C   UNL     1     -11.315  11.006  69.585  1.00  0.00    -0.292 C  
HETATM   25  C   UNL     1     -12.391   9.147  70.877  1.00  0.00    -0.142 C  
HETATM   26  O   UNL     1     -12.406  11.589  69.623  1.00  0.00    -0.240 OA 
HETATM   27  N   UNL     1     -11.206   9.839  70.309  1.00  0.00    -0.270 N  
HETATM   28  C   UNL     1     -13.108   9.771  72.107  1.00  0.00    -0.422 C  
HETATM   29  O   UNL     1     -13.711   9.117  72.951  1.00  0.00    -0.361 OA 
HETATM   30  C   UNL     1     -10.007   9.238  70.860  1.00  0.00    -0.297 C  
HETATM   31  C   UNL     1     -10.344   7.754  71.089  1.00  0.00    -0.218 C  
HETATM   32  O   UNL     1     -13.139  11.121  72.122  1.00  0.00    -0.463 OA 
HETATM   33  C   UNL     1     -11.879   7.743  71.252  1.00  0.00    -0.318 C  
BRANCH  31  34
HETATM   34  C   UNL     1      -9.875   6.763  69.980  1.00  0.00    -0.179 C  
HETATM   35  C   UNL     1      -7.797   5.913  71.164  1.00  0.00    -0.111 C  
HETATM   36  C   UNL     1      -8.406   4.529  71.364  1.00  0.00    -0.104 C  
HETATM   37  C   UNL     1      -9.932   4.535  71.296  1.00  0.00    -0.258 C  
HETATM   38  C   UNL     1      -8.351   6.568  69.905  1.00  0.00    -0.131 C  
HETATM   39  C   UNL     1     -10.501   5.353  70.131  1.00  0.00    -0.361 C  
ENDBRANCH  31  34
ENDBRANCH  23  24
ENDBRANCH  11  23
ENDBRANCH  10  11
ENDBRANCH   6  10
ENDBRANCH   5   6
ENDBRANCH   3   5
ENDBRANCH   2   3
TORSDOF 13
ENDMDL
MODEL      129
REMARK 921   NORMALIZED FREE ENERGY PREDICTED BY IDOCK:   -4.69 KCAL/MOL
REMARK 922        TOTAL FREE ENERGY PREDICTED BY IDOCK:  -10.71 KCAL/MOL
REMARK 923 INTER-LIGAND FREE ENERGY PREDICTED BY IDOCK:   -8.74 KCAL/MOL
REMARK 924 INTRA-LIGAND FREE ENERGY PREDICTED BY IDOCK:   -1.97 KCAL/MOL
REMARK 927      BINDING AFFINITY PREDICTED BY RF-SCORE:    0.00 PKD
ROOT
HETATM    1  C   UNL     1      -8.614  10.566  62.441  1.00  0.00    -0.267 C  
HETATM    2  C   UNL     1      -7.952  10.076  63.716  1.00  0.00    -0.153 C  
ENDROOT
BRANCH   2   3
HETATM    3  C   UNL     1      -6.455   9.782  63.674  1.00  0.00    -0.118 C  
HETATM    4  O   UNL     1      -5.732  10.176  62.765  1.00  0.00    -0.102 OA 
BRANCH   3   5
HETATM    5  O   UNL     1      -6.013   9.154  64.792  1.00  0.00    -0.063 OA 
BRANCH   5   6
HETATM    6  C   UNL     1      -6.867   9.171  65.979  1.00  0.00    -0.084 C  
HETATM    7  C   UNL     1      -6.184  10.118  67.032  1.00  0.00    -0.063 C  
HETATM    8  C   UNL     1      -6.944  10.229  68.353  1.00  0.00    -0.069 C  
HETATM    9  C   UNL     1      -5.920  11.524  66.491  1.00  0.00    -0.101 C  
BRANCH   6  10
HETATM   10  O   UNL     1      -7.172   7.865  66.559  1.00  0.00    -0.079 OA 
BRANCH  10  11
HETATM   11  P   UNL     1      -8.731   7.299  66.403  1.00  0.00    -0.149 P  
HETATM   12  O   UNL     1      -8.513   6.971  64.906  1.00  0.00    -0.062 OA 
BRANCH  11  13
HETATM   13  C   UNL     1      -9.776   8.894  65.927  1.00  0.00    -0.189 C  
BRANCH  13  14
HETATM   14  C   UNL     1     -10.759   9.297  67.032  1.00  0.00    -0.199 C  
BRANCH  14  15
HETATM   15  C   UNL     1     -10.832  10.793  67.282  1.00  0.00    -0.344 C  
BRANCH  15  16
HETATM   16  C   UNL     1      -9.875  11.514  66.318  1.00  0.00    -0.245 C  
BRANCH  16  17
HETATM   17  C   UNL     1     -10.629  12.488  65.457  1.00  0.00    -0.304 A  
HETATM   18  C   UNL     1     -11.487  12.031  64.448  1.00  0.00    -0.413 A  
HETATM   19  C   UNL     1     -10.522  13.862  65.701  1.00  0.00    -0.320 A  
HETATM   20  C   UNL     1     -12.119  14.309  63.942  1.00  0.00    -0.247 A  
HETATM   21  C   UNL     1     -12.225  12.946  63.688  1.00  0.00    -0.581 A  
HETATM   22  C   UNL     1     -11.270  14.765  64.946  1.00  0.00    -0.411 A  
ENDBRANCH  16  17
ENDBRANCH  15  16
ENDBRANCH  14  15
ENDBRANCH  13  14
ENDBRANCH  11  13
BRANCH  11  23
HETATM   23  C   UNL     1      -8.988   7.686  68.173  1.00  0.00    -0.126 C  
BRANCH  23  24
HETATM   24  C   UNL     1      -8.877   6.469  69.110  1.00  0.00    -0.128 C  
HETATM   25  C   UNL     1      -9.537   5.152  71.138  1.00  0.00    -0.166 C  
HETATM   26  O   UNL     1      -7.964   5.651  68.944  1.00  0.00    -0.094 OA 
HETATM   27  N   UNL     1      -9.781   6.200  70.115  1.00  0.00    -0.161 N  
HETATM   28  C   UNL     1      -9.645   3.658  70.723  1.00  0.00    -0.179 C  
HETATM   29  O   UNL     1      -9.974   2.759  71.490  1.00  0.00    -0.155 OA 
HETATM   30  C   UNL     1     -11.157   6.644  70.220  1.00  0.00    -0.326 C  
HETATM   31  C   UNL     1     -11.527   6.527  71.710  1.00  0.00    -0.346 C  
HETATM   32  O   UNL     1      -9.219   3.383  69.472  1.00  0.00    -0.126 OA 
HETATM   33  C   UNL     1     -10.567   5.443  72.246  1.00  0.00    -0.280 C  
BRANCH  31  34
HETATM   34  C   UNL     1     -11.436   7.841  72.546  1.00  0.00    -0.428 C  
HETATM   35  C   UNL     1     -11.071   9.434  70.603  1.00  0.00    -0.351 C  
HETATM   36  C   UNL     1     -12.445  10.068  70.789  1.00  0.00    -0.386 C  
HETATM   37  C   UNL     1     -13.421   9.166  71.541  1.00  0.00    -0.417 C  
HETATM   38  C   UNL     1     -10.530   8.922  71.933  1.00  0.00    -0.415 C  
HETATM   39  C   UNL     1     -12.820   8.498  72.784  1.00  0.00    -0.092 C  
ENDBRANCH  31  34
ENDBRANCH  23  24
ENDBRANCH  11  23
ENDBRANCH  10  11
ENDBRANCH   6  10
ENDBRANCH   5   6
ENDBRANCH   3   5
ENDBRANCH   2   3
TORSDOF 13
ENDMDL
MODEL      130
REMARK 921   NORMALIZED FREE ENERGY PREDICTED BY IDOCK:   -4.69 KCAL/MOL
REMARK 922        TOTAL FREE ENERGY PREDICTED BY IDOCK:  -10.71 KCAL/MOL
REMARK 923 INTER-LIGAND FREE ENERGY PREDICTED BY IDOCK:   -7.65 KCAL/MOL
REMARK 924 INTRA-LIGAND FREE ENERGY PREDICTED BY IDOCK:   -3.06 KCAL/MOL
REMARK 927      BINDING AFFINITY PREDICTED BY RF-SCORE:    0.00 PKD
ROOT
HETATM    1  C   UNL     1     -11.071  15.750  68.323  1.00  0.00    -0.342 C  
HETATM    2  C   UNL     1     -12.010  14.570  68.150  1.00  0.00    -0.296 C  
ENDROOT
BRANCH   2   3
HETATM    3  C   UNL     1     -11.398  13.173  68.101  1.00  0.00    -0.292 C  
HETATM    4  O   UNL     1     -11.955  12.192  68.583  1.00  0.00    -0.318 OA 
BRANCH   3   5
HETATM    5  O   UNL     1     -10.253  13.128  67.377  1.00  0.00    -0.229 OA 
BRANCH   5   6
HETATM    6  C   UNL     1     -10.161  12.160  66.284  1.00  0.00    -0.224 C  
HETATM    7  C   UNL     1     -11.130  12.648  65.146  1.00  0.00    -0.329 C  
HETATM    8  C   UNL     1     -11.171  11.727  63.928  1.00  0.00    -0.493 C  
HETATM    9  C   UNL     1     -10.837  14.075  64.680  1.00  0.00    -0.416 C  
BRANCH   6  10
HETATM   10  O   UNL     1     -10.424  10.770  66.645  1.00  0.00    -0.236 OA 
BRANCH  10  11
HETATM   11  P   UNL     1      -9.139   9.860  67.191  1.00  0.00    -0.139 P  
HETATM   12  O   UNL     1      -8.129  10.967  66.801  1.00  0.00    -0.130 OA 
BRANCH  11  13
HETATM   13  C   UNL     1      -8.608   8.792  65.629  1.00  0.00    -0.172 C  
BRANCH  13  14
HETATM   14  C   UNL     1      -8.711   7.285  65.892  1.00  0.00    -0.150 C  
BRANCH  14  15
HETATM   15  C   UNL     1      -7.474   6.500  65.493  1.00  0.00    -0.083 C  
BRANCH  15  16
HETATM   16  C   UNL     1      -7.701   5.869  64.109  1.00  0.00    -0.106 C  
BRANCH  16  17
HETATM   17  C   UNL     1      -8.064   4.417  64.245  1.00  0.00    -0.097 A  
HETATM   18  C   UNL     1      -9.406   4.013  64.223  1.00  0.00    -0.158 A  
HETATM   19  C   UNL     1      -7.055   3.451  64.333  1.00  0.00    -0.057 A  
HETATM   20  C   UNL     1      -8.721   1.700  64.376  1.00  0.00    -0.094 A  
HETATM   21  C   UNL     1      -9.730   2.653  64.296  1.00  0.00    -0.135 A  
HETATM   22  C   UNL     1      -7.388   2.097  64.394  1.00  0.00    -0.058 A  
ENDBRANCH  16  17
ENDBRANCH  15  16
ENDBRANCH  14  15
ENDBRANCH  13  14
ENDBRANCH  11  13
BRANCH  11  23
HETATM   23  C   UNL     1     -10.334   8.553  67.651  1.00  0.00    -0.253 C  
BRANCH  23  24
HETATM   24  C   UNL     1     -10.486   8.341  69.169  1.00  0.00    -0.206 C  
HETATM   25  C   UNL     1     -10.299   6.965  71.256  1.00  0.00    -0.203 C  
HETATM   26  O   UNL     1     -11.071   9.193  69.850  1.00  0.00    -0.229 OA 
HETATM   27  N   UNL     1      -9.957   7.261  69.841  1.00  0.00    -0.182 N  
HETATM   28  C   UNL     1      -9.714   7.871  72.375  1.00  0.00    -0.213 C  
HETATM   29  O   UNL     1      -9.480   7.483  73.515  1.00  0.00    -0.226 OA 
HETATM   30  C   UNL     1      -8.845   6.419  69.444  1.00  0.00    -0.132 C  
HETATM   31  C   UNL     1      -9.006   5.106  70.231  1.00  0.00    -0.156 C  
HETATM   32  O   UNL     1      -9.599   9.176  72.048  1.00  0.00    -0.300 OA 
HETATM   33  C   UNL     1      -9.818   5.518  71.477  1.00  0.00    -0.221 C  
BRANCH  31  34
HETATM   34  C   UNL     1      -9.681   3.925  69.467  1.00  0.00    -0.191 C  
HETATM   35  C   UNL     1      -7.843   3.557  67.755  1.00  0.00    -0.076 C  
HETATM   36  C   UNL     1      -7.464   2.213  68.366  1.00  0.00    -0.047 C  
HETATM   37  C   UNL     1      -7.908   2.073  69.821  1.00  0.00    -0.049 C  
HETATM   38  C   UNL     1      -9.324   3.849  67.973  1.00  0.00    -0.226 C  
HETATM   39  C   UNL     1      -9.344   2.543  70.081  1.00  0.00    -0.187 C  
ENDBRANCH  31  34
ENDBRANCH  23  24
ENDBRANCH  11  23
ENDBRANCH  10  11
ENDBRANCH   6  10
ENDBRANCH   5   6
ENDBRANCH   3   5
ENDBRANCH   2   3
TORSDOF 13
ENDMDL
MODEL      131
REMARK 921   NORMALIZED FREE ENERGY PREDICTED BY IDOCK:   -4.68 KCAL/MOL
REMARK 922        TOTAL FREE ENERGY PREDICTED BY IDOCK:  -10.71 KCAL/MOL
REMARK 923 INTER-LIGAND FREE ENERGY PREDICTED BY IDOCK:   -9.23 KCAL/MOL
REMARK 924 INTRA-LIGAND FREE ENERGY PREDICTED BY IDOCK:   -1.48 KCAL/MOL
REMARK 927      BINDING AFFINITY PREDICTED BY RF-SCORE:    0.00 PKD
ROOT
HETATM    1  C   UNL     1     -10.478   6.867  69.194  1.00  0.00    -0.224 C  
HETATM    2  C   UNL     1     -10.340   7.677  70.471  1.00  0.00    -0.211 C  
ENDROOT
BRANCH   2   3
HETATM    3  C   UNL     1     -10.881   9.104  70.472  1.00  0.00    -0.255 C  
HETATM    4  O   UNL     1     -11.994   9.386  70.904  1.00  0.00    -0.288 OA 
BRANCH   3   5
HETATM    5  O   UNL     1      -9.962  10.012  70.060  1.00  0.00    -0.249 OA 
BRANCH   5   6
HETATM    6  C   UNL     1      -9.423   9.887  68.706  1.00  0.00    -0.157 C  
HETATM    7  C   UNL     1      -7.857   9.965  68.819  1.00  0.00    -0.091 C  
HETATM    8  C   UNL     1      -7.131   9.872  67.478  1.00  0.00    -0.088 C  
HETATM    9  C   UNL     1      -7.271   8.922  69.774  1.00  0.00    -0.055 C  
BRANCH   6  10
HETATM   10  O   UNL     1      -9.932  10.845  67.729  1.00  0.00    -0.171 OA 
BRANCH  10  11
HETATM   11  P   UNL     1     -10.193  12.407  68.247  1.00  0.00    -0.215 P  
HETATM   12  O   UNL     1     -11.336  11.955  69.188  1.00  0.00    -0.241 OA 
BRANCH  11  13
HETATM   13  C   UNL     1     -11.500  13.126  66.966  1.00  0.00    -0.336 C  
BRANCH  13  14
HETATM   14  C   UNL     1     -10.829  13.871  65.807  1.00  0.00    -0.289 C  
BRANCH  14  15
HETATM   15  C   UNL     1     -11.074  13.246  64.445  1.00  0.00    -0.407 C  
BRANCH  15  16
HETATM   16  C   UNL     1     -11.243  11.727  64.607  1.00  0.00    -0.349 C  
BRANCH  16  17
HETATM   17  C   UNL     1     -10.066  10.999  64.023  1.00  0.00    -0.408 A  
HETATM   18  C   UNL     1      -9.711   9.727  64.490  1.00  0.00    -0.110 A  
HETATM   19  C   UNL     1      -9.352  11.567  62.961  1.00  0.00    -0.293 A  
HETATM   20  C   UNL     1      -7.947   9.604  62.842  1.00  0.00    -0.128 A  
HETATM   21  C   UNL     1      -8.646   9.036  63.902  1.00  0.00    -0.151 A  
HETATM   22  C   UNL     1      -8.300  10.866  62.372  1.00  0.00    -0.293 A  
ENDBRANCH  16  17
ENDBRANCH  15  16
ENDBRANCH  14  15
ENDBRANCH  13  14
ENDBRANCH  11  13
BRANCH  11  23
HETATM   23  C   UNL     1      -8.842  12.942  67.135  1.00  0.00    -0.210 C  
BRANCH  23  24
HETATM   24  C   UNL     1      -7.702  13.699  67.841  1.00  0.00    -0.157 C  
HETATM   25  C   UNL     1      -6.577  15.793  68.636  1.00  0.00    -0.116 C  
HETATM   26  O   UNL     1      -6.688  13.085  68.197  1.00  0.00    -0.080 OA 
HETATM   27  N   UNL     1      -7.763  15.039  68.156  1.00  0.00    -0.108 N  
HETATM   28  C   UNL     1      -6.060  15.540  70.080  1.00  0.00    -0.148 C  
HETATM   29  O   UNL     1      -5.482  16.384  70.756  1.00  0.00    -0.151 OA 
HETATM   30  C   UNL     1      -8.943  15.861  68.336  1.00  0.00    -0.189 C  
HETATM   31  C   UNL     1      -8.479  17.317  68.146  1.00  0.00    -0.238 C  
HETATM   32  O   UNL     1      -6.171  14.264  70.508  1.00  0.00    -0.182 OA 
HETATM   33  C   UNL     1      -6.976  17.274  68.497  1.00  0.00    -0.209 C  
BRANCH  31  34
HETATM   34  C   UNL     1      -8.724  17.938  66.737  1.00  0.00    -0.269 C  
HETATM   35  C   UNL     1     -10.621  19.491  67.396  1.00  0.00    -0.607 C  
HETATM   36  C   UNL     1      -9.760  20.730  67.179  1.00  0.00    -0.457 C  
HETATM   37  C   UNL     1      -8.263  20.434  67.246  1.00  0.00    -0.390 C  
HETATM   38  C   UNL     1     -10.180  18.360  66.474  1.00  0.00    -0.423 C  
HETATM   39  C   UNL     1      -7.841  19.182  66.467  1.00  0.00    -0.288 C  
ENDBRANCH  31  34
ENDBRANCH  23  24
ENDBRANCH  11  23
ENDBRANCH  10  11
ENDBRANCH   6  10
ENDBRANCH   5   6
ENDBRANCH   3   5
ENDBRANCH   2   3
TORSDOF 13
ENDMDL
MODEL      132
REMARK 921   NORMALIZED FREE ENERGY PREDICTED BY IDOCK:   -4.65 KCAL/MOL
REMARK 922        TOTAL FREE ENERGY PREDICTED BY IDOCK:  -10.65 KCAL/MOL
REMARK 923 INTER-LIGAND FREE ENERGY PREDICTED BY IDOCK:  -10.37 KCAL/MOL
REMARK 924 INTRA-LIGAND FREE ENERGY PREDICTED BY IDOCK:   -0.29 KCAL/MOL
REMARK 927      BINDING AFFINITY PREDICTED BY RF-SCORE:    0.00 PKD
ROOT
HETATM    1  C   UNL     1     -12.917  14.312  65.326  1.00  0.00    -0.197 C  
HETATM    2  C   UNL     1     -12.086  14.031  64.087  1.00  0.00    -0.456 C  
ENDROOT
BRANCH   2   3
HETATM    3  C   UNL     1     -11.528  12.622  63.907  1.00  0.00    -0.442 C  
HETATM    4  O   UNL     1     -12.202  11.700  63.459  1.00  0.00    -0.443 OA 
BRANCH   3   5
HETATM    5  O   UNL     1     -10.203  12.544  64.182  1.00  0.00    -0.359 OA 
BRANCH   5   6
HETATM    6  C   UNL     1      -9.769  11.646  65.252  1.00  0.00    -0.229 C  
HETATM    7  C   UNL     1      -9.657  10.205  64.633  1.00  0.00    -0.379 C  
HETATM    8  C   UNL     1      -9.232   9.130  65.633  1.00  0.00    -0.296 C  
HETATM    9  C   UNL     1      -8.732  10.144  63.416  1.00  0.00    -0.216 C  
BRANCH   6  10
HETATM   10  O   UNL     1     -10.598  11.644  66.454  1.00  0.00    -0.239 OA 
BRANCH  10  11
HETATM   11  P   UNL     1     -10.036  12.484  67.778  1.00  0.00    -0.220 P  
HETATM   12  O   UNL     1     -10.182  13.838  67.040  1.00  0.00    -0.250 OA 
BRANCH  11  13
HETATM   13  C   UNL     1      -8.087  12.531  67.525  1.00  0.00    -0.176 C  
BRANCH  13  14
HETATM   14  C   UNL     1      -7.556  13.958  67.349  1.00  0.00    -0.160 C  
BRANCH  14  15
HETATM   15  C   UNL     1      -6.418  14.317  68.288  1.00  0.00    -0.116 C  
BRANCH  15  16
HETATM   16  C   UNL     1      -6.992  14.991  69.544  1.00  0.00    -0.187 C  
BRANCH  16  17
HETATM   17  C   UNL     1      -8.104  15.933  69.177  1.00  0.00    -0.239 A  
HETATM   18  C   UNL     1      -7.865  17.018  68.324  1.00  0.00    -0.216 A  
HETATM   19  C   UNL     1      -9.403  15.693  69.640  1.00  0.00    -0.217 A  
HETATM   20  C   UNL     1     -10.208  17.608  68.404  1.00  0.00    -0.381 A  
HETATM   21  C   UNL     1      -8.920  17.858  67.945  1.00  0.00    -0.264 A  
HETATM   22  C   UNL     1     -10.449  16.528  69.248  1.00  0.00    -0.326 A  
ENDBRANCH  16  17
ENDBRANCH  15  16
ENDBRANCH  14  15
ENDBRANCH  13  14
ENDBRANCH  11  13
BRANCH  11  23
HETATM   23  C   UNL     1      -9.862  10.885  68.649  1.00  0.00    -0.190 C  
BRANCH  23  24
HETATM   24  C   UNL     1     -11.141  10.413  69.366  1.00  0.00    -0.254 C  
HETATM   25  C   UNL     1     -12.402   8.869  70.886  1.00  0.00    -0.090 C  
HETATM   26  O   UNL     1     -12.229  10.930  69.081  1.00  0.00    -0.421 OA 
HETATM   27  N   UNL     1     -11.145   9.463  70.364  1.00  0.00    -0.248 N  
HETATM   28  C   UNL     1     -13.323   9.734  71.790  1.00  0.00    -0.413 C  
HETATM   29  O   UNL     1     -14.054   9.273  72.660  1.00  0.00    -0.477 OA 
HETATM   30  C   UNL     1     -10.050   9.077  71.233  1.00  0.00    -0.314 C  
HETATM   31  C   UNL     1     -10.405   7.677  71.765  1.00  0.00    -0.233 C  
HETATM   32  O   UNL     1     -13.371  11.044  71.465  1.00  0.00    -0.321 OA 
HETATM   33  C   UNL     1     -11.946   7.626  71.674  1.00  0.00    -0.329 C  
BRANCH  31  34
HETATM   34  C   UNL     1      -9.745   6.472  71.026  1.00  0.00    -0.189 C  
HETATM   35  C   UNL     1     -10.338   7.181  68.662  1.00  0.00    -0.200 C  
HETATM   36  C   UNL     1      -8.881   7.471  68.321  1.00  0.00    -0.125 C  
HETATM   37  C   UNL     1      -8.019   7.722  69.557  1.00  0.00    -0.117 C  
HETATM   38  C   UNL     1     -10.436   6.078  69.710  1.00  0.00    -0.320 C  
HETATM   39  C   UNL     1      -8.251   6.719  70.693  1.00  0.00    -0.120 C  
ENDBRANCH  31  34
ENDBRANCH  23  24
ENDBRANCH  11  23
ENDBRANCH  10  11
ENDBRANCH   6  10
ENDBRANCH   5   6
ENDBRANCH   3   5
ENDBRANCH   2   3
TORSDOF 13
ENDMDL
MODEL      133
REMARK 921   NORMALIZED FREE ENERGY PREDICTED BY IDOCK:   -4.65 KCAL/MOL
REMARK 922        TOTAL FREE ENERGY PREDICTED BY IDOCK:  -10.65 KCAL/MOL
REMARK 923 INTER-LIGAND FREE ENERGY PREDICTED BY IDOCK:   -8.40 KCAL/MOL
REMARK 924 INTRA-LIGAND FREE ENERGY PREDICTED BY IDOCK:   -2.25 KCAL/MOL
REMARK 927      BINDING AFFINITY PREDICTED BY RF-SCORE:    0.00 PKD
ROOT
HETATM    1  C   UNL     1     -12.276  15.439  69.369  1.00  0.00    -0.250 C  
HETATM    2  C   UNL     1     -11.913  14.139  68.674  1.00  0.00    -0.373 C  
ENDROOT
BRANCH   2   3
HETATM    3  C   UNL     1     -11.590  14.195  67.183  1.00  0.00    -0.377 C  
HETATM    4  O   UNL     1     -12.460  14.162  66.319  1.00  0.00    -0.466 OA 
BRANCH   3   5
HETATM    5  O   UNL     1     -10.272  14.398  66.940  1.00  0.00    -0.260 OA 
BRANCH   5   6
HETATM    6  C   UNL     1      -9.299  13.593  67.677  1.00  0.00    -0.215 C  
HETATM    7  C   UNL     1      -8.115  14.546  68.081  1.00  0.00    -0.137 C  
HETATM    8  C   UNL     1      -6.991  13.850  68.847  1.00  0.00    -0.110 C  
HETATM    9  C   UNL     1      -8.575  15.769  68.877  1.00  0.00    -0.220 C  
BRANCH   6  10
HETATM   10  O   UNL     1      -8.809  12.402  66.989  1.00  0.00    -0.198 OA 
BRANCH  10  11
HETATM   11  P   UNL     1      -9.405  10.927  67.484  1.00  0.00    -0.156 P  
HETATM   12  O   UNL     1     -10.735  11.157  66.727  1.00  0.00    -0.256 OA 
BRANCH  11  13
HETATM   13  C   UNL     1     -10.285  11.315  69.198  1.00  0.00    -0.100 C  
BRANCH  13  14
HETATM   14  C   UNL     1     -11.662  10.652  69.309  1.00  0.00    -0.336 C  
BRANCH  14  15
HETATM   15  C   UNL     1     -12.386  10.938  70.613  1.00  0.00    -0.470 C  
BRANCH  15  16
HETATM   16  C   UNL     1     -13.282   9.740  70.967  1.00  0.00    -0.341 C  
BRANCH  16  17
HETATM   17  C   UNL     1     -12.470   8.641  71.591  1.00  0.00    -0.382 A  
HETATM   18  C   UNL     1     -12.895   7.308  71.512  1.00  0.00    -0.430 A  
HETATM   19  C   UNL     1     -11.248   8.938  72.205  1.00  0.00    -0.269 A  
HETATM   20  C   UNL     1     -10.888   6.590  72.651  1.00  0.00    -0.278 A  
HETATM   21  C   UNL     1     -12.104   6.286  72.050  1.00  0.00    -0.321 A  
HETATM   22  C   UNL     1     -10.461   7.913  72.728  1.00  0.00    -0.412 A  
ENDBRANCH  16  17
ENDBRANCH  15  16
ENDBRANCH  14  15
ENDBRANCH  13  14
ENDBRANCH  11  13
BRANCH  11  23
HETATM   23  C   UNL     1      -7.832  10.656  68.379  1.00  0.00    -0.113 C  
BRANCH  23  24
HETATM   24  C   UNL     1      -7.898   9.557  69.457  1.00  0.00    -0.103 C  
HETATM   25  C   UNL     1      -8.066   7.168  70.194  1.00  0.00    -0.130 C  
HETATM   26  O   UNL     1      -8.013   9.875  70.647  1.00  0.00    -0.257 OA 
HETATM   27  N   UNL     1      -7.784   8.213  69.178  1.00  0.00    -0.097 N  
HETATM   28  C   UNL     1      -7.052   6.952  71.352  1.00  0.00    -0.074 C  
HETATM   29  O   UNL     1      -6.878   5.876  71.915  1.00  0.00    -0.064 OA 
HETATM   30  C   UNL     1      -7.156   7.589  68.030  1.00  0.00    -0.084 C  
HETATM   31  C   UNL     1      -7.750   6.173  67.938  1.00  0.00    -0.102 C  
HETATM   32  O   UNL     1      -6.454   8.076  71.800  1.00  0.00    -0.039 OA 
HETATM   33  C   UNL     1      -8.192   5.863  69.385  1.00  0.00    -0.113 C  
BRANCH  31  34
HETATM   34  C   UNL     1      -8.921   5.983  66.925  1.00  0.00    -0.117 C  
HETATM   35  C   UNL     1      -7.645   4.607  65.214  1.00  0.00    -0.081 C  
HETATM   36  C   UNL     1      -8.455   3.355  65.532  1.00  0.00    -0.108 C  
HETATM   37  C   UNL     1      -9.106   3.401  66.912  1.00  0.00    -0.188 C  
HETATM   38  C   UNL     1      -8.477   5.862  65.458  1.00  0.00    -0.154 C  
HETATM   39  C   UNL     1      -9.788   4.736  67.236  1.00  0.00    -0.218 C  
ENDBRANCH  31  34
ENDBRANCH  23  24
ENDBRANCH  11  23
ENDBRANCH  10  11
ENDBRANCH   6  10
ENDBRANCH   5   6
ENDBRANCH   3   5
ENDBRANCH   2   3
TORSDOF 13
ENDMDL
MODEL      134
REMARK 921   NORMALIZED FREE ENERGY PREDICTED BY IDOCK:   -4.64 KCAL/MOL
REMARK 922        TOTAL FREE ENERGY PREDICTED BY IDOCK:  -10.62 KCAL/MOL
REMARK 923 INTER-LIGAND FREE ENERGY PREDICTED BY IDOCK:   -8.37 KCAL/MOL
REMARK 924 INTRA-LIGAND FREE ENERGY PREDICTED BY IDOCK:   -2.26 KCAL/MOL
REMARK 927      BINDING AFFINITY PREDICTED BY RF-SCORE:    0.00 PKD
ROOT
HETATM    1  C   UNL     1      -7.676   1.480  64.294  1.00  0.00    -0.060 C  
HETATM    2  C   UNL     1      -7.720   1.738  65.789  1.00  0.00    -0.071 C  
ENDROOT
BRANCH   2   3
HETATM    3  C   UNL     1      -8.977   2.384  66.365  1.00  0.00    -0.115 C  
HETATM    4  O   UNL     1      -9.333   2.212  67.526  1.00  0.00    -0.157 OA 
BRANCH   3   5
HETATM    5  O   UNL     1      -9.570   3.241  65.497  1.00  0.00    -0.139 OA 
BRANCH   5   6
HETATM    6  C   UNL     1      -9.176   4.649  65.535  1.00  0.00    -0.153 C  
HETATM    7  C   UNL     1      -8.440   4.964  64.182  1.00  0.00    -0.137 C  
HETATM    8  C   UNL     1      -7.939   6.403  64.067  1.00  0.00    -0.090 C  
HETATM    9  C   UNL     1      -9.285   4.633  62.949  1.00  0.00    -0.073 C  
BRANCH   6  10
HETATM   10  O   UNL     1      -8.368   5.051  66.683  1.00  0.00    -0.108 OA 
BRANCH  10  11
HETATM   11  P   UNL     1      -9.122   5.919  67.889  1.00  0.00    -0.107 P  
HETATM   12  O   UNL     1     -10.365   6.165  67.000  1.00  0.00    -0.181 OA 
BRANCH  11  13
HETATM   13  C   UNL     1      -8.520   7.767  67.600  1.00  0.00    -0.121 C  
BRANCH  13  14
HETATM   14  C   UNL     1      -9.599   8.635  66.943  1.00  0.00    -0.254 C  
BRANCH  14  15
HETATM   15  C   UNL     1      -9.355  10.129  67.068  1.00  0.00    -0.178 C  
BRANCH  15  16
HETATM   16  C   UNL     1     -10.659  10.820  67.496  1.00  0.00    -0.280 C  
BRANCH  16  17
HETATM   17  C   UNL     1     -11.138  11.756  66.421  1.00  0.00    -0.360 A  
HETATM   18  C   UNL     1     -12.016  12.803  66.727  1.00  0.00    -0.389 A  
HETATM   19  C   UNL     1     -10.657  11.620  65.113  1.00  0.00    -0.343 A  
HETATM   20  C   UNL     1     -11.924  13.563  64.434  1.00  0.00    -0.466 A  
HETATM   21  C   UNL     1     -12.412  13.700  65.728  1.00  0.00    -0.524 A  
HETATM   22  C   UNL     1     -11.048  12.525  64.128  1.00  0.00    -0.426 A  
ENDBRANCH  16  17
ENDBRANCH  15  16
ENDBRANCH  14  15
ENDBRANCH  13  14
ENDBRANCH  11  13
BRANCH  11  23
HETATM   23  C   UNL     1      -7.653   5.628  68.940  1.00  0.00    -0.088 C  
BRANCH  23  24
HETATM   24  C   UNL     1      -7.428   6.699  70.024  1.00  0.00    -0.094 C  
HETATM   25  C   UNL     1      -8.240   8.349  71.727  1.00  0.00    -0.152 C  
HETATM   26  O   UNL     1      -6.289   7.143  70.218  1.00  0.00    -0.033 OA 
HETATM   27  N   UNL     1      -8.429   7.170  70.845  1.00  0.00    -0.131 N  
HETATM   28  C   UNL     1      -7.352   8.204  72.994  1.00  0.00    -0.123 C  
HETATM   29  O   UNL     1      -7.511   8.860  74.019  1.00  0.00    -0.409 OA 
HETATM   30  C   UNL     1      -9.673   6.515  71.201  1.00  0.00    -0.174 C  
HETATM   31  C   UNL     1     -10.620   7.633  71.674  1.00  0.00    -0.233 C  
HETATM   32  O   UNL     1      -6.287   7.386  72.852  1.00  0.00    -0.058 OA 
HETATM   33  C   UNL     1      -9.665   8.748  72.154  1.00  0.00    -0.335 C  
BRANCH  31  34
HETATM   34  C   UNL     1     -11.640   8.162  70.619  1.00  0.00    -0.199 C  
HETATM   35  C   UNL     1     -13.742   7.280  71.735  1.00  0.00    -0.399 C  
HETATM   36  C   UNL     1     -14.219   8.686  72.081  1.00  0.00    -0.520 C  
HETATM   37  C   UNL     1     -13.085   9.709  72.110  1.00  0.00    -0.520 C  
HETATM   38  C   UNL     1     -12.900   7.294  70.464  1.00  0.00     0.217 C  
HETATM   39  C   UNL     1     -12.122   9.604  70.921  1.00  0.00    -0.383 C  
ENDBRANCH  31  34
ENDBRANCH  23  24
ENDBRANCH  11  23
ENDBRANCH  10  11
ENDBRANCH   6  10
ENDBRANCH   5   6
ENDBRANCH   3   5
ENDBRANCH   2   3
TORSDOF 13
ENDMDL
MODEL      135
REMARK 921   NORMALIZED FREE ENERGY PREDICTED BY IDOCK:   -4.63 KCAL/MOL
REMARK 922        TOTAL FREE ENERGY PREDICTED BY IDOCK:  -10.61 KCAL/MOL
REMARK 923 INTER-LIGAND FREE ENERGY PREDICTED BY IDOCK:   -8.84 KCAL/MOL
REMARK 924 INTRA-LIGAND FREE ENERGY PREDICTED BY IDOCK:   -1.78 KCAL/MOL
REMARK 927      BINDING AFFINITY PREDICTED BY RF-SCORE:    0.00 PKD
ROOT
HETATM    1  C   UNL     1      -6.869   2.493  68.342  1.00  0.00    -0.043 C  
HETATM    2  C   UNL     1      -6.254   3.867  68.144  1.00  0.00    -0.033 C  
ENDROOT
BRANCH   2   3
HETATM    3  C   UNL     1      -7.152   4.980  67.610  1.00  0.00    -0.066 C  
HETATM    4  O   UNL     1      -8.324   5.099  67.949  1.00  0.00    -0.098 OA 
BRANCH   3   5
HETATM    5  O   UNL     1      -6.482   5.864  66.830  1.00  0.00    -0.046 OA 
BRANCH   5   6
HETATM    6  C   UNL     1      -7.178   7.077  66.403  1.00  0.00    -0.075 C  
HETATM    7  C   UNL     1      -7.423   6.954  64.855  1.00  0.00    -0.094 C  
HETATM    8  C   UNL     1      -8.127   8.161  64.239  1.00  0.00    -0.127 C  
HETATM    9  C   UNL     1      -8.184   5.684  64.467  1.00  0.00    -0.125 C  
BRANCH   6  10
HETATM   10  O   UNL     1      -6.519   8.337  66.737  1.00  0.00    -0.054 OA 
BRANCH  10  11
HETATM   11  P   UNL     1      -7.138   9.215  68.010  1.00  0.00    -0.079 P  
HETATM   12  O   UNL     1      -6.738   8.115  69.024  1.00  0.00    -0.047 OA 
BRANCH  11  13
HETATM   13  C   UNL     1      -9.020   8.656  68.110  1.00  0.00    -0.141 C  
BRANCH  13  14
HETATM   14  C   UNL     1      -9.658   9.000  69.460  1.00  0.00    -0.165 C  
BRANCH  14  15
HETATM   15  C   UNL     1     -10.337  10.358  69.498  1.00  0.00    -0.264 C  
BRANCH  15  16
HETATM   16  C   UNL     1     -11.740  10.205  70.106  1.00  0.00    -0.330 C  
BRANCH  16  17
HETATM   17  C   UNL     1     -12.244  11.529  70.609  1.00  0.00    -0.473 A  
HETATM   18  C   UNL     1     -11.998  12.705  69.889  1.00  0.00    -0.365 A  
HETATM   19  C   UNL     1     -13.018  11.584  71.774  1.00  0.00    -0.500 A  
HETATM   20  C   UNL     1     -13.293  13.969  71.492  1.00  0.00    -0.422 A  
HETATM   21  C   UNL     1     -12.519  13.924  70.338  1.00  0.00    -0.404 A  
HETATM   22  C   UNL     1     -13.542  12.801  72.208  1.00  0.00    -0.563 A  
ENDBRANCH  16  17
ENDBRANCH  15  16
ENDBRANCH  14  15
ENDBRANCH  13  14
ENDBRANCH  11  13
BRANCH  11  23
HETATM   23  C   UNL     1      -7.610  10.514  66.812  1.00  0.00    -0.115 C  
BRANCH  23  24
HETATM   24  C   UNL     1      -7.236  11.943  67.247  1.00  0.00    -0.147 C  
HETATM   25  C   UNL     1      -7.660  14.409  67.395  1.00  0.00    -0.172 C  
HETATM   26  O   UNL     1      -6.118  12.163  67.731  1.00  0.00    -0.067 OA 
HETATM   27  N   UNL     1      -8.106  13.010  67.177  1.00  0.00    -0.148 N  
HETATM   28  C   UNL     1      -7.307  14.870  68.837  1.00  0.00    -0.136 C  
HETATM   29  O   UNL     1      -7.430  16.024  69.234  1.00  0.00    -0.214 OA 
HETATM   30  C   UNL     1      -9.555  12.980  67.154  1.00  0.00    -0.230 C  
HETATM   31  C   UNL     1      -9.997  14.326  66.553  1.00  0.00    -0.289 C  
HETATM   32  O   UNL     1      -6.721  13.929  69.606  1.00  0.00    -0.110 OA 
HETATM   33  C   UNL     1      -8.817  15.274  66.859  1.00  0.00    -0.281 C  
BRANCH  31  34
HETATM   34  C   UNL     1     -10.350  14.318  65.033  1.00  0.00    -0.448 C  
HETATM   35  C   UNL     1     -11.210  11.932  64.917  1.00  0.00    -0.350 C  
HETATM   36  C   UNL     1     -12.642  12.399  64.677  1.00  0.00    -0.459 C  
HETATM   37  C   UNL     1     -12.889  13.829  65.151  1.00  0.00    -0.386 C  
HETATM   38  C   UNL     1     -10.214  12.943  64.358  1.00  0.00    -0.342 C  
HETATM   39  C   UNL     1     -11.789  14.818  64.748  1.00  0.00    -0.425 C  
ENDBRANCH  31  34
ENDBRANCH  23  24
ENDBRANCH  11  23
ENDBRANCH  10  11
ENDBRANCH   6  10
ENDBRANCH   5   6
ENDBRANCH   3   5
ENDBRANCH   2   3
TORSDOF 13
ENDMDL
MODEL      136
REMARK 921   NORMALIZED FREE ENERGY PREDICTED BY IDOCK:   -4.61 KCAL/MOL
REMARK 922        TOTAL FREE ENERGY PREDICTED BY IDOCK:  -10.57 KCAL/MOL
REMARK 923 INTER-LIGAND FREE ENERGY PREDICTED BY IDOCK:   -8.33 KCAL/MOL
REMARK 924 INTRA-LIGAND FREE ENERGY PREDICTED BY IDOCK:   -2.25 KCAL/MOL
REMARK 927      BINDING AFFINITY PREDICTED BY RF-SCORE:    0.00 PKD
ROOT
HETATM    1  C   UNL     1      -5.636   8.396  67.148  1.00  0.00    -0.038 C  
HETATM    2  C   UNL     1      -6.852   9.156  67.645  1.00  0.00    -0.077 C  
ENDROOT
BRANCH   2   3
HETATM    3  C   UNL     1      -7.562  10.086  66.665  1.00  0.00    -0.104 C  
HETATM    4  O   UNL     1      -7.131  11.199  66.384  1.00  0.00    -0.135 OA 
BRANCH   3   5
HETATM    5  O   UNL     1      -8.631   9.502  66.070  1.00  0.00    -0.127 OA 
BRANCH   5   6
HETATM    6  C   UNL     1      -9.648   8.887  66.923  1.00  0.00    -0.190 C  
HETATM    7  C   UNL     1      -9.946   7.459  66.337  1.00  0.00    -0.107 C  
HETATM    8  C   UNL     1     -11.014   6.682  67.105  1.00  0.00    -0.478 C  
HETATM    9  C   UNL     1      -8.693   6.589  66.212  1.00  0.00    -0.148 C  
BRANCH   6  10
HETATM   10  O   UNL     1     -10.877   9.655  67.098  1.00  0.00    -0.232 OA 
BRANCH  10  11
HETATM   11  P   UNL     1     -11.118  10.397  68.570  1.00  0.00    -0.221 P  
HETATM   12  O   UNL     1     -12.116  11.406  67.952  1.00  0.00    -0.646 OA 
BRANCH  11  13
HETATM   13  C   UNL     1      -9.726  11.783  68.643  1.00  0.00    -0.128 C  
BRANCH  13  14
HETATM   14  C   UNL     1      -9.938  12.878  67.591  1.00  0.00    -0.218 C  
BRANCH  14  15
HETATM   15  C   UNL     1      -9.206  14.174  67.888  1.00  0.00    -0.196 C  
BRANCH  15  16
HETATM   16  C   UNL     1     -10.201  15.198  68.457  1.00  0.00    -0.231 C  
BRANCH  16  17
HETATM   17  C   UNL     1      -9.658  16.593  68.320  1.00  0.00    -0.233 A  
HETATM   18  C   UNL     1      -8.303  16.857  68.562  1.00  0.00    -0.257 A  
HETATM   19  C   UNL     1     -10.495  17.629  67.889  1.00  0.00    -0.392 A  
HETATM   20  C   UNL     1      -8.635  19.171  67.943  1.00  0.00    -0.340 A  
HETATM   21  C   UNL     1      -7.797  18.150  68.379  1.00  0.00    -0.306 A  
HETATM   22  C   UNL     1      -9.980  18.910  67.699  1.00  0.00    -0.404 A  
ENDBRANCH  16  17
ENDBRANCH  15  16
ENDBRANCH  14  15
ENDBRANCH  13  14
ENDBRANCH  11  13
BRANCH  11  23
HETATM   23  C   UNL     1      -9.937   9.205  69.301  1.00  0.00    -0.187 C  
BRANCH  23  24
HETATM   24  C   UNL     1     -10.572   8.214  70.294  1.00  0.00    -0.228 C  
HETATM   25  C   UNL     1     -10.784   5.954  71.357  1.00  0.00    -0.260 C  
HETATM   26  O   UNL     1     -11.582   8.545  70.928  1.00  0.00    -0.276 OA 
HETATM   27  N   UNL     1     -10.044   6.971  70.567  1.00  0.00    -0.191 N  
HETATM   28  C   UNL     1     -10.936   6.158  72.890  1.00  0.00    -0.262 C  
HETATM   29  O   UNL     1     -11.039   5.239  73.695  1.00  0.00    -0.297 OA 
HETATM   30  C   UNL     1      -8.675   6.525  70.399  1.00  0.00    -0.147 C  
HETATM   31  C   UNL     1      -8.734   4.988  70.335  1.00  0.00    -0.128 C  
HETATM   32  O   UNL     1     -11.084   7.443  73.280  1.00  0.00    -0.365 OA 
HETATM   33  C   UNL     1     -10.030   4.636  71.098  1.00  0.00    -0.265 C  
BRANCH  31  34
HETATM   34  C   UNL     1      -8.715   4.358  68.909  1.00  0.00    -0.114 C  
HETATM   35  C   UNL     1      -6.487   3.159  69.116  1.00  0.00    -0.029 C  
HETATM   36  C   UNL     1      -7.157   1.790  69.106  1.00  0.00    -0.036 C  
HETATM   37  C   UNL     1      -8.628   1.843  69.516  1.00  0.00    -0.098 C  
HETATM   38  C   UNL     1      -7.308   4.166  68.318  1.00  0.00    -0.060 C  
HETATM   39  C   UNL     1      -9.418   2.978  68.853  1.00  0.00    -0.176 C  
ENDBRANCH  31  34
ENDBRANCH  23  24
ENDBRANCH  11  23
ENDBRANCH  10  11
ENDBRANCH   6  10
ENDBRANCH   5   6
ENDBRANCH   3   5
ENDBRANCH   2   3
TORSDOF 13
ENDMDL
MODEL      137
REMARK 921   NORMALIZED FREE ENERGY PREDICTED BY IDOCK:   -4.59 KCAL/MOL
REMARK 922        TOTAL FREE ENERGY PREDICTED BY IDOCK:  -10.54 KCAL/MOL
REMARK 923 INTER-LIGAND FREE ENERGY PREDICTED BY IDOCK:   -9.55 KCAL/MOL
REMARK 924 INTRA-LIGAND FREE ENERGY PREDICTED BY IDOCK:   -1.00 KCAL/MOL
REMARK 927      BINDING AFFINITY PREDICTED BY RF-SCORE:    0.00 PKD
ROOT
HETATM    1  C   UNL     1     -12.131  11.675  68.998  1.00  0.00    -0.288 C  
HETATM    2  C   UNL     1     -11.746  12.835  68.098  1.00  0.00    -0.392 C  
ENDROOT
BRANCH   2   3
HETATM    3  C   UNL     1     -10.531  13.671  68.493  1.00  0.00    -0.244 C  
HETATM    4  O   UNL     1     -10.593  14.568  69.328  1.00  0.00    -0.250 OA 
BRANCH   3   5
HETATM    5  O   UNL     1      -9.386  13.237  67.913  1.00  0.00    -0.198 OA 
BRANCH   5   6
HETATM    6  C   UNL     1      -8.115  13.777  68.397  1.00  0.00    -0.148 C  
HETATM    7  C   UNL     1      -7.513  14.658  67.243  1.00  0.00    -0.148 C  
HETATM    8  C   UNL     1      -6.161  15.285  67.580  1.00  0.00    -0.139 C  
HETATM    9  C   UNL     1      -8.465  15.758  66.768  1.00  0.00    -0.304 C  
BRANCH   6  10
HETATM   10  O   UNL     1      -7.148  12.792  68.872  1.00  0.00    -0.100 OA 
BRANCH  10  11
HETATM   11  P   UNL     1      -6.857  11.469  67.902  1.00  0.00    -0.085 P  
HETATM   12  O   UNL     1      -6.188  12.350  66.819  1.00  0.00    -0.178 OA 
BRANCH  11  13
HETATM   13  C   UNL     1      -8.480  11.311  66.805  1.00  0.00    -0.161 C  
BRANCH  13  14
HETATM   14  C   UNL     1      -8.251  10.470  65.544  1.00  0.00    -0.162 C  
BRANCH  14  15
HETATM   15  C   UNL     1      -9.516  10.173  64.758  1.00  0.00    -0.355 C  
BRANCH  15  16
HETATM   16  C   UNL     1      -9.719  11.264  63.695  1.00  0.00    -0.351 C  
BRANCH  16  17
HETATM   17  C   UNL     1     -10.717  12.283  64.169  1.00  0.00    -0.412 A  
HETATM   18  C   UNL     1     -10.309  13.585  64.489  1.00  0.00    -0.381 A  
HETATM   19  C   UNL     1     -12.075  11.951  64.235  1.00  0.00    -0.344 A  
HETATM   20  C   UNL     1     -12.602  14.205  64.933  1.00  0.00    -0.362 A  
HETATM   21  C   UNL     1     -11.254  14.540  64.878  1.00  0.00    -0.395 A  
HETATM   22  C   UNL     1     -13.011  12.913  64.612  1.00  0.00    -0.204 A  
ENDBRANCH  16  17
ENDBRANCH  15  16
ENDBRANCH  14  15
ENDBRANCH  13  14
ENDBRANCH  11  13
BRANCH  11  23
HETATM   23  C   UNL     1      -7.647  10.427  69.182  1.00  0.00    -0.117 C  
BRANCH  23  24
HETATM   24  C   UNL     1      -7.839   8.956  68.771  1.00  0.00    -0.101 C  
HETATM   25  C   UNL     1      -9.097   6.788  68.773  1.00  0.00    -0.132 C  
HETATM   26  O   UNL     1      -6.926   8.361  68.183  1.00  0.00    -0.077 OA 
HETATM   27  N   UNL     1      -9.008   8.256  68.977  1.00  0.00    -0.147 N  
HETATM   28  C   UNL     1      -9.089   6.229  67.323  1.00  0.00    -0.116 C  
HETATM   29  O   UNL     1      -9.644   5.187  66.990  1.00  0.00    -0.130 OA 
HETATM   30  C   UNL     1     -10.346   8.786  69.149  1.00  0.00    -0.217 C  
HETATM   31  C   UNL     1     -11.154   7.678  69.849  1.00  0.00    -0.160 C  
HETATM   32  O   UNL     1      -8.305   6.906  66.457  1.00  0.00    -0.113 OA 
HETATM   33  C   UNL     1     -10.413   6.380  69.462  1.00  0.00    -0.279 C  
BRANCH  31  34
HETATM   34  C   UNL     1     -11.309   7.814  71.395  1.00  0.00    -0.281 C  
HETATM   35  C   UNL     1     -13.249   9.451  71.381  1.00  0.00    -0.415 C  
HETATM   36  C   UNL     1     -14.211   8.406  71.935  1.00  0.00    -0.541 C  
HETATM   37  C   UNL     1     -13.740   6.974  71.691  1.00  0.00    -0.348 C  
HETATM   38  C   UNL     1     -11.828   9.184  71.863  1.00  0.00    -0.439 C  
HETATM   39  C   UNL     1     -12.255   6.745  72.000  1.00  0.00    -0.331 C  
ENDBRANCH  31  34
ENDBRANCH  23  24
ENDBRANCH  11  23
ENDBRANCH  10  11
ENDBRANCH   6  10
ENDBRANCH   5   6
ENDBRANCH   3   5
ENDBRANCH   2   3
TORSDOF 13
ENDMDL
MODEL      138
REMARK 921   NORMALIZED FREE ENERGY PREDICTED BY IDOCK:   -4.58 KCAL/MOL
REMARK 922        TOTAL FREE ENERGY PREDICTED BY IDOCK:  -10.53 KCAL/MOL
REMARK 923 INTER-LIGAND FREE ENERGY PREDICTED BY IDOCK:  -10.37 KCAL/MOL
REMARK 924 INTRA-LIGAND FREE ENERGY PREDICTED BY IDOCK:   -0.15 KCAL/MOL
REMARK 927      BINDING AFFINITY PREDICTED BY RF-SCORE:    0.00 PKD
ROOT
HETATM    1  C   UNL     1      -6.150  13.936  67.986  1.00  0.00    -0.142 C  
HETATM    2  C   UNL     1      -6.052  15.436  67.777  1.00  0.00    -0.173 C  
ENDROOT
BRANCH   2   3
HETATM    3  C   UNL     1      -7.256  16.290  68.168  1.00  0.00    -0.142 C  
HETATM    4  O   UNL     1      -7.736  16.273  69.296  1.00  0.00    -0.231 OA 
BRANCH   3   5
HETATM    5  O   UNL     1      -7.643  17.133  67.179  1.00  0.00    -0.158 OA 
BRANCH   5   6
HETATM    6  C   UNL     1      -9.075  17.307  66.938  1.00  0.00    -0.236 C  
HETATM    7  C   UNL     1      -9.521  18.610  67.696  1.00  0.00    -0.316 C  
HETATM    8  C   UNL     1     -11.010  18.927  67.564  1.00  0.00    -0.312 C  
HETATM    9  C   UNL     1      -8.713  19.845  67.293  1.00  0.00    -0.399 C  
BRANCH   6  10
HETATM   10  O   UNL     1      -9.920  16.171  67.293  1.00  0.00    -0.239 OA 
BRANCH  10  11
HETATM   11  P   UNL     1     -10.045  14.929  66.189  1.00  0.00    -0.339 P  
HETATM   12  O   UNL     1     -10.515  15.900  65.079  1.00  0.00    -0.518 OA 
BRANCH  11  13
HETATM   13  C   UNL     1     -11.880  14.264  66.419  1.00  0.00    -0.411 C  
BRANCH  13  14
HETATM   14  C   UNL     1     -12.321  13.362  65.261  1.00  0.00    -0.513 C  
BRANCH  14  15
HETATM   15  C   UNL     1     -11.293  13.227  64.153  1.00  0.00    -0.424 C  
BRANCH  15  16
HETATM   16  C   UNL     1     -11.362  11.807  63.568  1.00  0.00    -0.496 C  
BRANCH  16  17
HETATM   17  C   UNL     1     -10.063  11.082  63.786  1.00  0.00    -0.420 A  
HETATM   18  C   UNL     1      -9.440  11.098  65.041  1.00  0.00    -0.259 A  
HETATM   19  C   UNL     1      -9.499  10.334  62.746  1.00  0.00    -0.323 A  
HETATM   20  C   UNL     1      -7.710   9.629  64.210  1.00  0.00    -0.129 A  
HETATM   21  C   UNL     1      -8.259  10.376  65.246  1.00  0.00    -0.162 A  
HETATM   22  C   UNL     1      -8.329   9.608  62.963  1.00  0.00    -0.168 A  
ENDBRANCH  16  17
ENDBRANCH  15  16
ENDBRANCH  14  15
ENDBRANCH  13  14
ENDBRANCH  11  13
BRANCH  11  23
HETATM   23  C   UNL     1      -9.489  13.782  67.502  1.00  0.00    -0.220 C  
BRANCH  23  24
HETATM   24  C   UNL     1     -10.634  13.117  68.289  1.00  0.00    -0.248 C  
HETATM   25  C   UNL     1     -11.751  11.144  69.356  1.00  0.00    -0.332 C  
HETATM   26  O   UNL     1     -11.662  13.761  68.534  1.00  0.00    -0.313 OA 
HETATM   27  N   UNL     1     -10.564  11.837  68.794  1.00  0.00    -0.212 N  
HETATM   28  C   UNL     1     -12.300  11.593  70.738  1.00  0.00    -0.358 C  
HETATM   29  O   UNL     1     -12.882  10.847  71.518  1.00  0.00    -0.411 OA 
HETATM   30  C   UNL     1      -9.379  11.066  69.113  1.00  0.00    -0.021 C  
HETATM   31  C   UNL     1      -9.822   9.592  69.125  1.00  0.00    -0.189 C  
HETATM   32  O   UNL     1     -12.212  12.919  70.981  1.00  0.00    -0.309 OA 
HETATM   33  C   UNL     1     -11.332   9.663  69.438  1.00  0.00    -0.038 C  
BRANCH  31  34
HETATM   34  C   UNL     1      -9.541   8.779  67.824  1.00  0.00    -0.177 C  
HETATM   35  C   UNL     1      -8.190   6.915  68.896  1.00  0.00    -0.121 C  
HETATM   36  C   UNL     1      -9.289   5.891  68.635  1.00  0.00    -0.126 C  
HETATM   37  C   UNL     1     -10.663   6.527  68.436  1.00  0.00    -0.339 C  
HETATM   38  C   UNL     1      -8.210   8.008  67.833  1.00  0.00    -0.129 C  
HETATM   39  C   UNL     1     -10.654   7.748  67.508  1.00  0.00    -0.319 C  
ENDBRANCH  31  34
ENDBRANCH  23  24
ENDBRANCH  11  23
ENDBRANCH  10  11
ENDBRANCH   6  10
ENDBRANCH   5   6
ENDBRANCH   3   5
ENDBRANCH   2   3
TORSDOF 13
ENDMDL
MODEL      139
REMARK 921   NORMALIZED FREE ENERGY PREDICTED BY IDOCK:   -4.58 KCAL/MOL
REMARK 922        TOTAL FREE ENERGY PREDICTED BY IDOCK:  -10.53 KCAL/MOL
REMARK 923 INTER-LIGAND FREE ENERGY PREDICTED BY IDOCK:   -7.71 KCAL/MOL
REMARK 924 INTRA-LIGAND FREE ENERGY PREDICTED BY IDOCK:   -2.82 KCAL/MOL
REMARK 927      BINDING AFFINITY PREDICTED BY RF-SCORE:    0.00 PKD
ROOT
HETATM    1  C   UNL     1     -10.692   5.292  74.221  1.00  0.00    -0.151 C  
HETATM    2  C   UNL     1     -11.109   4.818  72.840  1.00  0.00    -0.301 C  
ENDROOT
BRANCH   2   3
HETATM    3  C   UNL     1     -10.244   5.233  71.652  1.00  0.00    -0.212 C  
HETATM    4  O   UNL     1     -10.595   5.058  70.490  1.00  0.00    -0.209 OA 
BRANCH   3   5
HETATM    5  O   UNL     1      -9.128   5.906  72.027  1.00  0.00    -0.144 OA 
BRANCH   5   6
HETATM    6  C   UNL     1      -7.871   5.594  71.347  1.00  0.00    -0.111 C  
HETATM    7  C   UNL     1      -6.956   4.840  72.381  1.00  0.00    -0.070 C  
HETATM    8  C   UNL     1      -5.582   4.459  71.832  1.00  0.00    -0.011 C  
HETATM    9  C   UNL     1      -7.619   3.593  72.969  1.00  0.00    -0.065 C  
BRANCH   6  10
HETATM   10  O   UNL     1      -7.173   6.731  70.753  1.00  0.00    -0.067 OA 
BRANCH  10  11
HETATM   11  P   UNL     1      -7.722   7.287  69.282  1.00  0.00    -0.110 P  
HETATM   12  O   UNL     1      -7.704   5.860  68.682  1.00  0.00    -0.091 OA 
BRANCH  11  13
HETATM   13  C   UNL     1      -6.082   7.746  68.299  1.00  0.00    -0.040 C  
BRANCH  13  14
HETATM   14  C   UNL     1      -6.265   7.639  66.781  1.00  0.00    -0.049 C  
BRANCH  14  15
HETATM   15  C   UNL     1      -7.130   8.733  66.181  1.00  0.00    -0.085 C  
BRANCH  15  16
HETATM   16  C   UNL     1      -8.439   8.116  65.663  1.00  0.00    -0.170 C  
BRANCH  16  17
HETATM   17  C   UNL     1      -8.150   7.016  64.680  1.00  0.00    -0.083 A  
HETATM   18  C   UNL     1      -7.602   7.308  63.425  1.00  0.00    -0.117 A  
HETATM   19  C   UNL     1      -8.374   5.682  65.041  1.00  0.00    -0.146 A  
HETATM   20  C   UNL     1      -7.505   4.948  62.908  1.00  0.00    -0.049 A  
HETATM   21  C   UNL     1      -7.287   6.271  62.539  1.00  0.00    -0.057 A  
HETATM   22  C   UNL     1      -8.046   4.655  64.157  1.00  0.00    -0.104 A  
ENDBRANCH  16  17
ENDBRANCH  15  16
ENDBRANCH  14  15
ENDBRANCH  13  14
ENDBRANCH  11  13
BRANCH  11  23
HETATM   23  C   UNL     1      -7.743   8.974  69.990  1.00  0.00    -0.082 C  
BRANCH  23  24
HETATM   24  C   UNL     1      -9.099   9.394  70.587  1.00  0.00    -0.233 C  
HETATM   25  C   UNL     1     -11.353  10.482  70.446  1.00  0.00    -0.328 C  
HETATM   26  O   UNL     1      -9.306   9.250  71.799  1.00  0.00    -0.309 OA 
HETATM   27  N   UNL     1     -10.141   9.884  69.830  1.00  0.00    -0.245 N  
HETATM   28  C   UNL     1     -12.380   9.548  71.145  1.00  0.00    -0.326 C  
HETATM   29  O   UNL     1     -13.580   9.790  71.224  1.00  0.00    -0.344 OA 
HETATM   30  C   UNL     1     -10.385   9.690  68.414  1.00  0.00    -0.204 C  
HETATM   31  C   UNL     1     -11.324  10.832  67.985  1.00  0.00    -0.378 C  
HETATM   32  O   UNL     1     -11.840   8.492  71.790  1.00  0.00    -0.290 OA 
HETATM   33  C   UNL     1     -12.051  11.222  69.290  1.00  0.00    -0.372 C  
BRANCH  31  34
HETATM   34  C   UNL     1     -10.644  12.065  67.313  1.00  0.00    -0.252 C  
HETATM   35  C   UNL     1     -10.446  11.089  64.978  1.00  0.00    -0.344 C  
HETATM   36  C   UNL     1     -11.482  12.059  64.422  1.00  0.00    -0.413 C  
HETATM   37  C   UNL     1     -12.402  12.630  65.499  1.00  0.00    -0.455 C  
HETATM   38  C   UNL     1      -9.699  11.713  66.152  1.00  0.00    -0.253 C  
HETATM   39  C   UNL     1     -11.668  13.090  66.765  1.00  0.00    -0.440 C  
ENDBRANCH  31  34
ENDBRANCH  23  24
ENDBRANCH  11  23
ENDBRANCH  10  11
ENDBRANCH   6  10
ENDBRANCH   5   6
ENDBRANCH   3   5
ENDBRANCH   2   3
TORSDOF 13
ENDMDL
MODEL      140
REMARK 921   NORMALIZED FREE ENERGY PREDICTED BY IDOCK:   -4.57 KCAL/MOL
REMARK 922        TOTAL FREE ENERGY PREDICTED BY IDOCK:  -10.52 KCAL/MOL
REMARK 923 INTER-LIGAND FREE ENERGY PREDICTED BY IDOCK:   -8.96 KCAL/MOL
REMARK 924 INTRA-LIGAND FREE ENERGY PREDICTED BY IDOCK:   -1.55 KCAL/MOL
REMARK 927      BINDING AFFINITY PREDICTED BY RF-SCORE:    0.00 PKD
ROOT
HETATM    1  C   UNL     1      -6.784   5.838  69.524  1.00  0.00    -0.059 C  
HETATM    2  C   UNL     1      -7.622   6.795  68.696  1.00  0.00    -0.105 C  
ENDROOT
BRANCH   2   3
HETATM    3  C   UNL     1      -8.984   6.310  68.207  1.00  0.00    -0.115 C  
HETATM    4  O   UNL     1      -9.215   5.130  67.967  1.00  0.00    -0.110 OA 
BRANCH   3   5
HETATM    5  O   UNL     1      -9.914   7.296  68.185  1.00  0.00    -0.149 OA 
BRANCH   5   6
HETATM    6  C   UNL     1      -9.657   8.509  68.961  1.00  0.00    -0.167 C  
HETATM    7  C   UNL     1     -10.946   8.800  69.813  1.00  0.00    -0.146 C  
HETATM    8  C   UNL     1     -10.852  10.059  70.674  1.00  0.00    -0.367 C  
HETATM    9  C   UNL     1     -11.357   7.622  70.700  1.00  0.00    -0.288 C  
BRANCH   6  10
HETATM   10  O   UNL     1      -9.256   9.682  68.190  1.00  0.00    -0.126 OA 
BRANCH  10  11
HETATM   11  P   UNL     1     -10.232  10.138  66.919  1.00  0.00    -0.230 P  
HETATM   12  O   UNL     1     -10.022   8.778  66.208  1.00  0.00    -0.283 OA 
BRANCH  11  13
HETATM   13  C   UNL     1      -9.002  11.013  65.658  1.00  0.00    -0.199 C  
BRANCH  13  14
HETATM   14  C   UNL     1      -8.107  10.008  64.926  1.00  0.00    -0.154 C  
BRANCH  14  15
HETATM   15  C   UNL     1      -6.901   9.552  65.728  1.00  0.00    -0.087 C  
BRANCH  15  16
HETATM   16  C   UNL     1      -5.914  10.722  65.867  1.00  0.00    -0.135 C  
BRANCH  16  17
HETATM   17  C   UNL     1      -6.018  11.340  67.234  1.00  0.00    -0.072 A  
HETATM   18  C   UNL     1      -6.289  10.546  68.356  1.00  0.00    -0.054 A  
HETATM   19  C   UNL     1      -5.782  12.709  67.400  1.00  0.00    -0.104 A  
HETATM   20  C   UNL     1      -6.086  12.483  69.787  1.00  0.00    -0.134 A  
HETATM   21  C   UNL     1      -6.330  11.123  69.630  1.00  0.00    -0.119 A  
HETATM   22  C   UNL     1      -5.813  13.274  68.674  1.00  0.00    -0.083 A  
ENDBRANCH  16  17
ENDBRANCH  15  16
ENDBRANCH  14  15
ENDBRANCH  13  14
ENDBRANCH  11  13
BRANCH  11  23
HETATM   23  C   UNL     1     -10.479  11.745  67.758  1.00  0.00    -0.194 C  
BRANCH  23  24
HETATM   24  C   UNL     1     -11.163  12.815  66.887  1.00  0.00    -0.296 C  
HETATM   25  C   UNL     1     -11.407  15.151  66.011  1.00  0.00    -0.221 C  
HETATM   26  O   UNL     1     -12.220  12.545  66.303  1.00  0.00    -0.600 OA 
HETATM   27  N   UNL     1     -10.633  14.069  66.670  1.00  0.00    -0.273 N  
HETATM   28  C   UNL     1     -11.669  15.064  64.482  1.00  0.00    -0.368 C  
HETATM   29  O   UNL     1     -11.810  16.043  63.757  1.00  0.00    -0.782 OA 
HETATM   30  C   UNL     1      -9.248  14.483  66.774  1.00  0.00    -0.267 C  
HETATM   31  C   UNL     1      -9.274  16.011  66.955  1.00  0.00    -0.229 C  
HETATM   32  O   UNL     1     -11.867  13.815  64.010  1.00  0.00    -0.413 OA 
HETATM   33  C   UNL     1     -10.613  16.436  66.314  1.00  0.00    -0.243 C  
BRANCH  31  34
HETATM   34  C   UNL     1      -9.146  16.532  68.420  1.00  0.00    -0.222 C  
HETATM   35  C   UNL     1      -7.043  17.915  68.085  1.00  0.00    -0.224 C  
HETATM   36  C   UNL     1      -7.803  19.223  68.277  1.00  0.00    -0.354 C  
HETATM   37  C   UNL     1      -9.302  19.085  68.017  1.00  0.00    -0.365 C  
HETATM   38  C   UNL     1      -7.700  16.790  68.876  1.00  0.00    -0.242 C  
HETATM   39  C   UNL     1      -9.934  17.845  68.661  1.00  0.00    -0.387 C  
ENDBRANCH  31  34
ENDBRANCH  23  24
ENDBRANCH  11  23
ENDBRANCH  10  11
ENDBRANCH   6  10
ENDBRANCH   5   6
ENDBRANCH   3   5
ENDBRANCH   2   3
TORSDOF 13
ENDMDL
MODEL      141
REMARK 921   NORMALIZED FREE ENERGY PREDICTED BY IDOCK:   -4.57 KCAL/MOL
REMARK 922        TOTAL FREE ENERGY PREDICTED BY IDOCK:  -10.51 KCAL/MOL
REMARK 923 INTER-LIGAND FREE ENERGY PREDICTED BY IDOCK:   -8.35 KCAL/MOL
REMARK 924 INTRA-LIGAND FREE ENERGY PREDICTED BY IDOCK:   -2.16 KCAL/MOL
REMARK 927      BINDING AFFINITY PREDICTED BY RF-SCORE:    0.00 PKD
ROOT
HETATM    1  C   UNL     1     -10.780   5.152  73.629  1.00  0.00    -0.345 C  
HETATM    2  C   UNL     1     -11.387   5.203  72.239  1.00  0.00    -0.058 C  
ENDROOT
BRANCH   2   3
HETATM    3  C   UNL     1     -11.316   6.524  71.477  1.00  0.00    -0.291 C  
HETATM    4  O   UNL     1     -12.035   6.768  70.514  1.00  0.00    -0.386 OA 
BRANCH   3   5
HETATM    5  O   UNL     1     -10.470   7.414  72.051  1.00  0.00    -0.195 OA 
BRANCH   5   6
HETATM    6  C   UNL     1      -9.388   7.967  71.236  1.00  0.00    -0.150 C  
HETATM    7  C   UNL     1      -8.070   7.880  72.089  1.00  0.00    -0.154 C  
HETATM    8  C   UNL     1      -6.836   8.443  71.386  1.00  0.00    -0.069 C  
HETATM    9  C   UNL     1      -7.762   6.462  72.574  1.00  0.00    -0.101 C  
BRANCH   6  10
HETATM   10  O   UNL     1      -9.603   9.320  70.730  1.00  0.00    -0.245 OA 
BRANCH  10  11
HETATM   11  P   UNL     1      -9.795   9.504  69.085  1.00  0.00    -0.198 P  
HETATM   12  O   UNL     1      -9.427   8.022  68.828  1.00  0.00    -0.147 OA 
BRANCH  11  13
HETATM   13  C   UNL     1      -8.023  10.078  68.455  1.00  0.00    -0.102 C  
BRANCH  13  14
HETATM   14  C   UNL     1      -7.459   9.148  67.376  1.00  0.00    -0.084 C  
BRANCH  14  15
HETATM   15  C   UNL     1      -7.397   9.769  65.992  1.00  0.00    -0.102 C  
BRANCH  15  16
HETATM   16  C   UNL     1      -8.503   9.161  65.115  1.00  0.00    -0.182 C  
BRANCH  16  17
HETATM   17  C   UNL     1      -8.266   7.691  64.910  1.00  0.00    -0.098 A  
HETATM   18  C   UNL     1      -7.302   7.245  63.997  1.00  0.00    -0.088 A  
HETATM   19  C   UNL     1      -8.970   6.758  65.680  1.00  0.00     0.019 A  
HETATM   20  C   UNL     1      -7.751   4.955  64.629  1.00  0.00    -0.079 A  
HETATM   21  C   UNL     1      -7.053   5.875  63.854  1.00  0.00    -0.052 A  
HETATM   22  C   UNL     1      -8.707   5.396  65.540  1.00  0.00    -0.154 A  
ENDBRANCH  16  17
ENDBRANCH  15  16
ENDBRANCH  14  15
ENDBRANCH  13  14
ENDBRANCH  11  13
BRANCH  11  23
HETATM   23  C   UNL     1     -10.230  11.255  69.388  1.00  0.00     0.051 C  
BRANCH  23  24
HETATM   24  C   UNL     1     -11.190  11.859  68.346  1.00  0.00    -0.258 C  
HETATM   25  C   UNL     1     -12.008  13.729  66.891  1.00  0.00    -0.421 C  
HETATM   26  O   UNL     1     -12.193  11.223  67.998  1.00  0.00    -0.621 OA 
HETATM   27  N   UNL     1     -10.971  13.068  67.724  1.00  0.00    -0.244 N  
HETATM   28  C   UNL     1     -12.337  13.138  65.492  1.00  0.00    -0.474 C  
HETATM   29  O   UNL     1     -12.740  13.806  64.546  1.00  0.00    -0.643 OA 
HETATM   30  C   UNL     1      -9.711  13.759  67.534  1.00  0.00    -0.230 C  
HETATM   31  C   UNL     1     -10.070  15.235  67.283  1.00  0.00    -0.236 C  
HETATM   32  O   UNL     1     -12.277  11.791  65.415  1.00  0.00    -0.266 OA 
HETATM   33  C   UNL     1     -11.507  15.176  66.721  1.00  0.00    -0.195 C  
BRANCH  31  34
HETATM   34  C   UNL     1      -9.972  16.185  68.516  1.00  0.00    -0.229 C  
HETATM   35  C   UNL     1      -7.507  16.751  68.290  1.00  0.00    -0.186 C  
HETATM   36  C   UNL     1      -7.814  18.194  67.904  1.00  0.00    -0.247 C  
HETATM   37  C   UNL     1      -9.227  18.375  67.353  1.00  0.00    -0.275 C  
HETATM   38  C   UNL     1      -8.595  16.195  69.202  1.00  0.00    -0.235 C  
HETATM   39  C   UNL     1     -10.310  17.657  68.168  1.00  0.00    -0.386 C  
ENDBRANCH  31  34
ENDBRANCH  23  24
ENDBRANCH  11  23
ENDBRANCH  10  11
ENDBRANCH   6  10
ENDBRANCH   5   6
ENDBRANCH   3   5
ENDBRANCH   2   3
TORSDOF 13
ENDMDL
MODEL      142
REMARK 921   NORMALIZED FREE ENERGY PREDICTED BY IDOCK:   -4.56 KCAL/MOL
REMARK 922        TOTAL FREE ENERGY PREDICTED BY IDOCK:  -10.49 KCAL/MOL
REMARK 923 INTER-LIGAND FREE ENERGY PREDICTED BY IDOCK:   -9.48 KCAL/MOL
REMARK 924 INTRA-LIGAND FREE ENERGY PREDICTED BY IDOCK:   -1.00 KCAL/MOL
REMARK 927      BINDING AFFINITY PREDICTED BY RF-SCORE:    0.00 PKD
ROOT
HETATM    1  C   UNL     1      -6.789   7.628  66.847  1.00  0.00    -0.068 C  
HETATM    2  C   UNL     1      -7.725   8.819  66.746  1.00  0.00    -0.094 C  
ENDROOT
BRANCH   2   3
HETATM    3  C   UNL     1      -8.205   9.233  65.357  1.00  0.00    -0.127 C  
HETATM    4  O   UNL     1      -8.194   8.465  64.401  1.00  0.00    -0.160 OA 
BRANCH   3   5
HETATM    5  O   UNL     1      -8.738  10.480  65.337  1.00  0.00    -0.172 OA 
BRANCH   5   6
HETATM    6  C   UNL     1     -10.193  10.612  65.407  1.00  0.00    -0.273 C  
HETATM    7  C   UNL     1     -10.578  11.934  64.648  1.00  0.00    -0.353 C  
HETATM    8  C   UNL     1     -12.076  12.236  64.646  1.00  0.00    -0.449 C  
HETATM    9  C   UNL     1     -10.063  11.970  63.208  1.00  0.00    -0.379 C  
BRANCH   6  10
HETATM   10  O   UNL     1     -10.769  10.584  66.748  1.00  0.00    -0.240 OA 
BRANCH  10  11
HETATM   11  P   UNL     1     -10.326  11.797  67.801  1.00  0.00    -0.206 P  
HETATM   12  O   UNL     1      -9.004  12.045  67.035  1.00  0.00    -0.184 OA 
BRANCH  11  13
HETATM   13  C   UNL     1      -9.351  10.862  69.230  1.00  0.00    -0.006 C  
BRANCH  13  14
HETATM   14  C   UNL     1      -9.977   9.505  69.569  1.00  0.00    -0.205 C  
BRANCH  14  15
HETATM   15  C   UNL     1     -10.214   9.285  71.053  1.00  0.00    -0.384 C  
BRANCH  15  16
HETATM   16  C   UNL     1      -9.829   7.843  71.418  1.00  0.00    -0.203 C  
BRANCH  16  17
HETATM   17  C   UNL     1      -8.334   7.689  71.456  1.00  0.00    -0.114 A  
HETATM   18  C   UNL     1      -7.586   8.252  72.498  1.00  0.00    -0.159 A  
HETATM   19  C   UNL     1      -7.687   6.926  70.477  1.00  0.00    -0.096 A  
HETATM   20  C   UNL     1      -5.567   7.291  71.580  1.00  0.00    -0.036 A  
HETATM   21  C   UNL     1      -6.201   8.056  72.552  1.00  0.00    -0.064 A  
HETATM   22  C   UNL     1      -6.308   6.727  70.545  1.00  0.00    -0.039 A  
ENDBRANCH  16  17
ENDBRANCH  15  16
ENDBRANCH  14  15
ENDBRANCH  13  14
ENDBRANCH  11  13
BRANCH  11  23
HETATM   23  C   UNL     1     -11.889  11.504  68.707  1.00  0.00    -0.330 C  
BRANCH  23  24
HETATM   24  C   UNL     1     -12.109  12.440  69.910  1.00  0.00    -0.247 C  
HETATM   25  C   UNL     1     -12.033  14.681  71.032  1.00  0.00    -0.339 C  
HETATM   26  O   UNL     1     -12.414  11.962  71.010  1.00  0.00    -0.369 OA 
HETATM   27  N   UNL     1     -12.034  13.814  69.826  1.00  0.00    -0.325 N  
HETATM   28  C   UNL     1     -13.355  14.862  71.827  1.00  0.00    -0.361 C  
HETATM   29  O   UNL     1     -13.634  15.870  72.469  1.00  0.00    -0.497 OA 
HETATM   30  C   UNL     1     -12.205  14.647  68.652  1.00  0.00    -0.103 C  
HETATM   31  C   UNL     1     -11.520  15.986  68.979  1.00  0.00    -0.360 C  
HETATM   32  O   UNL     1     -14.142  13.766  71.880  1.00  0.00    -0.416 OA 
HETATM   33  C   UNL     1     -11.560  16.055  70.521  1.00  0.00    -0.383 C  
BRANCH  31  34
HETATM   34  C   UNL     1     -10.070  16.168  68.432  1.00  0.00    -0.236 C  
HETATM   35  C   UNL     1     -10.695  16.641  66.017  1.00  0.00    -0.153 C  
HETATM   36  C   UNL     1     -10.241  18.092  66.123  1.00  0.00    -0.372 C  
HETATM   37  C   UNL     1     -10.207  18.602  67.562  1.00  0.00    -0.425 C  
HETATM   38  C   UNL     1      -9.890  15.755  66.962  1.00  0.00    -0.238 C  
HETATM   39  C   UNL     1      -9.561  17.627  68.554  1.00  0.00    -0.315 C  
ENDBRANCH  31  34
ENDBRANCH  23  24
ENDBRANCH  11  23
ENDBRANCH  10  11
ENDBRANCH   6  10
ENDBRANCH   5   6
ENDBRANCH   3   5
ENDBRANCH   2   3
TORSDOF 13
ENDMDL
MODEL      143
REMARK 921   NORMALIZED FREE ENERGY PREDICTED BY IDOCK:   -4.56 KCAL/MOL
REMARK 922        TOTAL FREE ENERGY PREDICTED BY IDOCK:  -10.48 KCAL/MOL
REMARK 923 INTER-LIGAND FREE ENERGY PREDICTED BY IDOCK:   -8.52 KCAL/MOL
REMARK 924 INTRA-LIGAND FREE ENERGY PREDICTED BY IDOCK:   -1.96 KCAL/MOL
REMARK 927      BINDING AFFINITY PREDICTED BY RF-SCORE:    0.00 PKD
ROOT
HETATM    1  C   UNL     1     -11.078   7.645  72.743  1.00  0.00    -0.437 C  
HETATM    2  C   UNL     1     -10.239   7.363  71.510  1.00  0.00    -0.205 C  
ENDROOT
BRANCH   2   3
HETATM    3  C   UNL     1     -10.007   8.509  70.528  1.00  0.00    -0.188 C  
HETATM    4  O   UNL     1      -9.782   9.657  70.897  1.00  0.00    -0.225 OA 
BRANCH   3   5
HETATM    5  O   UNL     1      -9.964   8.092  69.239  1.00  0.00    -0.179 OA 
BRANCH   5   6
HETATM    6  C   UNL     1      -8.984   8.708  68.344  1.00  0.00    -0.142 C  
HETATM    7  C   UNL     1      -7.577   8.577  69.032  1.00  0.00    -0.094 C  
HETATM    8  C   UNL     1      -6.432   9.196  68.231  1.00  0.00    -0.055 C  
HETATM    9  C   UNL     1      -7.213   7.133  69.382  1.00  0.00    -0.084 C  
BRANCH   6  10
HETATM   10  O   UNL     1      -9.258  10.089  67.957  1.00  0.00    -0.134 OA 
BRANCH  10  11
HETATM   11  P   UNL     1     -10.650  10.383  67.090  1.00  0.00    -0.223 P  
HETATM   12  O   UNL     1     -10.963   8.871  66.988  1.00  0.00    -0.086 OA 
BRANCH  11  13
HETATM   13  C   UNL     1     -10.053  10.411  65.217  1.00  0.00    -0.300 C  
BRANCH  13  14
HETATM   14  C   UNL     1      -8.573  10.042  65.073  1.00  0.00    -0.173 C  
BRANCH  14  15
HETATM   15  C   UNL     1      -8.326   8.762  64.294  1.00  0.00    -0.158 C  
BRANCH  15  16
HETATM   16  C   UNL     1      -7.054   8.084  64.828  1.00  0.00    -0.075 C  
BRANCH  16  17
HETATM   17  C   UNL     1      -7.392   6.786  65.505  1.00  0.00    -0.079 A  
HETATM   18  C   UNL     1      -6.378   5.915  65.924  1.00  0.00    -0.042 A  
HETATM   19  C   UNL     1      -8.728   6.468  65.775  1.00  0.00    -0.129 A  
HETATM   20  C   UNL     1      -8.033   4.430  66.872  1.00  0.00    -0.101 A  
HETATM   21  C   UNL     1      -6.704   4.734  66.601  1.00  0.00    -0.051 A  
HETATM   22  C   UNL     1      -9.043   5.295  66.461  1.00  0.00    -0.129 A  
ENDBRANCH  16  17
ENDBRANCH  15  16
ENDBRANCH  14  15
ENDBRANCH  13  14
ENDBRANCH  11  13
BRANCH  11  23
HETATM   23  C   UNL     1     -10.280  12.172  67.211  1.00  0.00    -0.202 C  
BRANCH  23  24
HETATM   24  C   UNL     1     -10.773  12.834  68.511  1.00  0.00    -0.253 C  
HETATM   25  C   UNL     1     -11.310  14.829  69.930  1.00  0.00    -0.271 C  
HETATM   26  O   UNL     1     -10.987  12.135  69.511  1.00  0.00    -0.119 OA 
HETATM   27  N   UNL     1     -11.047  14.179  68.621  1.00  0.00    -0.251 N  
HETATM   28  C   UNL     1     -12.663  14.558  70.645  1.00  0.00    -0.360 C  
HETATM   29  O   UNL     1     -13.211  15.358  71.396  1.00  0.00    -0.434 OA 
HETATM   30  C   UNL     1     -11.382  15.111  67.562  1.00  0.00    -0.320 C  
HETATM   31  C   UNL     1     -11.072  16.513  68.117  1.00  0.00    -0.303 C  
HETATM   32  O   UNL     1     -13.147  13.307  70.490  1.00  0.00     0.041 OA 
HETATM   33  C   UNL     1     -11.184  16.338  69.647  1.00  0.00    -0.311 C  
BRANCH  31  34
HETATM   34  C   UNL     1      -9.697  17.126  67.707  1.00  0.00    -0.271 C  
HETATM   35  C   UNL     1     -10.598  18.923  66.156  1.00  0.00    -0.476 C  
HETATM   36  C   UNL     1     -10.180  20.037  67.110  1.00  0.00    -0.580 C  
HETATM   37  C   UNL     1     -10.005  19.555  68.549  1.00  0.00    -0.538 C  
HETATM   38  C   UNL     1      -9.667  17.724  66.290  1.00  0.00    -0.277 C  
HETATM   39  C   UNL     1      -9.224  18.241  68.674  1.00  0.00    -0.309 C  
ENDBRANCH  31  34
ENDBRANCH  23  24
ENDBRANCH  11  23
ENDBRANCH  10  11
ENDBRANCH   6  10
ENDBRANCH   5   6
ENDBRANCH   3   5
ENDBRANCH   2   3
TORSDOF 13
ENDMDL
MODEL      144
REMARK 921   NORMALIZED FREE ENERGY PREDICTED BY IDOCK:   -4.54 KCAL/MOL
REMARK 922        TOTAL FREE ENERGY PREDICTED BY IDOCK:  -10.46 KCAL/MOL
REMARK 923 INTER-LIGAND FREE ENERGY PREDICTED BY IDOCK:   -8.39 KCAL/MOL
REMARK 924 INTRA-LIGAND FREE ENERGY PREDICTED BY IDOCK:   -2.07 KCAL/MOL
REMARK 927      BINDING AFFINITY PREDICTED BY RF-SCORE:    0.00 PKD
ROOT
HETATM    1  C   UNL     1      -5.680   9.123  73.589  1.00  0.00    -0.039 C  
HETATM    2  C   UNL     1      -6.886   8.357  73.078  1.00  0.00    -0.105 C  
ENDROOT
BRANCH   2   3
HETATM    3  C   UNL     1      -7.187   8.416  71.582  1.00  0.00    -0.091 C  
HETATM    4  O   UNL     1      -7.204   9.470  70.956  1.00  0.00    -0.269 OA 
BRANCH   3   5
HETATM    5  O   UNL     1      -7.311   7.187  71.025  1.00  0.00    -0.073 OA 
BRANCH   5   6
HETATM    6  C   UNL     1      -8.646   6.595  70.943  1.00  0.00    -0.134 C  
HETATM    7  C   UNL     1      -8.588   5.210  71.685  1.00  0.00    -0.132 C  
HETATM    8  C   UNL     1      -9.909   4.442  71.673  1.00  0.00    -0.255 C  
HETATM    9  C   UNL     1      -8.094   5.324  73.129  1.00  0.00    -0.108 C  
BRANCH   6  10
HETATM   10  O   UNL     1      -9.195   6.452  69.597  1.00  0.00    -0.142 OA 
BRANCH  10  11
HETATM   11  P   UNL     1     -10.684   7.136  69.297  1.00  0.00    -0.149 P  
HETATM   12  O   UNL     1     -11.410   5.803  69.597  1.00  0.00    -0.281 OA 
BRANCH  11  13
HETATM   13  C   UNL     1     -10.952   6.877  67.367  1.00  0.00    -0.304 C  
BRANCH  13  14
HETATM   14  C   UNL     1      -9.794   6.113  66.716  1.00  0.00    -0.203 C  
BRANCH  14  15
HETATM   15  C   UNL     1     -10.086   4.645  66.458  1.00  0.00    -0.279 C  
BRANCH  15  16
HETATM   16  C   UNL     1      -8.760   3.892  66.266  1.00  0.00    -0.115 C  
BRANCH  16  17
HETATM   17  C   UNL     1      -8.397   3.135  67.513  1.00  0.00    -0.091 A  
HETATM   18  C   UNL     1      -7.210   3.420  68.200  1.00  0.00    -0.051 A  
HETATM   19  C   UNL     1      -9.280   2.179  68.030  1.00  0.00    -0.242 A  
HETATM   20  C   UNL     1      -7.795   1.804  69.900  1.00  0.00    -0.048 A  
HETATM   21  C   UNL     1      -6.909   2.747  69.389  1.00  0.00    -0.034 A  
HETATM   22  C   UNL     1      -8.977   1.522  69.222  1.00  0.00    -0.132 A  
ENDBRANCH  16  17
ENDBRANCH  15  16
ENDBRANCH  14  15
ENDBRANCH  13  14
ENDBRANCH  11  13
BRANCH  11  23
HETATM   23  C   UNL     1      -9.825   8.713  68.943  1.00  0.00    -0.179 C  
BRANCH  23  24
HETATM   24  C   UNL     1     -10.390   9.927  69.704  1.00  0.00    -0.241 C  
HETATM   25  C   UNL     1     -11.348  12.240  69.810  1.00  0.00    -0.076 C  
HETATM   26  O   UNL     1     -10.339   9.951  70.941  1.00  0.00    -0.253 OA 
HETATM   27  N   UNL     1     -11.008  10.990  69.084  1.00  0.00    -0.221 N  
HETATM   28  C   UNL     1     -12.527  12.224  70.823  1.00  0.00    -0.265 C  
HETATM   29  O   UNL     1     -13.218  13.204  71.082  1.00  0.00    -0.180 OA 
HETATM   30  C   UNL     1     -11.652  11.015  67.786  1.00  0.00    -0.194 C  
HETATM   31  C   UNL     1     -11.695  12.495  67.362  1.00  0.00    -0.432 C  
HETATM   32  O   UNL     1     -12.665  11.074  71.517  1.00  0.00    -0.410 OA 
HETATM   33  C   UNL     1     -11.653  13.264  68.700  1.00  0.00    -0.362 C  
BRANCH  31  34
HETATM   34  C   UNL     1     -10.568  12.964  66.391  1.00  0.00    -0.285 C  
HETATM   35  C   UNL     1     -11.457  11.839  64.297  1.00  0.00    -0.386 C  
HETATM   36  C   UNL     1     -11.802  13.178  63.654  1.00  0.00    -0.549 C  
HETATM   37  C   UNL     1     -11.966  14.303  64.673  1.00  0.00    -0.468 C  
HETATM   38  C   UNL     1     -10.271  11.986  65.243  1.00  0.00    -0.304 C  
HETATM   39  C   UNL     1     -10.868  14.340  65.743  1.00  0.00    -0.303 C  
ENDBRANCH  31  34
ENDBRANCH  23  24
ENDBRANCH  11  23
ENDBRANCH  10  11
ENDBRANCH   6  10
ENDBRANCH   5   6
ENDBRANCH   3   5
ENDBRANCH   2   3
TORSDOF 13
ENDMDL
MODEL      145
REMARK 921   NORMALIZED FREE ENERGY PREDICTED BY IDOCK:   -4.49 KCAL/MOL
REMARK 922        TOTAL FREE ENERGY PREDICTED BY IDOCK:  -10.37 KCAL/MOL
REMARK 923 INTER-LIGAND FREE ENERGY PREDICTED BY IDOCK:   -8.74 KCAL/MOL
REMARK 924 INTRA-LIGAND FREE ENERGY PREDICTED BY IDOCK:   -1.62 KCAL/MOL
REMARK 927      BINDING AFFINITY PREDICTED BY RF-SCORE:    0.00 PKD
ROOT
HETATM    1  C   UNL     1      -7.207   7.591  73.390  1.00  0.00    -0.098 C  
HETATM    2  C   UNL     1      -6.930   8.045  71.968  1.00  0.00    -0.076 C  
ENDROOT
BRANCH   2   3
HETATM    3  C   UNL     1      -8.087   8.640  71.171  1.00  0.00    -0.146 C  
HETATM    4  O   UNL     1      -9.056   9.166  71.709  1.00  0.00    -0.346 OA 
BRANCH   3   5
HETATM    5  O   UNL     1      -7.864   8.623  69.833  1.00  0.00    -0.087 OA 
BRANCH   5   6
HETATM    6  C   UNL     1      -8.049   9.866  69.084  1.00  0.00    -0.118 C  
HETATM    7  C   UNL     1      -6.913  10.855  69.534  1.00  0.00    -0.131 C  
HETATM    8  C   UNL     1      -6.975  12.223  68.856  1.00  0.00    -0.098 C  
HETATM    9  C   UNL     1      -5.508  10.276  69.354  1.00  0.00    -0.038 C  
BRANCH   6  10
HETATM   10  O   UNL     1      -9.367  10.485  69.199  1.00  0.00    -0.194 OA 
BRANCH  10  11
HETATM   11  P   UNL     1     -10.550   9.978  68.141  1.00  0.00    -0.243 P  
HETATM   12  O   UNL     1     -11.147   9.015  69.195  1.00  0.00    -0.074 OA 
BRANCH  11  13
HETATM   13  C   UNL     1      -9.729   8.466  67.190  1.00  0.00    -0.190 C  
BRANCH  13  14
HETATM   14  C   UNL     1     -10.712   7.310  66.976  1.00  0.00    -0.406 C  
BRANCH  14  15
HETATM   15  C   UNL     1     -10.704   6.276  68.088  1.00  0.00    -0.364 C  
BRANCH  15  16
HETATM   16  C   UNL     1      -9.250   5.932  68.449  1.00  0.00    -0.118 C  
BRANCH  16  17
HETATM   17  C   UNL     1      -8.911   4.537  68.005  1.00  0.00    -0.122 A  
HETATM   18  C   UNL     1      -7.888   4.315  67.074  1.00  0.00    -0.097 A  
HETATM   19  C   UNL     1      -9.580   3.444  68.568  1.00  0.00    -0.138 A  
HETATM   20  C   UNL     1      -8.208   1.928  67.278  1.00  0.00    -0.076 A  
HETATM   21  C   UNL     1      -7.544   3.008  66.708  1.00  0.00    -0.075 A  
HETATM   22  C   UNL     1      -9.223   2.146  68.206  1.00  0.00    -0.238 A  
ENDBRANCH  16  17
ENDBRANCH  15  16
ENDBRANCH  14  15
ENDBRANCH  13  14
ENDBRANCH  11  13
BRANCH  11  23
HETATM   23  C   UNL     1      -9.843  11.117  66.894  1.00  0.00    -0.194 C  
BRANCH  23  24
HETATM   24  C   UNL     1     -10.858  12.109  66.296  1.00  0.00    -0.282 C  
HETATM   25  C   UNL     1     -11.753  14.418  65.912  1.00  0.00    -0.369 C  
HETATM   26  O   UNL     1     -11.879  11.681  65.742  1.00  0.00    -0.307 OA 
HETATM   27  N   UNL     1     -10.672  13.474  66.294  1.00  0.00    -0.286 N  
HETATM   28  C   UNL     1     -12.157  14.532  64.416  1.00  0.00    -0.472 C  
HETATM   29  O   UNL     1     -12.610  15.552  63.906  1.00  0.00    -0.677 OA 
HETATM   30  C   UNL     1      -9.424  14.206  66.385  1.00  0.00    -0.269 C  
HETATM   31  C   UNL     1      -9.796  15.621  66.862  1.00  0.00    -0.245 C  
HETATM   32  O   UNL     1     -12.102  13.375  63.722  1.00  0.00    -0.492 OA 
HETATM   33  C   UNL     1     -11.261  15.792  66.406  1.00  0.00     0.034 C  
BRANCH  31  34
HETATM   34  C   UNL     1      -9.631  15.898  68.388  1.00  0.00    -0.208 C  
HETATM   35  C   UNL     1      -7.447  17.183  68.248  1.00  0.00    -0.217 C  
HETATM   36  C   UNL     1      -8.122  18.489  68.652  1.00  0.00    -0.336 C  
HETATM   37  C   UNL     1      -9.627  18.486  68.391  1.00  0.00    -0.383 C  
HETATM   38  C   UNL     1      -8.171  15.990  68.862  1.00  0.00    -0.223 C  
HETATM   39  C   UNL     1     -10.335  17.202  68.842  1.00  0.00    -0.348 C  
ENDBRANCH  31  34
ENDBRANCH  23  24
ENDBRANCH  11  23
ENDBRANCH  10  11
ENDBRANCH   6  10
ENDBRANCH   5   6
ENDBRANCH   3   5
ENDBRANCH   2   3
TORSDOF 13
ENDMDL
MODEL      146
REMARK 921   NORMALIZED FREE ENERGY PREDICTED BY IDOCK:   -4.47 KCAL/MOL
REMARK 922        TOTAL FREE ENERGY PREDICTED BY IDOCK:  -10.34 KCAL/MOL
REMARK 923 INTER-LIGAND FREE ENERGY PREDICTED BY IDOCK:   -8.18 KCAL/MOL
REMARK 924 INTRA-LIGAND FREE ENERGY PREDICTED BY IDOCK:   -2.16 KCAL/MOL
REMARK 927      BINDING AFFINITY PREDICTED BY RF-SCORE:    0.00 PKD
ROOT
HETATM    1  C   UNL     1      -7.591  16.139  69.279  1.00  0.00    -0.218 C  
HETATM    2  C   UNL     1      -8.993  15.558  69.248  1.00  0.00    -0.267 C  
ENDROOT
BRANCH   2   3
HETATM    3  C   UNL     1     -10.153  16.507  68.960  1.00  0.00    -0.279 C  
HETATM    4  O   UNL     1     -10.080  17.715  69.161  1.00  0.00    -0.319 OA 
BRANCH   3   5
HETATM    5  O   UNL     1     -11.200  15.888  68.362  1.00  0.00    -0.334 OA 
BRANCH   5   6
HETATM    6  C   UNL     1     -10.919  14.850  67.372  1.00  0.00    -0.314 C  
HETATM    7  C   UNL     1     -11.061  15.509  65.951  1.00  0.00    -0.205 C  
HETATM    8  C   UNL     1     -10.819  14.544  64.791  1.00  0.00    -0.410 C  
HETATM    9  C   UNL     1     -10.170  16.738  65.769  1.00  0.00    -0.311 C  
BRANCH   6  10
HETATM   10  O   UNL     1     -11.726  13.637  67.477  1.00  0.00    -0.328 OA 
BRANCH  10  11
HETATM   11  P   UNL     1     -11.028  12.204  66.993  1.00  0.00    -0.305 P  
HETATM   12  O   UNL     1     -12.198  11.906  66.025  1.00  0.00    -0.449 OA 
BRANCH  11  13
HETATM   13  C   UNL     1     -11.716  10.878  68.271  1.00  0.00    -0.184 C  
BRANCH  13  14
HETATM   14  C   UNL     1     -11.976  11.484  69.654  1.00  0.00    -0.407 C  
BRANCH  14  15
HETATM   15  C   UNL     1     -11.430  10.659  70.806  1.00  0.00    -0.307 C  
BRANCH  15  16
HETATM   16  C   UNL     1     -12.494   9.641  71.249  1.00  0.00    -0.445 C  
BRANCH  16  17
HETATM   17  C   UNL     1     -11.964   8.240  71.132  1.00  0.00    -0.290 A  
HETATM   18  C   UNL     1     -11.511   7.749  69.900  1.00  0.00     0.101 A  
HETATM   19  C   UNL     1     -11.865   7.435  72.273  1.00  0.00    -0.307 A  
HETATM   20  C   UNL     1     -10.868   5.671  70.954  1.00  0.00    -0.294 A  
HETATM   21  C   UNL     1     -10.970   6.461  69.815  1.00  0.00    -0.417 A  
HETATM   22  C   UNL     1     -11.314   6.157  72.180  1.00  0.00    -0.347 A  
ENDBRANCH  16  17
ENDBRANCH  15  16
ENDBRANCH  14  15
ENDBRANCH  13  14
ENDBRANCH  11  13
BRANCH  11  23
HETATM   23  C   UNL     1      -9.644  12.556  68.137  1.00  0.00    -0.215 C  
BRANCH  23  24
HETATM   24  C   UNL     1      -8.290  11.974  67.691  1.00  0.00    -0.160 C  
HETATM   25  C   UNL     1      -6.410  10.325  67.860  1.00  0.00    -0.060 C  
HETATM   26  O   UNL     1      -7.605  12.586  66.861  1.00  0.00    -0.063 OA 
HETATM   27  N   UNL     1      -7.804  10.762  68.130  1.00  0.00    -0.108 N  
HETATM   28  C   UNL     1      -6.026   9.888  66.419  1.00  0.00    -0.063 C  
HETATM   29  O   UNL     1      -5.151   9.067  66.164  1.00  0.00    -0.032 OA 
HETATM   30  C   UNL     1      -8.552   9.638  68.657  1.00  0.00    -0.120 C  
HETATM   31  C   UNL     1      -7.543   8.797  69.461  1.00  0.00    -0.080 C  
HETATM   32  O   UNL     1      -6.637  10.580  65.433  1.00  0.00    -0.119 OA 
HETATM   33  C   UNL     1      -6.181   9.143  68.822  1.00  0.00    -0.044 C  
BRANCH  31  34
HETATM   34  C   UNL     1      -7.531   9.027  71.003  1.00  0.00    -0.132 C  
HETATM   35  C   UNL     1      -7.351   6.589  71.690  1.00  0.00    -0.087 C  
HETATM   36  C   UNL     1      -5.931   6.781  72.211  1.00  0.00    -0.038 C  
HETATM   37  C   UNL     1      -5.234   7.998  71.606  1.00  0.00    -0.034 C  
HETATM   38  C   UNL     1      -8.151   7.880  71.820  1.00  0.00    -0.127 C  
HETATM   39  C   UNL     1      -6.106   9.259  71.565  1.00  0.00    -0.063 C  
ENDBRANCH  31  34
ENDBRANCH  23  24
ENDBRANCH  11  23
ENDBRANCH  10  11
ENDBRANCH   6  10
ENDBRANCH   5   6
ENDBRANCH   3   5
ENDBRANCH   2   3
TORSDOF 13
ENDMDL
MODEL      147
REMARK 921   NORMALIZED FREE ENERGY PREDICTED BY IDOCK:   -4.47 KCAL/MOL
REMARK 922        TOTAL FREE ENERGY PREDICTED BY IDOCK:  -10.32 KCAL/MOL
REMARK 923 INTER-LIGAND FREE ENERGY PREDICTED BY IDOCK:   -8.85 KCAL/MOL
REMARK 924 INTRA-LIGAND FREE ENERGY PREDICTED BY IDOCK:   -1.47 KCAL/MOL
REMARK 927      BINDING AFFINITY PREDICTED BY RF-SCORE:    0.00 PKD
ROOT
HETATM    1  C   UNL     1      -6.614   5.796  70.489  1.00  0.00    -0.044 C  
HETATM    2  C   UNL     1      -7.672   6.576  69.730  1.00  0.00    -0.113 C  
ENDROOT
BRANCH   2   3
HETATM    3  C   UNL     1      -9.001   5.883  69.444  1.00  0.00    -0.121 C  
HETATM    4  O   UNL     1      -9.115   4.662  69.421  1.00  0.00    -0.095 OA 
BRANCH   3   5
HETATM    5  O   UNL     1     -10.034   6.754  69.339  1.00  0.00    -0.155 OA 
BRANCH   5   6
HETATM    6  C   UNL     1      -9.785   8.164  69.639  1.00  0.00    -0.170 C  
HETATM    7  C   UNL     1     -11.095   8.741  70.288  1.00  0.00    -0.240 C  
HETATM    8  C   UNL     1     -11.011  10.224  70.646  1.00  0.00    -0.287 C  
HETATM    9  C   UNL     1     -11.548   7.959  71.523  1.00  0.00    -0.306 C  
BRANCH   6  10
HETATM   10  O   UNL     1      -9.345   8.984  68.514  1.00  0.00    -0.139 OA 
BRANCH  10  11
HETATM   11  P   UNL     1     -10.485   9.397  67.371  1.00  0.00    -0.221 P  
HETATM   12  O   UNL     1     -10.744   7.911  67.023  1.00  0.00    -0.339 OA 
BRANCH  11  13
HETATM   13  C   UNL     1      -9.447   9.629  65.718  1.00  0.00    -0.246 C  
BRANCH  13  14
HETATM   14  C   UNL     1      -8.004   9.132  65.862  1.00  0.00    -0.106 C  
BRANCH  14  15
HETATM   15  C   UNL     1      -7.709   7.855  65.097  1.00  0.00    -0.103 C  
BRANCH  15  16
HETATM   16  C   UNL     1      -6.891   6.908  65.991  1.00  0.00    -0.060 C  
BRANCH  16  17
HETATM   17  C   UNL     1      -7.531   5.549  66.045  1.00  0.00    -0.082 A  
HETATM   18  C   UNL     1      -6.784   4.424  66.416  1.00  0.00    -0.050 A  
HETATM   19  C   UNL     1      -8.899   5.412  65.782  1.00  0.00    -0.151 A  
HETATM   20  C   UNL     1      -8.764   3.046  66.260  1.00  0.00    -0.132 A  
HETATM   21  C   UNL     1      -7.403   3.172  66.515  1.00  0.00    -0.075 A  
HETATM   22  C   UNL     1      -9.510   4.163  65.895  1.00  0.00    -0.178 A  
ENDBRANCH  16  17
ENDBRANCH  15  16
ENDBRANCH  14  15
ENDBRANCH  13  14
ENDBRANCH  11  13
BRANCH  11  23
HETATM   23  C   UNL     1     -10.180  11.154  67.783  1.00  0.00    -0.180 C  
BRANCH  23  24
HETATM   24  C   UNL     1     -11.095  12.146  67.041  1.00  0.00    -0.294 C  
HETATM   25  C   UNL     1     -11.762  14.454  66.328  1.00  0.00    -0.385 C  
HETATM   26  O   UNL     1     -12.154  11.746  66.542  1.00  0.00    -0.498 OA 
HETATM   27  N   UNL     1     -10.777  13.473  66.850  1.00  0.00    -0.273 N  
HETATM   28  C   UNL     1     -12.158  14.396  64.827  1.00  0.00    -0.452 C  
HETATM   29  O   UNL     1     -12.511  15.373  64.175  1.00  0.00    -0.604 OA 
HETATM   30  C   UNL     1      -9.463  14.086  66.850  1.00  0.00    -0.265 C  
HETATM   31  C   UNL     1      -9.694  15.583  67.121  1.00  0.00    -0.226 C  
HETATM   32  O   UNL     1     -12.218  13.153  64.303  1.00  0.00    -0.402 OA 
HETATM   33  C   UNL     1     -11.137  15.830  66.630  1.00  0.00    -0.099 C  
BRANCH  31  34
HETATM   34  C   UNL     1      -9.498  16.054  68.595  1.00  0.00    -0.224 C  
HETATM   35  C   UNL     1      -7.328  17.323  68.242  1.00  0.00    -0.214 C  
HETATM   36  C   UNL     1      -8.006  18.666  68.490  1.00  0.00    -0.365 C  
HETATM   37  C   UNL     1      -9.516  18.621  68.267  1.00  0.00    -0.369 C  
HETATM   38  C   UNL     1      -8.029  16.215  69.020  1.00  0.00    -0.236 C  
HETATM   39  C   UNL     1     -10.202  17.402  68.894  1.00  0.00    -0.352 C  
ENDBRANCH  31  34
ENDBRANCH  23  24
ENDBRANCH  11  23
ENDBRANCH  10  11
ENDBRANCH   6  10
ENDBRANCH   5   6
ENDBRANCH   3   5
ENDBRANCH   2   3
TORSDOF 13
ENDMDL
MODEL      148
REMARK 921   NORMALIZED FREE ENERGY PREDICTED BY IDOCK:   -4.46 KCAL/MOL
REMARK 922        TOTAL FREE ENERGY PREDICTED BY IDOCK:  -10.32 KCAL/MOL
REMARK 923 INTER-LIGAND FREE ENERGY PREDICTED BY IDOCK:   -8.22 KCAL/MOL
REMARK 924 INTRA-LIGAND FREE ENERGY PREDICTED BY IDOCK:   -2.10 KCAL/MOL
REMARK 927      BINDING AFFINITY PREDICTED BY RF-SCORE:    0.00 PKD
ROOT
HETATM    1  C   UNL     1     -10.276   6.460  74.561  1.00  0.00    -0.310 C  
HETATM    2  C   UNL     1     -10.212   5.265  73.628  1.00  0.00    -0.237 C  
ENDROOT
BRANCH   2   3
HETATM    3  C   UNL     1      -8.958   5.093  72.774  1.00  0.00    -0.121 C  
HETATM    4  O   UNL     1      -8.445   3.998  72.571  1.00  0.00    -0.097 OA 
BRANCH   3   5
HETATM    5  O   UNL     1      -8.560   6.250  72.190  1.00  0.00    -0.126 OA 
BRANCH   5   6
HETATM    6  C   UNL     1      -7.136   6.431  71.910  1.00  0.00    -0.081 C  
HETATM    7  C   UNL     1      -6.620   7.588  72.841  1.00  0.00    -0.065 C  
HETATM    8  C   UNL     1      -5.141   7.922  72.656  1.00  0.00    -0.036 C  
HETATM    9  C   UNL     1      -6.889   7.329  74.324  1.00  0.00    -0.097 C  
BRANCH   6  10
HETATM   10  O   UNL     1      -6.791   6.681  70.513  1.00  0.00    -0.059 OA 
BRANCH  10  11
HETATM   11  P   UNL     1      -8.045   6.829  69.426  1.00  0.00    -0.125 P  
HETATM   12  O   UNL     1      -8.121   5.295  69.233  1.00  0.00    -0.090 OA 
BRANCH  11  13
HETATM   13  C   UNL     1      -7.151   7.027  67.686  1.00  0.00    -0.085 C  
BRANCH  13  14
HETATM   14  C   UNL     1      -7.870   6.258  66.572  1.00  0.00    -0.104 C  
BRANCH  14  15
HETATM   15  C   UNL     1      -9.284   6.739  66.298  1.00  0.00    -0.161 C  
BRANCH  15  16
HETATM   16  C   UNL     1     -10.260   5.564  66.471  1.00  0.00    -0.273 C  
BRANCH  16  17
HETATM   17  C   UNL     1      -9.654   4.293  65.944  1.00  0.00    -0.191 A  
HETATM   18  C   UNL     1      -9.256   3.276  66.822  1.00  0.00    -0.187 A  
HETATM   19  C   UNL     1      -9.540   4.094  64.564  1.00  0.00    -0.168 A  
HETATM   20  C   UNL     1      -8.640   1.884  64.945  1.00  0.00    -0.099 A  
HETATM   21  C   UNL     1      -8.742   2.076  66.318  1.00  0.00    -0.117 A  
HETATM   22  C   UNL     1      -9.038   2.890  64.070  1.00  0.00    -0.106 A  
ENDBRANCH  16  17
ENDBRANCH  15  16
ENDBRANCH  14  15
ENDBRANCH  13  14
ENDBRANCH  11  13
BRANCH  11  23
HETATM   23  C   UNL     1      -7.954   8.643  69.654  1.00  0.00    -0.096 C  
BRANCH  23  24
HETATM   24  C   UNL     1      -9.193   9.258  70.330  1.00  0.00    -0.237 C  
HETATM   25  C   UNL     1     -11.280  10.646  70.314  1.00  0.00    -0.285 C  
HETATM   26  O   UNL     1      -9.328   9.169  71.557  1.00  0.00    -0.264 OA 
HETATM   27  N   UNL     1     -10.210   9.874  69.633  1.00  0.00    -0.221 N  
HETATM   28  C   UNL     1     -12.371   9.878  71.110  1.00  0.00    -0.370 C  
HETATM   29  O   UNL     1     -13.518  10.286  71.265  1.00  0.00    -0.319 OA 
HETATM   30  C   UNL     1     -10.581   9.687  68.244  1.00  0.00    -0.225 C  
HETATM   31  C   UNL     1     -11.383  10.940  67.848  1.00  0.00    -0.380 C  
HETATM   32  O   UNL     1     -11.936   8.770  71.747  1.00  0.00    -0.303 OA 
HETATM   33  C   UNL     1     -11.953  11.454  69.188  1.00  0.00    -0.395 C  
BRANCH  31  34
HETATM   34  C   UNL     1     -10.591  12.053  67.094  1.00  0.00    -0.255 C  
HETATM   35  C   UNL     1     -10.500  10.905  64.831  1.00  0.00    -0.352 C  
HETATM   36  C   UNL     1     -11.441  11.929  64.209  1.00  0.00    -0.423 C  
HETATM   37  C   UNL     1     -12.296  12.659  65.243  1.00  0.00    -0.528 C  
HETATM   38  C   UNL     1      -9.691  11.533  65.960  1.00  0.00    -0.253 C  
HETATM   39  C   UNL     1     -11.515  13.132  66.475  1.00  0.00    -0.378 C  
ENDBRANCH  31  34
ENDBRANCH  23  24
ENDBRANCH  11  23
ENDBRANCH  10  11
ENDBRANCH   6  10
ENDBRANCH   5   6
ENDBRANCH   3   5
ENDBRANCH   2   3
TORSDOF 13
ENDMDL
MODEL      149
REMARK 921   NORMALIZED FREE ENERGY PREDICTED BY IDOCK:   -4.41 KCAL/MOL
REMARK 922        TOTAL FREE ENERGY PREDICTED BY IDOCK:  -10.23 KCAL/MOL
REMARK 923 INTER-LIGAND FREE ENERGY PREDICTED BY IDOCK:   -8.24 KCAL/MOL
REMARK 924 INTRA-LIGAND FREE ENERGY PREDICTED BY IDOCK:   -1.99 KCAL/MOL
REMARK 927      BINDING AFFINITY PREDICTED BY RF-SCORE:    0.00 PKD
ROOT
HETATM    1  C   UNL     1      -8.005   7.805  64.660  1.00  0.00    -0.136 C  
HETATM    2  C   UNL     1      -7.064   7.493  65.810  1.00  0.00    -0.065 C  
ENDROOT
BRANCH   2   3
HETATM    3  C   UNL     1      -6.607   8.651  66.692  1.00  0.00    -0.060 C  
HETATM    4  O   UNL     1      -6.080   8.477  67.786  1.00  0.00    -0.046 OA 
BRANCH   3   5
HETATM    5  O   UNL     1      -6.741   9.856  66.086  1.00  0.00    -0.084 OA 
BRANCH   5   6
HETATM    6  C   UNL     1      -7.591  10.862  66.723  1.00  0.00    -0.134 C  
HETATM    7  C   UNL     1      -6.674  11.710  67.677  1.00  0.00    -0.087 C  
HETATM    8  C   UNL     1      -7.417  12.802  68.445  1.00  0.00    -0.124 C  
HETATM    9  C   UNL     1      -5.477  12.336  66.959  1.00  0.00    -0.020 C  
BRANCH   6  10
HETATM   10  O   UNL     1      -8.760  10.348  67.430  1.00  0.00    -0.125 OA 
BRANCH  10  11
HETATM   11  P   UNL     1     -10.194  10.263  66.586  1.00  0.00    -0.204 P  
HETATM   12  O   UNL     1      -9.708  11.317  65.561  1.00  0.00    -0.211 OA 
BRANCH  11  13
HETATM   13  C   UNL     1     -11.343  11.601  67.453  1.00  0.00    -0.300 C  
BRANCH  13  14
HETATM   14  C   UNL     1     -10.813  13.028  67.274  1.00  0.00    -0.270 C  
BRANCH  14  15
HETATM   15  C   UNL     1     -11.301  14.008  68.326  1.00  0.00    -0.317 C  
BRANCH  15  16
HETATM   16  C   UNL     1     -11.905  13.226  69.504  1.00  0.00    -0.388 C  
BRANCH  16  17
HETATM   17  C   UNL     1     -12.179  14.145  70.662  1.00  0.00    -0.432 A  
HETATM   18  C   UNL     1     -13.085  13.777  71.664  1.00  0.00    -0.456 A  
HETATM   19  C   UNL     1     -11.480  15.353  70.774  1.00  0.00    -0.385 A  
HETATM   20  C   UNL     1     -12.588  15.810  72.873  1.00  0.00    -0.571 A  
HETATM   21  C   UNL     1     -13.292  14.616  72.765  1.00  0.00    -0.593 A  
HETATM   22  C   UNL     1     -11.684  16.177  71.880  1.00  0.00    -0.575 A  
ENDBRANCH  16  17
ENDBRANCH  15  16
ENDBRANCH  14  15
ENDBRANCH  13  14
ENDBRANCH  11  13
BRANCH  11  23
HETATM   23  C   UNL     1     -10.768   9.017  67.797  1.00  0.00    -0.151 C  
BRANCH  23  24
HETATM   24  C   UNL     1     -10.056   9.085  69.161  1.00  0.00    -0.195 C  
HETATM   25  C   UNL     1      -8.920   8.040  71.135  1.00  0.00    -0.141 C  
HETATM   26  O   UNL     1     -10.010  10.160  69.774  1.00  0.00    -0.231 OA 
HETATM   27  N   UNL     1      -9.408   8.013  69.733  1.00  0.00    -0.159 N  
HETATM   28  C   UNL     1      -7.672   8.899  71.480  1.00  0.00    -0.053 C  
HETATM   29  O   UNL     1      -6.890   8.635  72.388  1.00  0.00    -0.174 OA 
HETATM   30  C   UNL     1      -8.865   6.842  69.072  1.00  0.00    -0.130 C  
HETATM   31  C   UNL     1      -8.742   5.760  70.160  1.00  0.00    -0.140 C  
HETATM   32  O   UNL     1      -7.569  10.055  70.789  1.00  0.00    -0.265 OA 
HETATM   33  C   UNL     1      -8.623   6.565  71.471  1.00  0.00    -0.129 C  
BRANCH  31  34
HETATM   34  C   UNL     1      -9.901   4.718  70.226  1.00  0.00    -0.313 C  
HETATM   35  C   UNL     1      -8.517   2.662  69.677  1.00  0.00    -0.095 C  
HETATM   36  C   UNL     1      -8.680   2.104  71.086  1.00  0.00    -0.108 C  
HETATM   37  C   UNL     1      -9.029   3.177  72.115  1.00  0.00    -0.136 C  
HETATM   38  C   UNL     1      -9.723   3.510  69.290  1.00  0.00    -0.040 C  
HETATM   39  C   UNL     1     -10.119   4.153  71.653  1.00  0.00    -0.198 C  
ENDBRANCH  31  34
ENDBRANCH  23  24
ENDBRANCH  11  23
ENDBRANCH  10  11
ENDBRANCH   6  10
ENDBRANCH   5   6
ENDBRANCH   3   5
ENDBRANCH   2   3
TORSDOF 13
ENDMDL
MODEL      150
REMARK 921   NORMALIZED FREE ENERGY PREDICTED BY IDOCK:   -4.38 KCAL/MOL
REMARK 922        TOTAL FREE ENERGY PREDICTED BY IDOCK:  -10.18 KCAL/MOL
REMARK 923 INTER-LIGAND FREE ENERGY PREDICTED BY IDOCK:   -7.72 KCAL/MOL
REMARK 924 INTRA-LIGAND FREE ENERGY PREDICTED BY IDOCK:   -2.45 KCAL/MOL
REMARK 927      BINDING AFFINITY PREDICTED BY RF-SCORE:    0.00 PKD
ROOT
HETATM    1  C   UNL     1     -12.807  13.976  64.838  1.00  0.00    -0.210 C  
HETATM    2  C   UNL     1     -12.271  12.648  65.342  1.00  0.00    -0.517 C  
ENDROOT
BRANCH   2   3
HETATM    3  C   UNL     1     -11.167  11.971  64.533  1.00  0.00    -0.332 C  
HETATM    4  O   UNL     1     -10.595  12.531  63.604  1.00  0.00    -0.429 OA 
BRANCH   3   5
HETATM    5  O   UNL     1     -10.825  10.757  65.029  1.00  0.00    -0.169 OA 
BRANCH   5   6
HETATM    6  C   UNL     1      -9.659  10.670  65.907  1.00  0.00    -0.205 C  
HETATM    7  C   UNL     1      -8.598   9.760  65.186  1.00  0.00    -0.173 C  
HETATM    8  C   UNL     1      -7.315   9.546  65.987  1.00  0.00    -0.097 C  
HETATM    9  C   UNL     1      -8.232  10.261  63.787  1.00  0.00    -0.153 C  
BRANCH   6  10
HETATM   10  O   UNL     1      -9.922  10.202  67.265  1.00  0.00    -0.179 OA 
BRANCH  10  11
HETATM   11  P   UNL     1      -9.721  11.294  68.507  1.00  0.00    -0.169 P  
HETATM   12  O   UNL     1     -10.691  12.301  67.843  1.00  0.00    -0.205 OA 
BRANCH  11  13
HETATM   13  C   UNL     1      -8.177  12.377  67.951  1.00  0.00    -0.163 C  
BRANCH  13  14
HETATM   14  C   UNL     1      -8.574  13.509  66.996  1.00  0.00    -0.169 C  
BRANCH  14  15
HETATM   15  C   UNL     1      -7.977  14.859  67.353  1.00  0.00    -0.223 C  
BRANCH  15  16
HETATM   16  C   UNL     1      -9.061  15.941  67.219  1.00  0.00    -0.218 C  
BRANCH  16  17
HETATM   17  C   UNL     1     -10.098  15.785  68.295  1.00  0.00    -0.222 A  
HETATM   18  C   UNL     1     -11.449  15.613  67.963  1.00  0.00    -0.294 A  
HETATM   19  C   UNL     1      -9.709  15.748  69.639  1.00  0.00    -0.248 A  
HETATM   20  C   UNL     1     -12.003  15.372  70.304  1.00  0.00    -0.386 A  
HETATM   21  C   UNL     1     -12.399  15.414  68.972  1.00  0.00    -0.047 A  
HETATM   22  C   UNL     1     -10.661  15.538  70.636  1.00  0.00    -0.265 A  
ENDBRANCH  16  17
ENDBRANCH  15  16
ENDBRANCH  14  15
ENDBRANCH  13  14
ENDBRANCH  11  13
BRANCH  11  23
HETATM   23  C   UNL     1      -8.574  10.104  69.293  1.00  0.00    -0.174 C  
BRANCH  23  24
HETATM   24  C   UNL     1      -9.267   8.893  69.945  1.00  0.00    -0.166 C  
HETATM   25  C   UNL     1      -9.979   6.490  69.986  1.00  0.00    -0.169 C  
HETATM   26  O   UNL     1      -9.947   9.054  70.967  1.00  0.00    -0.229 OA 
HETATM   27  N   UNL     1      -9.135   7.603  69.480  1.00  0.00    -0.147 N  
HETATM   28  C   UNL     1      -9.716   5.937  71.414  1.00  0.00    -0.166 C  
HETATM   29  O   UNL     1      -9.939   4.779  71.750  1.00  0.00    -0.175 OA 
HETATM   30  C   UNL     1      -8.063   7.048  68.678  1.00  0.00    -0.121 C  
HETATM   31  C   UNL     1      -8.640   5.785  68.013  1.00  0.00    -0.105 C  
HETATM   32  O   UNL     1      -9.341   6.864  72.322  1.00  0.00    -0.139 OA 
HETATM   33  C   UNL     1      -9.779   5.356  68.962  1.00  0.00    -0.208 C  
BRANCH  31  34
HETATM   34  C   UNL     1      -9.143   5.949  66.546  1.00  0.00    -0.149 C  
HETATM   35  C   UNL     1      -7.329   4.569  65.428  1.00  0.00    -0.076 C  
HETATM   36  C   UNL     1      -8.316   3.469  65.054  1.00  0.00    -0.097 C  
HETATM   37  C   UNL     1      -9.571   3.473  65.925  1.00  0.00    -0.106 C  
HETATM   38  C   UNL     1      -8.029   5.922  65.486  1.00  0.00    -0.117 C  
HETATM   39  C   UNL     1     -10.175   4.866  66.141  1.00  0.00    -0.309 C  
ENDBRANCH  31  34
ENDBRANCH  23  24
ENDBRANCH  11  23
ENDBRANCH  10  11
ENDBRANCH   6  10
ENDBRANCH   5   6
ENDBRANCH   3   5
ENDBRANCH   2   3
TORSDOF 13
ENDMDL
MODEL      151
REMARK 921   NORMALIZED FREE ENERGY PREDICTED BY IDOCK:   -4.38 KCAL/MOL
REMARK 922        TOTAL FREE ENERGY PREDICTED BY IDOCK:  -10.17 KCAL/MOL
REMARK 923 INTER-LIGAND FREE ENERGY PREDICTED BY IDOCK:   -8.24 KCAL/MOL
REMARK 924 INTRA-LIGAND FREE ENERGY PREDICTED BY IDOCK:   -1.93 KCAL/MOL
REMARK 927      BINDING AFFINITY PREDICTED BY RF-SCORE:    0.00 PKD
ROOT
HETATM    1  C   UNL     1     -11.363  13.227  64.249  1.00  0.00    -0.428 C  
HETATM    2  C   UNL     1     -11.280  12.042  63.304  1.00  0.00    -0.403 C  
ENDROOT
BRANCH   2   3
HETATM    3  C   UNL     1     -10.075  11.114  63.427  1.00  0.00    -0.390 C  
HETATM    4  O   UNL     1      -9.870  10.194  62.642  1.00  0.00    -0.174 OA 
BRANCH   3   5
HETATM    5  O   UNL     1      -9.222  11.491  64.411  1.00  0.00    -0.070 OA 
BRANCH   5   6
HETATM    6  C   UNL     1      -8.814  10.491  65.396  1.00  0.00    -0.187 C  
HETATM    7  C   UNL     1      -7.750   9.562  64.706  1.00  0.00    -0.119 C  
HETATM    8  C   UNL     1      -7.232   8.437  65.601  1.00  0.00    -0.075 C  
HETATM    9  C   UNL     1      -6.557  10.334  64.139  1.00  0.00    -0.072 C  
BRANCH   6  10
HETATM   10  O   UNL     1      -9.894   9.709  65.991  1.00  0.00    -0.239 OA 
BRANCH  10  11
HETATM   11  P   UNL     1     -10.465  10.192  67.479  1.00  0.00    -0.281 P  
HETATM   12  O   UNL     1     -11.525  11.113  66.827  1.00  0.00    -0.380 OA 
BRANCH  11  13
HETATM   13  C   UNL     1      -9.357  11.750  67.937  1.00  0.00    -0.184 C  
BRANCH  13  14
HETATM   14  C   UNL     1     -10.196  13.011  68.176  1.00  0.00    -0.239 C  
BRANCH  14  15
HETATM   15  C   UNL     1      -9.808  14.190  67.302  1.00  0.00    -0.238 C  
BRANCH  15  16
HETATM   16  C   UNL     1      -9.181  15.285  68.180  1.00  0.00    -0.183 C  
BRANCH  16  17
HETATM   17  C   UNL     1      -9.627  16.646  67.724  1.00  0.00    -0.236 A  
HETATM   18  C   UNL     1      -9.944  16.879  66.379  1.00  0.00    -0.321 A  
HETATM   19  C   UNL     1      -9.787  17.677  68.657  1.00  0.00    -0.347 A  
HETATM   20  C   UNL     1     -10.574  19.151  66.911  1.00  0.00    -0.540 A  
HETATM   21  C   UNL     1     -10.411  18.135  65.976  1.00  0.00    -0.360 A  
HETATM   22  C   UNL     1     -10.263  18.922  68.249  1.00  0.00    -0.442 A  
ENDBRANCH  16  17
ENDBRANCH  15  16
ENDBRANCH  14  15
ENDBRANCH  13  14
ENDBRANCH  11  13
BRANCH  11  23
HETATM   23  C   UNL     1      -9.213   9.104  68.251  1.00  0.00    -0.132 C  
BRANCH  23  24
HETATM   24  C   UNL     1      -9.798   7.864  68.953  1.00  0.00    -0.173 C  
HETATM   25  C   UNL     1     -10.175   5.395  69.166  1.00  0.00    -0.232 C  
HETATM   26  O   UNL     1     -10.594   8.010  69.889  1.00  0.00    -0.236 OA 
HETATM   27  N   UNL     1      -9.444   6.572  68.631  1.00  0.00    -0.124 N  
HETATM   28  C   UNL     1      -9.988   5.009  70.659  1.00  0.00    -0.230 C  
HETATM   29  O   UNL     1     -10.084   3.863  71.086  1.00  0.00    -0.140 OA 
HETATM   30  C   UNL     1      -8.228   6.113  67.987  1.00  0.00    -0.114 C  
HETATM   31  C   UNL     1      -8.556   4.728  67.401  1.00  0.00    -0.104 C  
HETATM   32  O   UNL     1      -9.839   6.054  71.502  1.00  0.00    -0.166 OA 
HETATM   33  C   UNL     1      -9.718   4.219  68.281  1.00  0.00    -0.162 C  
BRANCH  31  34
HETATM   34  C   UNL     1      -8.923   4.693  65.885  1.00  0.00    -0.127 C  
HETATM   35  C   UNL     1      -6.630   4.035  65.015  1.00  0.00    -0.047 C  
HETATM   36  C   UNL     1      -7.121   2.654  64.596  1.00  0.00    -0.050 C  
HETATM   37  C   UNL     1      -8.384   2.221  65.337  1.00  0.00    -0.091 C  
HETATM   38  C   UNL     1      -7.762   5.054  64.943  1.00  0.00    -0.084 C  
HETATM   39  C   UNL     1      -9.458   3.312  65.429  1.00  0.00    -0.119 C  
ENDBRANCH  31  34
ENDBRANCH  23  24
ENDBRANCH  11  23
ENDBRANCH  10  11
ENDBRANCH   6  10
ENDBRANCH   5   6
ENDBRANCH   3   5
ENDBRANCH   2   3
TORSDOF 13
ENDMDL
MODEL      152
REMARK 921   NORMALIZED FREE ENERGY PREDICTED BY IDOCK:   -4.36 KCAL/MOL
REMARK 922        TOTAL FREE ENERGY PREDICTED BY IDOCK:  -10.14 KCAL/MOL
REMARK 923 INTER-LIGAND FREE ENERGY PREDICTED BY IDOCK:   -7.75 KCAL/MOL
REMARK 924 INTRA-LIGAND FREE ENERGY PREDICTED BY IDOCK:   -2.39 KCAL/MOL
REMARK 927      BINDING AFFINITY PREDICTED BY RF-SCORE:    0.00 PKD
ROOT
HETATM    1  C   UNL     1     -12.251  15.094  64.101  1.00  0.00    -0.182 C  
HETATM    2  C   UNL     1     -10.876  14.655  64.570  1.00  0.00    -0.209 C  
ENDROOT
BRANCH   2   3
HETATM    3  C   UNL     1     -10.499  13.186  64.398  1.00  0.00    -0.407 C  
HETATM    4  O   UNL     1     -10.954  12.491  63.495  1.00  0.00    -0.445 OA 
BRANCH   3   5
HETATM    5  O   UNL     1      -9.539  12.786  65.268  1.00  0.00    -0.069 OA 
BRANCH   5   6
HETATM    6  C   UNL     1      -9.834  11.665  66.159  1.00  0.00    -0.223 C  
HETATM    7  C   UNL     1      -9.421  10.348  65.405  1.00  0.00    -0.285 C  
HETATM    8  C   UNL     1      -9.687   9.069  66.197  1.00  0.00    -0.354 C  
HETATM    9  C   UNL     1      -7.962  10.353  64.946  1.00  0.00    -0.115 C  
BRANCH   6  10
HETATM   10  O   UNL     1     -11.208  11.587  66.647  1.00  0.00    -0.306 OA 
BRANCH  10  11
HETATM   11  P   UNL     1     -11.567  12.381  68.067  1.00  0.00    -0.339 P  
HETATM   12  O   UNL     1     -12.613  13.276  67.358  1.00  0.00    -0.015 OA 
BRANCH  11  13
HETATM   13  C   UNL     1     -10.289  13.874  68.118  1.00  0.00    -0.247 C  
BRANCH  13  14
HETATM   14  C   UNL     1     -10.972  15.232  67.921  1.00  0.00    -0.306 C  
BRANCH  14  15
HETATM   15  C   UNL     1     -10.278  16.384  68.627  1.00  0.00    -0.258 C  
BRANCH  15  16
HETATM   16  C   UNL     1      -9.318  17.074  67.645  1.00  0.00    -0.241 C  
BRANCH  16  17
HETATM   17  C   UNL     1      -7.890  16.780  68.008  1.00  0.00    -0.178 A  
HETATM   18  C   UNL     1      -7.445  16.929  69.328  1.00  0.00    -0.116 A  
HETATM   19  C   UNL     1      -7.009  16.295  67.034  1.00  0.00    -0.250 A  
HETATM   20  C   UNL     1      -5.260  16.112  68.693  1.00  0.00    -0.101 A  
HETATM   21  C   UNL     1      -6.127  16.601  69.665  1.00  0.00    -0.220 A  
HETATM   22  C   UNL     1      -5.701  15.959  67.382  1.00  0.00    -0.089 A  
ENDBRANCH  16  17
ENDBRANCH  15  16
ENDBRANCH  14  15
ENDBRANCH  13  14
ENDBRANCH  11  13
BRANCH  11  23
HETATM   23  C   UNL     1     -10.331  11.324  68.905  1.00  0.00    -0.195 C  
BRANCH  23  24
HETATM   24  C   UNL     1     -10.923  10.075  69.584  1.00  0.00    -0.264 C  
HETATM   25  C   UNL     1     -10.843   7.668  70.279  1.00  0.00    -0.246 C  
HETATM   26  O   UNL     1     -12.093  10.094  69.987  1.00  0.00    -0.199 OA 
HETATM   27  N   UNL     1     -10.200   8.927  69.824  1.00  0.00    -0.195 N  
HETATM   28  C   UNL     1     -11.361   7.574  71.741  1.00  0.00    -0.254 C  
HETATM   29  O   UNL     1     -11.423   6.528  72.378  1.00  0.00    -0.268 OA 
HETATM   30  C   UNL     1      -8.762   8.786  69.944  1.00  0.00    -0.135 C  
HETATM   31  C   UNL     1      -8.458   7.301  69.681  1.00  0.00    -0.133 C  
HETATM   32  O   UNL     1     -11.874   8.720  72.237  1.00  0.00    -0.360 OA 
HETATM   33  C   UNL     1      -9.773   6.582  70.054  1.00  0.00    -0.178 C  
BRANCH  31  34
HETATM   34  C   UNL     1      -7.993   6.939  68.236  1.00  0.00    -0.119 C  
HETATM   35  C   UNL     1      -5.644   6.185  68.834  1.00  0.00    -0.011 C  
HETATM   36  C   UNL     1      -5.962   4.733  68.496  1.00  0.00    -0.026 C  
HETATM   37  C   UNL     1      -7.457   4.425  68.539  1.00  0.00    -0.064 C  
HETATM   38  C   UNL     1      -6.488   7.132  67.988  1.00  0.00    -0.048 C  
HETATM   39  C   UNL     1      -8.330   5.478  67.845  1.00  0.00    -0.099 C  
ENDBRANCH  31  34
ENDBRANCH  23  24
ENDBRANCH  11  23
ENDBRANCH  10  11
ENDBRANCH   6  10
ENDBRANCH   5   6
ENDBRANCH   3   5
ENDBRANCH   2   3
TORSDOF 13
ENDMDL
MODEL      153
REMARK 921   NORMALIZED FREE ENERGY PREDICTED BY IDOCK:   -4.34 KCAL/MOL
REMARK 922        TOTAL FREE ENERGY PREDICTED BY IDOCK:  -10.10 KCAL/MOL
REMARK 923 INTER-LIGAND FREE ENERGY PREDICTED BY IDOCK:   -6.58 KCAL/MOL
REMARK 924 INTRA-LIGAND FREE ENERGY PREDICTED BY IDOCK:   -3.52 KCAL/MOL
REMARK 927      BINDING AFFINITY PREDICTED BY RF-SCORE:    0.00 PKD
ROOT
HETATM    1  C   UNL     1     -11.968  14.839  68.347  1.00  0.00    -0.270 C  
HETATM    2  C   UNL     1     -11.425  13.423  68.411  1.00  0.00    -0.351 C  
ENDROOT
BRANCH   2   3
HETATM    3  C   UNL     1     -11.227  12.676  67.095  1.00  0.00    -0.300 C  
HETATM    4  O   UNL     1     -12.125  12.033  66.562  1.00  0.00    -0.617 OA 
BRANCH   3   5
HETATM    5  O   UNL     1     -10.009  12.899  66.544  1.00  0.00    -0.247 OA 
BRANCH   5   6
HETATM    6  C   UNL     1      -8.821  12.549  67.322  1.00  0.00    -0.195 C  
HETATM    7  C   UNL     1      -7.778  13.709  67.129  1.00  0.00     0.012 C  
HETATM    8  C   UNL     1      -6.457  13.487  67.865  1.00  0.00    -0.155 C  
HETATM    9  C   UNL     1      -8.332  15.083  67.508  1.00  0.00    -0.192 C  
BRANCH   6  10
HETATM   10  O   UNL     1      -8.228  11.248  67.024  1.00  0.00    -0.138 OA 
BRANCH  10  11
HETATM   11  P   UNL     1      -8.631   9.973  68.018  1.00  0.00    -0.122 P  
HETATM   12  O   UNL     1      -8.371  10.819  69.288  1.00  0.00    -0.140 OA 
BRANCH  11  13
HETATM   13  C   UNL     1      -6.935   9.014  68.281  1.00  0.00    -0.076 C  
BRANCH  13  14
HETATM   14  C   UNL     1      -6.778   8.491  69.713  1.00  0.00    -0.039 C  
BRANCH  14  15
HETATM   15  C   UNL     1      -5.919   7.245  69.828  1.00  0.00    -0.024 C  
BRANCH  15  16
HETATM   16  C   UNL     1      -5.788   6.855  71.309  1.00  0.00    -0.036 C  
BRANCH  16  17
HETATM   17  C   UNL     1      -6.488   5.552  71.576  1.00  0.00    -0.044 A  
HETATM   18  C   UNL     1      -7.426   5.446  72.611  1.00  0.00    -0.097 A  
HETATM   19  C   UNL     1      -6.248   4.450  70.747  1.00  0.00    -0.021 A  
HETATM   20  C   UNL     1      -7.872   3.154  71.984  1.00  0.00    -0.055 A  
HETATM   21  C   UNL     1      -8.110   4.242  72.816  1.00  0.00    -0.093 A  
HETATM   22  C   UNL     1      -6.943   3.258  70.952  1.00  0.00    -0.033 A  
ENDBRANCH  16  17
ENDBRANCH  15  16
ENDBRANCH  14  15
ENDBRANCH  13  14
ENDBRANCH  11  13
BRANCH  11  23
HETATM   23  C   UNL     1      -8.938   8.973  66.516  1.00  0.00    -0.146 C  
BRANCH  23  24
HETATM   24  C   UNL     1      -8.738   7.458  66.712  1.00  0.00    -0.133 C  
HETATM   25  C   UNL     1      -9.043   5.317  67.979  1.00  0.00    -0.110 C  
HETATM   26  O   UNL     1      -7.976   6.839  65.959  1.00  0.00    -0.099 OA 
HETATM   27  N   UNL     1      -9.408   6.722  67.665  1.00  0.00    -0.120 N  
HETATM   28  C   UNL     1      -9.396   4.202  66.957  1.00  0.00    -0.175 C  
HETATM   29  O   UNL     1      -9.629   3.039  67.268  1.00  0.00    -0.154 OA 
HETATM   30  C   UNL     1     -10.670   7.031  68.308  1.00  0.00    -0.182 C  
HETATM   31  C   UNL     1     -10.696   6.208  69.609  1.00  0.00    -0.385 C  
HETATM   32  O   UNL     1      -9.301   4.569  65.661  1.00  0.00    -0.145 OA 
HETATM   33  C   UNL     1      -9.755   5.021  69.314  1.00  0.00    -0.249 C  
BRANCH  31  34
HETATM   34  C   UNL     1     -10.281   6.964  70.909  1.00  0.00    -0.214 C  
HETATM   35  C   UNL     1     -11.922   8.889  70.699  1.00  0.00    -0.105 C  
HETATM   36  C   UNL     1     -12.728   8.409  71.901  1.00  0.00    -0.390 C  
HETATM   37  C   UNL     1     -12.524   6.926  72.201  1.00  0.00    -0.196 C  
HETATM   38  C   UNL     1     -10.457   8.490  70.840  1.00  0.00    -0.248 C  
HETATM   39  C   UNL     1     -11.057   6.478  72.159  1.00  0.00    -0.296 C  
ENDBRANCH  31  34
ENDBRANCH  23  24
ENDBRANCH  11  23
ENDBRANCH  10  11
ENDBRANCH   6  10
ENDBRANCH   5   6
ENDBRANCH   3   5
ENDBRANCH   2   3
TORSDOF 13
ENDMDL
MODEL      154
REMARK 921   NORMALIZED FREE ENERGY PREDICTED BY IDOCK:   -4.32 KCAL/MOL
REMARK 922        TOTAL FREE ENERGY PREDICTED BY IDOCK:  -10.07 KCAL/MOL
REMARK 923 INTER-LIGAND FREE ENERGY PREDICTED BY IDOCK:   -7.57 KCAL/MOL
REMARK 924 INTRA-LIGAND FREE ENERGY PREDICTED BY IDOCK:   -2.50 KCAL/MOL
REMARK 927      BINDING AFFINITY PREDICTED BY RF-SCORE:    0.00 PKD
ROOT
HETATM    1  C   UNL     1     -12.503  16.307  72.876  1.00  0.00    -0.498 C  
HETATM    2  C   UNL     1     -12.901  14.872  73.174  1.00  0.00    -0.619 C  
ENDROOT
BRANCH   2   3
HETATM    3  C   UNL     1     -12.774  13.849  72.049  1.00  0.00    -0.245 C  
HETATM    4  O   UNL     1     -13.693  13.101  71.733  1.00  0.00    -0.326 OA 
BRANCH   3   5
HETATM    5  O   UNL     1     -11.597  13.946  71.383  1.00  0.00     0.211 OA 
BRANCH   5   6
HETATM    6  C   UNL     1     -11.606  13.779  69.930  1.00  0.00    -0.228 C  
HETATM    7  C   UNL     1     -11.888  15.191  69.300  1.00  0.00    -0.347 C  
HETATM    8  C   UNL     1     -11.953  15.189  67.773  1.00  0.00    -0.047 C  
HETATM    9  C   UNL     1     -10.890  16.259  69.752  1.00  0.00    -0.356 C  
BRANCH   6  10
HETATM   10  O   UNL     1     -12.532  12.774  69.413  1.00  0.00    -0.009 OA 
BRANCH  10  11
HETATM   11  P   UNL     1     -11.909  11.276  69.037  1.00  0.00    -0.273 P  
HETATM   12  O   UNL     1     -13.211  10.569  69.485  1.00  0.00     0.147 OA 
BRANCH  11  13
HETATM   13  C   UNL     1     -11.002  10.704  70.684  1.00  0.00     0.152 C  
BRANCH  13  14
HETATM   14  C   UNL     1     -10.339   9.330  70.537  1.00  0.00    -0.312 C  
BRANCH  14  15
HETATM   15  C   UNL     1     -11.320   8.173  70.463  1.00  0.00    -0.222 C  
BRANCH  15  16
HETATM   16  C   UNL     1     -10.553   6.849  70.613  1.00  0.00    -0.248 C  
BRANCH  16  17
HETATM   17  C   UNL     1     -10.424   6.161  69.283  1.00  0.00    -0.314 A  
HETATM   18  C   UNL     1      -9.832   4.894  69.191  1.00  0.00    -0.263 A  
HETATM   19  C   UNL     1     -10.951   6.760  68.134  1.00  0.00    -0.277 A  
HETATM   20  C   UNL     1     -10.299   4.838  66.820  1.00  0.00    -0.229 A  
HETATM   21  C   UNL     1      -9.766   4.239  67.956  1.00  0.00    -0.168 A  
HETATM   22  C   UNL     1     -10.891   6.095  66.909  1.00  0.00    -0.411 A  
ENDBRANCH  16  17
ENDBRANCH  15  16
ENDBRANCH  14  15
ENDBRANCH  13  14
ENDBRANCH  11  13
BRANCH  11  23
HETATM   23  C   UNL     1     -10.369  12.111  68.506  1.00  0.00    -0.221 C  
BRANCH  23  24
HETATM   24  C   UNL     1     -10.046  11.952  67.009  1.00  0.00    -0.205 C  
HETATM   25  C   UNL     1      -8.884  10.840  65.087  1.00  0.00    -0.186 C  
HETATM   26  O   UNL     1     -10.442  12.805  66.203  1.00  0.00    -0.259 OA 
HETATM   27  N   UNL     1      -9.372  10.869  66.489  1.00  0.00    -0.170 N  
HETATM   28  C   UNL     1      -9.914  10.673  63.936  1.00  0.00    -0.326 C  
HETATM   29  O   UNL     1      -9.658  10.139  62.862  1.00  0.00    -0.300 OA 
HETATM   30  C   UNL     1      -9.248   9.540  67.054  1.00  0.00    -0.139 C  
HETATM   31  C   UNL     1      -8.011   8.910  66.388  1.00  0.00    -0.103 C  
HETATM   32  O   UNL     1     -11.101  11.282  64.143  1.00  0.00    -0.354 OA 
HETATM   33  C   UNL     1      -7.889   9.664  65.047  1.00  0.00    -0.118 C  
BRANCH  31  34
HETATM   34  C   UNL     1      -6.684   8.971  67.206  1.00  0.00    -0.069 C  
HETATM   35  C   UNL     1      -7.293   7.217  68.938  1.00  0.00    -0.095 C  
HETATM   36  C   UNL     1      -6.261   6.237  68.393  1.00  0.00    -0.032 C  
HETATM   37  C   UNL     1      -5.869   6.527  66.946  1.00  0.00    -0.014 C  
HETATM   38  C   UNL     1      -6.846   8.656  68.703  1.00  0.00    -0.063 C  
HETATM   39  C   UNL     1      -5.598   8.010  66.660  1.00  0.00    -0.032 C  
ENDBRANCH  31  34
ENDBRANCH  23  24
ENDBRANCH  11  23
ENDBRANCH  10  11
ENDBRANCH   6  10
ENDBRANCH   5   6
ENDBRANCH   3   5
ENDBRANCH   2   3
TORSDOF 13
ENDMDL
MODEL      155
REMARK 921   NORMALIZED FREE ENERGY PREDICTED BY IDOCK:   -4.31 KCAL/MOL
REMARK 922        TOTAL FREE ENERGY PREDICTED BY IDOCK:  -10.05 KCAL/MOL
REMARK 923 INTER-LIGAND FREE ENERGY PREDICTED BY IDOCK:   -8.30 KCAL/MOL
REMARK 924 INTRA-LIGAND FREE ENERGY PREDICTED BY IDOCK:   -1.75 KCAL/MOL
REMARK 927      BINDING AFFINITY PREDICTED BY RF-SCORE:    0.00 PKD
ROOT
HETATM    1  C   UNL     1     -10.198  16.341  67.063  1.00  0.00    -0.280 C  
HETATM    2  C   UNL     1     -10.235  14.857  67.383  1.00  0.00    -0.234 C  
ENDROOT
BRANCH   2   3
HETATM    3  C   UNL     1     -11.504  14.296  68.018  1.00  0.00    -0.314 C  
HETATM    4  O   UNL     1     -11.833  14.553  69.171  1.00  0.00    -0.293 OA 
BRANCH   3   5
HETATM    5  O   UNL     1     -12.262  13.594  67.140  1.00  0.00    -0.372 OA 
BRANCH   5   6
HETATM    6  C   UNL     1     -11.587  12.886  66.053  1.00  0.00    -0.375 C  
HETATM    7  C   UNL     1     -12.382  13.193  64.732  1.00  0.00    -0.477 C  
HETATM    8  C   UNL     1     -11.816  12.504  63.491  1.00  0.00    -0.616 C  
HETATM    9  C   UNL     1     -12.519  14.690  64.449  1.00  0.00    -0.312 C  
BRANCH   6  10
HETATM   10  O   UNL     1     -11.413  11.448  66.244  1.00  0.00    -0.311 OA 
BRANCH  10  11
HETATM   11  P   UNL     1      -9.855  10.874  66.385  1.00  0.00    -0.223 P  
HETATM   12  O   UNL     1      -9.694  10.799  64.847  1.00  0.00    -0.230 OA 
BRANCH  11  13
HETATM   13  C   UNL     1     -10.069   8.923  66.483  1.00  0.00    -0.286 C  
BRANCH  13  14
HETATM   14  C   UNL     1      -8.909   8.176  65.815  1.00  0.00    -0.173 C  
BRANCH  14  15
HETATM   15  C   UNL     1      -8.776   6.726  66.243  1.00  0.00    -0.152 C  
BRANCH  15  16
HETATM   16  C   UNL     1      -7.578   6.092  65.519  1.00  0.00    -0.085 C  
BRANCH  16  17
HETATM   17  C   UNL     1      -7.814   4.625  65.291  1.00  0.00    -0.090 A  
HETATM   18  C   UNL     1      -7.154   3.668  66.072  1.00  0.00    -0.063 A  
HETATM   19  C   UNL     1      -8.746   4.209  64.334  1.00  0.00    -0.130 A  
HETATM   20  C   UNL     1      -8.355   1.902  64.940  1.00  0.00    -0.082 A  
HETATM   21  C   UNL     1      -7.422   2.306  65.888  1.00  0.00    -0.067 A  
HETATM   22  C   UNL     1      -9.016   2.851  64.165  1.00  0.00    -0.105 A  
ENDBRANCH  16  17
ENDBRANCH  15  16
ENDBRANCH  14  15
ENDBRANCH  13  14
ENDBRANCH  11  13
BRANCH  11  23
HETATM   23  C   UNL     1     -10.046  10.964  68.202  1.00  0.00    -0.173 C  
BRANCH  23  24
HETATM   24  C   UNL     1      -8.771  10.610  68.991  1.00  0.00    -0.146 C  
HETATM   25  C   UNL     1      -7.539   9.392  70.802  1.00  0.00    -0.114 C  
HETATM   26  O   UNL     1      -7.726  11.240  68.781  1.00  0.00    -0.127 OA 
HETATM   27  N   UNL     1      -8.704   9.577  69.900  1.00  0.00    -0.191 N  
HETATM   28  C   UNL     1      -6.202   8.870  70.204  1.00  0.00    -0.037 C  
HETATM   29  O   UNL     1      -5.382   8.212  70.836  1.00  0.00    -0.029 OA 
HETATM   30  C   UNL     1      -9.546   8.399  69.978  1.00  0.00    -0.168 C  
HETATM   31  C   UNL     1      -9.408   7.874  71.418  1.00  0.00    -0.174 C  
HETATM   32  O   UNL     1      -5.929   9.307  68.956  1.00  0.00    -0.042 OA 
HETATM   33  C   UNL     1      -8.031   8.401  71.874  1.00  0.00    -0.180 C  
BRANCH  31  34
HETATM   34  C   UNL     1     -10.540   8.283  72.410  1.00  0.00    -0.408 C  
HETATM   35  C   UNL     1     -12.483   7.299  71.106  1.00  0.00    -0.373 C  
HETATM   36  C   UNL     1     -12.717   6.219  72.157  1.00  0.00     0.050 C  
HETATM   37  C   UNL     1     -11.486   5.952  73.021  1.00  0.00    -0.151 C  
HETATM   38  C   UNL     1     -11.900   8.554  71.745  1.00  0.00    -0.395 C  
HETATM   39  C   UNL     1     -10.783   7.223  73.514  1.00  0.00    -0.367 C  
ENDBRANCH  31  34
ENDBRANCH  23  24
ENDBRANCH  11  23
ENDBRANCH  10  11
ENDBRANCH   6  10
ENDBRANCH   5   6
ENDBRANCH   3   5
ENDBRANCH   2   3
TORSDOF 13
ENDMDL
MODEL      156
REMARK 921   NORMALIZED FREE ENERGY PREDICTED BY IDOCK:   -4.31 KCAL/MOL
REMARK 922        TOTAL FREE ENERGY PREDICTED BY IDOCK:  -10.04 KCAL/MOL
REMARK 923 INTER-LIGAND FREE ENERGY PREDICTED BY IDOCK:   -8.99 KCAL/MOL
REMARK 924 INTRA-LIGAND FREE ENERGY PREDICTED BY IDOCK:   -1.06 KCAL/MOL
REMARK 927      BINDING AFFINITY PREDICTED BY RF-SCORE:    0.00 PKD
ROOT
HETATM    1  C   UNL     1     -12.878  10.873  71.436  1.00  0.00    -0.554 C  
HETATM    2  C   UNL     1     -13.049   9.371  71.305  1.00  0.00    -0.363 C  
ENDROOT
BRANCH   2   3
HETATM    3  C   UNL     1     -11.792   8.505  71.339  1.00  0.00    -0.296 C  
HETATM    4  O   UNL     1     -11.700   7.454  70.713  1.00  0.00    -0.294 OA 
BRANCH   3   5
HETATM    5  O   UNL     1     -10.777   9.082  72.028  1.00  0.00    -0.349 OA 
BRANCH   5   6
HETATM    6  C   UNL     1      -9.470   8.426  72.015  1.00  0.00    -0.268 C  
HETATM    7  C   UNL     1      -9.241   7.812  73.444  1.00  0.00    -0.344 C  
HETATM    8  C   UNL     1      -7.898   7.103  73.608  1.00  0.00    -0.123 C  
HETATM    9  C   UNL     1     -10.360   6.861  73.874  1.00  0.00    -0.398 C  
BRANCH   6  10
HETATM   10  O   UNL     1      -8.344   9.264  71.611  1.00  0.00    -0.306 OA 
BRANCH  10  11
HETATM   11  P   UNL     1      -7.883   9.216  70.011  1.00  0.00    -0.134 P  
HETATM   12  O   UNL     1      -7.424  10.694  70.049  1.00  0.00    -0.106 OA 
BRANCH  11  13
HETATM   13  C   UNL     1      -9.508   9.721  69.027  1.00  0.00    -0.173 C  
BRANCH  13  14
HETATM   14  C   UNL     1      -9.390  11.105  68.380  1.00  0.00    -0.185 C  
BRANCH  14  15
HETATM   15  C   UNL     1     -10.564  12.025  68.665  1.00  0.00    -0.253 C  
BRANCH  15  16
HETATM   16  C   UNL     1     -11.679  11.755  67.641  1.00  0.00    -0.320 C  
BRANCH  16  17
HETATM   17  C   UNL     1     -11.711  12.837  66.599  1.00  0.00    -0.459 A  
HETATM   18  C   UNL     1     -11.170  14.101  66.867  1.00  0.00    -0.326 A  
HETATM   19  C   UNL     1     -12.230  12.565  65.328  1.00  0.00    -0.493 A  
HETATM   20  C   UNL     1     -11.668  14.803  64.608  1.00  0.00    -0.426 A  
HETATM   21  C   UNL     1     -11.157  15.084  65.870  1.00  0.00    -0.334 A  
HETATM   22  C   UNL     1     -12.203  13.547  64.338  1.00  0.00    -0.440 A  
ENDBRANCH  16  17
ENDBRANCH  15  16
ENDBRANCH  14  15
ENDBRANCH  13  14
ENDBRANCH  11  13
BRANCH  11  23
HETATM   23  C   UNL     1      -8.425   7.469  69.966  1.00  0.00    -0.137 C  
BRANCH  23  24
HETATM   24  C   UNL     1      -8.055   6.724  68.670  1.00  0.00    -0.120 C  
HETATM   25  C   UNL     1      -8.040   4.702  67.189  1.00  0.00    -0.102 C  
HETATM   26  O   UNL     1      -7.291   7.258  67.854  1.00  0.00    -0.091 OA 
HETATM   27  N   UNL     1      -8.572   5.494  68.327  1.00  0.00    -0.097 N  
HETATM   28  C   UNL     1      -8.351   5.167  65.740  1.00  0.00    -0.120 C  
HETATM   29  O   UNL     1      -8.438   4.406  64.782  1.00  0.00    -0.114 OA 
HETATM   30  C   UNL     1      -9.807   4.887  68.781  1.00  0.00    -0.161 C  
HETATM   31  C   UNL     1      -9.650   3.375  68.540  1.00  0.00    -0.138 C  
HETATM   32  O   UNL     1      -8.391   6.506  65.569  1.00  0.00    -0.140 OA 
HETATM   33  C   UNL     1      -8.615   3.288  67.398  1.00  0.00    -0.122 C  
BRANCH  31  34
HETATM   34  C   UNL     1      -9.220   2.522  69.774  1.00  0.00    -0.195 C  
HETATM   35  C   UNL     1      -7.001   3.678  70.205  1.00  0.00    -0.038 C  
HETATM   36  C   UNL     1      -7.508   4.291  71.506  1.00  0.00    -0.060 C  
HETATM   37  C   UNL     1      -9.031   4.375  71.572  1.00  0.00    -0.162 C  
HETATM   38  C   UNL     1      -7.700   2.351  69.928  1.00  0.00    -0.046 C  
HETATM   39  C   UNL     1      -9.746   3.098  71.113  1.00  0.00    -0.198 C  
ENDBRANCH  31  34
ENDBRANCH  23  24
ENDBRANCH  11  23
ENDBRANCH  10  11
ENDBRANCH   6  10
ENDBRANCH   5   6
ENDBRANCH   3   5
ENDBRANCH   2   3
TORSDOF 13
ENDMDL
MODEL      157
REMARK 921   NORMALIZED FREE ENERGY PREDICTED BY IDOCK:   -4.29 KCAL/MOL
REMARK 922        TOTAL FREE ENERGY PREDICTED BY IDOCK:  -10.02 KCAL/MOL
REMARK 923 INTER-LIGAND FREE ENERGY PREDICTED BY IDOCK:   -8.11 KCAL/MOL
REMARK 924 INTRA-LIGAND FREE ENERGY PREDICTED BY IDOCK:   -1.91 KCAL/MOL
REMARK 927      BINDING AFFINITY PREDICTED BY RF-SCORE:    0.00 PKD
ROOT
HETATM    1  C   UNL     1      -6.874  13.814  68.934  1.00  0.00    -0.110 C  
HETATM    2  C   UNL     1      -6.847  12.297  68.916  1.00  0.00    -0.096 C  
ENDROOT
BRANCH   2   3
HETATM    3  C   UNL     1      -6.181  11.610  67.726  1.00  0.00    -0.059 C  
HETATM    4  O   UNL     1      -5.471  12.215  66.930  1.00  0.00    -0.268 OA 
BRANCH   3   5
HETATM    5  O   UNL     1      -6.370  10.268  67.723  1.00  0.00    -0.057 OA 
BRANCH   5   6
HETATM    6  C   UNL     1      -7.507   9.728  66.979  1.00  0.00    -0.091 C  
HETATM    7  C   UNL     1      -7.028   9.492  65.501  1.00  0.00    -0.089 C  
HETATM    8  C   UNL     1      -8.114   8.946  64.575  1.00  0.00    -0.150 C  
HETATM    9  C   UNL     1      -5.796   8.590  65.407  1.00  0.00    -0.044 C  
BRANCH   6  10
HETATM   10  O   UNL     1      -8.728  10.529  67.019  1.00  0.00    -0.130 OA 
BRANCH  10  11
HETATM   11  P   UNL     1     -10.139   9.759  67.459  1.00  0.00    -0.226 P  
HETATM   12  O   UNL     1     -10.614   9.686  65.987  1.00  0.00    -0.068 OA 
BRANCH  11  13
HETATM   13  C   UNL     1     -11.396  11.227  67.817  1.00  0.00    -0.285 C  
BRANCH  13  14
HETATM   14  C   UNL     1     -10.879  12.186  68.895  1.00  0.00    -0.241 C  
BRANCH  14  15
HETATM   15  C   UNL     1     -11.799  12.324  70.095  1.00  0.00    -0.352 C  
BRANCH  15  16
HETATM   16  C   UNL     1     -12.763  13.499  69.862  1.00  0.00     0.080 C  
BRANCH  16  17
HETATM   17  C   UNL     1     -12.721  14.454  71.022  1.00  0.00    -0.416 A  
HETATM   18  C   UNL     1     -13.562  14.270  72.127  1.00  0.00    -0.546 A  
HETATM   19  C   UNL     1     -11.793  15.502  71.029  1.00  0.00    -0.427 A  
HETATM   20  C   UNL     1     -12.547  16.168  73.227  1.00  0.00    -0.623 A  
HETATM   21  C   UNL     1     -13.477  15.134  73.225  1.00  0.00    -0.354 A  
HETATM   22  C   UNL     1     -11.707  16.351  72.132  1.00  0.00    -0.453 A  
ENDBRANCH  16  17
ENDBRANCH  15  16
ENDBRANCH  14  15
ENDBRANCH  13  14
ENDBRANCH  11  13
BRANCH  11  23
HETATM   23  C   UNL     1      -9.577   9.845  69.198  1.00  0.00    -0.199 C  
BRANCH  23  24
HETATM   24  C   UNL     1     -10.229   8.803  70.126  1.00  0.00    -0.190 C  
HETATM   25  C   UNL     1     -10.791   6.451  70.786  1.00  0.00    -0.267 C  
HETATM   26  O   UNL     1     -10.970   9.178  71.043  1.00  0.00    -0.254 OA 
HETATM   27  N   UNL     1      -9.992   7.449  70.030  1.00  0.00    -0.183 N  
HETATM   28  C   UNL     1     -10.572   6.318  72.318  1.00  0.00    -0.213 C  
HETATM   29  O   UNL     1     -10.740   5.277  72.945  1.00  0.00    -0.216 OA 
HETATM   30  C   UNL     1      -8.846   6.782  69.444  1.00  0.00    -0.135 C  
HETATM   31  C   UNL     1      -9.307   5.349  69.123  1.00  0.00    -0.158 C  
HETATM   32  O   UNL     1     -10.304   7.477  72.957  1.00  0.00    -0.257 OA 
HETATM   33  C   UNL     1     -10.467   5.104  70.112  1.00  0.00    -0.305 C  
BRANCH  31  34
HETATM   34  C   UNL     1      -9.740   5.080  67.649  1.00  0.00    -0.188 C  
HETATM   35  C   UNL     1      -7.484   5.513  66.568  1.00  0.00    -0.087 C  
HETATM   36  C   UNL     1      -7.314   4.044  66.199  1.00  0.00    -0.072 C  
HETATM   37  C   UNL     1      -8.167   3.111  67.057  1.00  0.00    -0.084 C  
HETATM   38  C   UNL     1      -8.961   5.892  66.601  1.00  0.00    -0.125 C  
HETATM   39  C   UNL     1      -9.612   3.589  67.248  1.00  0.00    -0.166 C  
ENDBRANCH  31  34
ENDBRANCH  23  24
ENDBRANCH  11  23
ENDBRANCH  10  11
ENDBRANCH   6  10
ENDBRANCH   5   6
ENDBRANCH   3   5
ENDBRANCH   2   3
TORSDOF 13
ENDMDL
MODEL      158
REMARK 921   NORMALIZED FREE ENERGY PREDICTED BY IDOCK:   -4.29 KCAL/MOL
REMARK 922        TOTAL FREE ENERGY PREDICTED BY IDOCK:  -10.02 KCAL/MOL
REMARK 923 INTER-LIGAND FREE ENERGY PREDICTED BY IDOCK:   -7.30 KCAL/MOL
REMARK 924 INTRA-LIGAND FREE ENERGY PREDICTED BY IDOCK:   -2.72 KCAL/MOL
REMARK 927      BINDING AFFINITY PREDICTED BY RF-SCORE:    0.00 PKD
ROOT
HETATM    1  C   UNL     1      -5.384  11.975  70.772  1.00  0.00    -0.152 C  
HETATM    2  C   UNL     1      -6.035  11.659  69.438  1.00  0.00    -0.079 C  
ENDROOT
BRANCH   2   3
HETATM    3  C   UNL     1      -6.440  10.212  69.167  1.00  0.00    -0.049 C  
HETATM    4  O   UNL     1      -5.744   9.260  69.502  1.00  0.00    -0.034 OA 
BRANCH   3   5
HETATM    5  O   UNL     1      -7.681  10.108  68.631  1.00  0.00    -0.085 OA 
BRANCH   5   6
HETATM    6  C   UNL     1      -7.938   9.024  67.683  1.00  0.00    -0.101 C  
HETATM    7  C   UNL     1      -8.158   9.681  66.272  1.00  0.00    -0.112 C  
HETATM    8  C   UNL     1      -8.463   8.679  65.160  1.00  0.00    -0.197 C  
HETATM    9  C   UNL     1      -6.990  10.567  65.835  1.00  0.00    -0.131 C  
BRANCH   6  10
HETATM   10  O   UNL     1      -9.038   8.128  68.027  1.00  0.00    -0.134 OA 
BRANCH  10  11
HETATM   11  P   UNL     1      -9.687   8.257  69.557  1.00  0.00    -0.179 P  
HETATM   12  O   UNL     1      -8.652   7.260  70.132  1.00  0.00    -0.137 OA 
BRANCH  11  13
HETATM   13  C   UNL     1     -11.083   6.875  69.606  1.00  0.00    -0.258 C  
BRANCH  13  14
HETATM   14  C   UNL     1     -10.506   5.460  69.481  1.00  0.00    -0.343 C  
BRANCH  14  15
HETATM   15  C   UNL     1     -10.246   5.021  68.051  1.00  0.00    -0.144 C  
BRANCH  15  16
HETATM   16  C   UNL     1      -9.009   4.109  68.019  1.00  0.00    -0.150 C  
BRANCH  16  17
HETATM   17  C   UNL     1      -7.812   4.862  67.509  1.00  0.00    -0.094 A  
HETATM   18  C   UNL     1      -7.646   5.091  66.137  1.00  0.00    -0.087 A  
HETATM   19  C   UNL     1      -6.884   5.391  68.413  1.00  0.00    -0.056 A  
HETATM   20  C   UNL     1      -5.643   6.369  66.584  1.00  0.00    -0.013 A  
HETATM   21  C   UNL     1      -6.556   5.840  65.678  1.00  0.00    -0.044 A  
HETATM   22  C   UNL     1      -5.807   6.145  67.948  1.00  0.00    -0.012 A  
ENDBRANCH  16  17
ENDBRANCH  15  16
ENDBRANCH  14  15
ENDBRANCH  13  14
ENDBRANCH  11  13
BRANCH  11  23
HETATM   23  C   UNL     1     -10.910   9.437  68.877  1.00  0.00    -0.123 C  
BRANCH  23  24
HETATM   24  C   UNL     1     -11.307  10.566  69.846  1.00  0.00    -0.309 C  
HETATM   25  C   UNL     1     -11.730  12.971  70.409  1.00  0.00    -0.035 C  
HETATM   26  O   UNL     1     -11.454  10.316  71.049  1.00  0.00    -0.350 OA 
HETATM   27  N   UNL     1     -11.563  11.858  69.441  1.00  0.00    -0.302 N  
HETATM   28  C   UNL     1     -13.031  13.043  71.256  1.00  0.00    -0.243 C  
HETATM   29  O   UNL     1     -13.520  14.089  71.670  1.00  0.00    -0.342 OA 
HETATM   30  C   UNL     1     -11.965  12.318  68.127  1.00  0.00    -0.195 C  
HETATM   31  C   UNL     1     -11.607  13.815  68.074  1.00  0.00    -0.368 C  
HETATM   32  O   UNL     1     -13.533  11.846  71.629  1.00  0.00    -0.231 OA 
HETATM   33  C   UNL     1     -11.614  14.249  69.556  1.00  0.00    -0.353 C  
BRANCH  31  34
HETATM   34  C   UNL     1     -10.261  14.176  67.374  1.00  0.00    -0.244 C  
HETATM   35  C   UNL     1     -10.525  12.648  65.364  1.00  0.00    -0.306 C  
HETATM   36  C   UNL     1     -10.693  13.829  64.415  1.00  0.00    -0.333 C  
HETATM   37  C   UNL     1     -11.145  15.104  65.125  1.00  0.00    -0.410 C  
HETATM   38  C   UNL     1      -9.648  13.031  66.550  1.00  0.00    -0.260 C  
HETATM   39  C   UNL     1     -10.386  15.395  66.425  1.00  0.00    -0.303 C  
ENDBRANCH  31  34
ENDBRANCH  23  24
ENDBRANCH  11  23
ENDBRANCH  10  11
ENDBRANCH   6  10
ENDBRANCH   5   6
ENDBRANCH   3   5
ENDBRANCH   2   3
TORSDOF 13
ENDMDL
MODEL      159
REMARK 921   NORMALIZED FREE ENERGY PREDICTED BY IDOCK:   -4.28 KCAL/MOL
REMARK 922        TOTAL FREE ENERGY PREDICTED BY IDOCK:  -10.01 KCAL/MOL
REMARK 923 INTER-LIGAND FREE ENERGY PREDICTED BY IDOCK:   -7.96 KCAL/MOL
REMARK 924 INTRA-LIGAND FREE ENERGY PREDICTED BY IDOCK:   -2.04 KCAL/MOL
REMARK 927      BINDING AFFINITY PREDICTED BY RF-SCORE:    0.00 PKD
ROOT
HETATM    1  C   UNL     1      -8.642  15.557  69.615  1.00  0.00    -0.119 C  
HETATM    2  C   UNL     1      -7.558  14.518  69.389  1.00  0.00    -0.033 C  
ENDROOT
BRANCH   2   3
HETATM    3  C   UNL     1      -7.633  13.674  68.120  1.00  0.00    -0.137 C  
HETATM    4  O   UNL     1      -7.939  14.149  67.031  1.00  0.00    -0.129 OA 
BRANCH   3   5
HETATM    5  O   UNL     1      -7.218  12.398  68.314  1.00  0.00    -0.087 OA 
BRANCH   5   6
HETATM    6  C   UNL     1      -7.707  11.364  67.403  1.00  0.00    -0.135 C  
HETATM    7  C   UNL     1      -6.646  11.215  66.252  1.00  0.00    -0.069 C  
HETATM    8  C   UNL     1      -7.018  10.180  65.193  1.00  0.00    -0.137 C  
HETATM    9  C   UNL     1      -5.238  10.911  66.770  1.00  0.00    -0.063 C  
BRANCH   6  10
HETATM   10  O   UNL     1      -9.047  11.575  66.864  1.00  0.00    -0.169 OA 
BRANCH  10  11
HETATM   11  P   UNL     1     -10.142  10.328  67.012  1.00  0.00    -0.239 P  
HETATM   12  O   UNL     1     -10.968  10.847  65.811  1.00  0.00    -0.122 OA 
BRANCH  11  13
HETATM   13  C   UNL     1     -11.489  11.018  68.267  1.00  0.00    -0.304 C  
BRANCH  13  14
HETATM   14  C   UNL     1     -10.882  11.958  69.314  1.00  0.00    -0.157 C  
BRANCH  14  15
HETATM   15  C   UNL     1     -11.441  13.370  69.278  1.00  0.00    -0.345 C  
BRANCH  15  16
HETATM   16  C   UNL     1     -12.237  13.566  67.977  1.00  0.00    -0.158 C  
BRANCH  16  17
HETATM   17  C   UNL     1     -11.575  14.594  67.103  1.00  0.00    -0.394 A  
HETATM   18  C   UNL     1     -11.425  14.371  65.728  1.00  0.00    -0.335 A  
HETATM   19  C   UNL     1     -11.158  15.812  67.653  1.00  0.00    -0.283 A  
HETATM   20  C   UNL     1     -10.452  16.568  65.469  1.00  0.00    -0.320 A  
HETATM   21  C   UNL     1     -10.856  15.358  64.916  1.00  0.00    -0.445 A  
HETATM   22  C   UNL     1     -10.603  16.794  66.834  1.00  0.00    -0.219 A  
ENDBRANCH  16  17
ENDBRANCH  15  16
ENDBRANCH  14  15
ENDBRANCH  13  14
ENDBRANCH  11  13
BRANCH  11  23
HETATM   23  C   UNL     1      -9.165   9.715  68.433  1.00  0.00    -0.133 C  
BRANCH  23  24
HETATM   24  C   UNL     1      -8.809   8.218  68.357  1.00  0.00    -0.137 C  
HETATM   25  C   UNL     1      -9.115   5.820  69.019  1.00  0.00    -0.116 C  
HETATM   26  O   UNL     1      -7.805   7.859  67.730  1.00  0.00    -0.118 OA 
HETATM   27  N   UNL     1      -9.584   7.225  68.915  1.00  0.00    -0.143 N  
HETATM   28  C   UNL     1      -9.043   4.955  67.730  1.00  0.00    -0.116 C  
HETATM   29  O   UNL     1      -9.179   3.736  67.717  1.00  0.00    -0.143 OA 
HETATM   30  C   UNL     1     -10.997   7.270  69.238  1.00  0.00    -0.098 C  
HETATM   31  C   UNL     1     -11.229   6.162  70.281  1.00  0.00    -0.439 C  
HETATM   32  O   UNL     1      -8.681   5.625  66.615  1.00  0.00    -0.115 OA 
HETATM   33  C   UNL     1     -10.086   5.158  70.015  1.00  0.00    -0.345 C  
BRANCH  31  34
HETATM   34  C   UNL     1     -11.260   6.617  71.773  1.00  0.00    -0.299 C  
HETATM   35  C   UNL     1     -11.998   9.011  71.362  1.00  0.00    -0.400 C  
HETATM   36  C   UNL     1     -13.364   8.759  71.991  1.00  0.00    -0.455 C  
HETATM   37  C   UNL     1     -13.752   7.282  72.001  1.00  0.00    -0.212 C  
HETATM   38  C   UNL     1     -10.943   8.106  71.988  1.00  0.00    -0.350 C  
HETATM   39  C   UNL     1     -12.625   6.345  72.455  1.00  0.00     0.054 C  
ENDBRANCH  31  34
ENDBRANCH  23  24
ENDBRANCH  11  23
ENDBRANCH  10  11
ENDBRANCH   6  10
ENDBRANCH   5   6
ENDBRANCH   3   5
ENDBRANCH   2   3
TORSDOF 13
ENDMDL
MODEL      160
REMARK 921   NORMALIZED FREE ENERGY PREDICTED BY IDOCK:   -4.28 KCAL/MOL
REMARK 922        TOTAL FREE ENERGY PREDICTED BY IDOCK:  -10.00 KCAL/MOL
REMARK 923 INTER-LIGAND FREE ENERGY PREDICTED BY IDOCK:   -9.26 KCAL/MOL
REMARK 924 INTRA-LIGAND FREE ENERGY PREDICTED BY IDOCK:   -0.74 KCAL/MOL
REMARK 927      BINDING AFFINITY PREDICTED BY RF-SCORE:    0.00 PKD
ROOT
HETATM    1  C   UNL     1      -5.820  17.282  66.376  1.00  0.00    -0.222 C  
HETATM    2  C   UNL     1      -5.715  17.761  67.813  1.00  0.00    -0.146 C  
ENDROOT
BRANCH   2   3
HETATM    3  C   UNL     1      -6.928  17.570  68.719  1.00  0.00    -0.237 C  
HETATM    4  O   UNL     1      -7.947  18.244  68.607  1.00  0.00    -0.302 OA 
BRANCH   3   5
HETATM    5  O   UNL     1      -6.793  16.515  69.560  1.00  0.00    -0.229 OA 
BRANCH   5   6
HETATM    6  C   UNL     1      -7.405  15.242  69.180  1.00  0.00    -0.172 C  
HETATM    7  C   UNL     1      -6.354  14.112  69.479  1.00  0.00    -0.120 C  
HETATM    8  C   UNL     1      -6.832  12.707  69.114  1.00  0.00    -0.057 C  
HETATM    9  C   UNL     1      -5.871  14.110  70.931  1.00  0.00    -0.213 C  
BRANCH   6  10
HETATM   10  O   UNL     1      -7.896  15.160  67.808  1.00  0.00    -0.126 OA 
BRANCH  10  11
HETATM   11  P   UNL     1      -9.519  15.438  67.553  1.00  0.00    -0.207 P  
HETATM   12  O   UNL     1      -9.777  15.603  69.071  1.00  0.00    -0.210 OA 
BRANCH  11  13
HETATM   13  C   UNL     1     -10.325  13.645  67.588  1.00  0.00    -0.239 C  
BRANCH  13  14
HETATM   14  C   UNL     1     -10.592  13.154  69.015  1.00  0.00    -0.089 C  
BRANCH  14  15
HETATM   15  C   UNL     1     -11.906  12.412  69.180  1.00  0.00    -0.352 C  
BRANCH  15  16
HETATM   16  C   UNL     1     -12.168  12.173  70.676  1.00  0.00    -0.392 C  
BRANCH  16  17
HETATM   17  C   UNL     1     -12.640  13.436  71.338  1.00  0.00    -0.374 A  
HETATM   18  C   UNL     1     -13.362  14.394  70.612  1.00  0.00    -0.107 A  
HETATM   19  C   UNL     1     -12.413  13.635  72.704  1.00  0.00     0.163 A  
HETATM   20  C   UNL     1     -13.620  15.727  72.612  1.00  0.00    -0.630 A  
HETATM   21  C   UNL     1     -13.843  15.542  71.252  1.00  0.00    -0.440 A  
HETATM   22  C   UNL     1     -12.907  14.776  73.336  1.00  0.00    -0.597 A  
ENDBRANCH  16  17
ENDBRANCH  15  16
ENDBRANCH  14  15
ENDBRANCH  13  14
ENDBRANCH  11  13
BRANCH  11  23
HETATM   23  C   UNL     1      -9.214  15.242  65.760  1.00  0.00    -0.098 C  
BRANCH  23  24
HETATM   24  C   UNL     1     -10.370  14.575  64.990  1.00  0.00    -0.413 C  
HETATM   25  C   UNL     1     -11.412  12.656  63.759  1.00  0.00    -0.470 C  
HETATM   26  O   UNL     1     -11.354  15.249  64.660  1.00  0.00    -0.398 OA 
HETATM   27  N   UNL     1     -10.402  13.233  64.683  1.00  0.00    -0.389 N  
HETATM   28  C   UNL     1     -12.881  12.517  64.244  1.00  0.00    -0.255 C  
HETATM   29  O   UNL     1     -13.653  11.652  63.845  1.00  0.00    -0.254 OA 
HETATM   30  C   UNL     1      -9.702  12.148  65.343  1.00  0.00    -0.162 C  
HETATM   31  C   UNL     1      -9.654  10.993  64.328  1.00  0.00    -0.303 C  
HETATM   32  O   UNL     1     -13.309  13.510  65.054  1.00  0.00    -0.596 OA 
HETATM   33  C   UNL     1     -10.864  11.260  63.406  1.00  0.00    -0.311 C  
BRANCH  31  34
HETATM   34  C   UNL     1      -8.331  10.847  63.514  1.00  0.00     0.107 C  
HETATM   35  C   UNL     1      -7.257   9.062  64.965  1.00  0.00    -0.092 C  
HETATM   36  C   UNL     1      -7.392   8.009  63.870  1.00  0.00    -0.098 C  
HETATM   37  C   UNL     1      -8.472   8.350  62.846  1.00  0.00    -0.060 C  
HETATM   38  C   UNL     1      -7.107  10.453  64.358  1.00  0.00     0.007 C  
HETATM   39  C   UNL     1      -8.441   9.808  62.370  1.00  0.00    -0.174 C  
ENDBRANCH  31  34
ENDBRANCH  23  24
ENDBRANCH  11  23
ENDBRANCH  10  11
ENDBRANCH   6  10
ENDBRANCH   5   6
ENDBRANCH   3   5
ENDBRANCH   2   3
TORSDOF 13
ENDMDL
MODEL      161
REMARK 921   NORMALIZED FREE ENERGY PREDICTED BY IDOCK:   -4.27 KCAL/MOL
REMARK 922        TOTAL FREE ENERGY PREDICTED BY IDOCK:   -9.97 KCAL/MOL
REMARK 923 INTER-LIGAND FREE ENERGY PREDICTED BY IDOCK:   -8.18 KCAL/MOL
REMARK 924 INTRA-LIGAND FREE ENERGY PREDICTED BY IDOCK:   -1.79 KCAL/MOL
REMARK 927      BINDING AFFINITY PREDICTED BY RF-SCORE:    0.00 PKD
ROOT
HETATM    1  C   UNL     1      -9.579   3.473  70.410  1.00  0.00    -0.241 C  
HETATM    2  C   UNL     1      -9.875   4.960  70.333  1.00  0.00    -0.302 C  
ENDROOT
BRANCH   2   3
HETATM    3  C   UNL     1     -10.510   5.496  69.053  1.00  0.00    -0.226 C  
HETATM    4  O   UNL     1     -10.228   5.053  67.944  1.00  0.00    -0.148 OA 
BRANCH   3   5
HETATM    5  O   UNL     1     -11.480   6.412  69.292  1.00  0.00    -0.381 OA 
BRANCH   5   6
HETATM    6  C   UNL     1     -11.088   7.707  69.849  1.00  0.00    -0.150 C  
HETATM    7  C   UNL     1     -11.975   7.955  71.123  1.00  0.00    -0.304 C  
HETATM    8  C   UNL     1     -11.705   9.288  71.818  1.00  0.00    -0.456 C  
HETATM    9  C   UNL     1     -11.872   6.828  72.153  1.00  0.00    -0.326 C  
BRANCH   6  10
HETATM   10  O   UNL     1     -11.155   8.839  68.928  1.00  0.00     0.026 OA 
BRANCH  10  11
HETATM   11  P   UNL     1      -9.717   9.539  68.464  1.00  0.00    -0.159 P  
HETATM   12  O   UNL     1      -9.055   8.155  68.255  1.00  0.00    -0.136 OA 
BRANCH  11  13
HETATM   13  C   UNL     1      -8.734   9.781  70.149  1.00  0.00    -0.180 C  
BRANCH  13  14
HETATM   14  C   UNL     1      -7.355   9.112  70.120  1.00  0.00    -0.077 C  
BRANCH  14  15
HETATM   15  C   UNL     1      -6.800   8.776  71.492  1.00  0.00    -0.087 C  
BRANCH  15  16
HETATM   16  C   UNL     1      -7.965   8.595  72.479  1.00  0.00    -0.026 C  
BRANCH  16  17
HETATM   17  C   UNL     1      -8.032   7.173  72.960  1.00  0.00    -0.115 A  
HETATM   18  C   UNL     1      -7.228   6.184  72.378  1.00  0.00    -0.085 A  
HETATM   19  C   UNL     1      -8.859   6.840  74.040  1.00  0.00    -0.187 A  
HETATM   20  C   UNL     1      -8.078   4.555  73.948  1.00  0.00    -0.100 A  
HETATM   21  C   UNL     1      -7.260   4.874  72.871  1.00  0.00    -0.085 A  
HETATM   22  C   UNL     1      -8.876   5.535  74.531  1.00  0.00    -0.117 A  
ENDBRANCH  16  17
ENDBRANCH  15  16
ENDBRANCH  14  15
ENDBRANCH  13  14
ENDBRANCH  11  13
BRANCH  11  23
HETATM   23  C   UNL     1     -10.498  11.175  68.711  1.00  0.00    -0.203 C  
BRANCH  23  24
HETATM   24  C   UNL     1     -10.899  11.889  67.406  1.00  0.00    -0.243 C  
HETATM   25  C   UNL     1     -10.728  12.274  64.935  1.00  0.00    -0.297 C  
HETATM   26  O   UNL     1     -11.641  12.878  67.453  1.00  0.00    -0.318 OA 
HETATM   27  N   UNL     1     -10.515  11.455  66.156  1.00  0.00    -0.248 N  
HETATM   28  C   UNL     1     -12.169  12.425  64.373  1.00  0.00    -0.437 C  
HETATM   29  O   UNL     1     -12.424  12.601  63.187  1.00  0.00    -0.586 OA 
HETATM   30  C   UNL     1     -10.113  10.121  65.758  1.00  0.00    -0.254 C  
HETATM   31  C   UNL     1      -9.308  10.290  64.457  1.00  0.00    -0.328 C  
HETATM   32  O   UNL     1     -13.140  12.483  65.309  1.00  0.00    -0.531 OA 
HETATM   33  C   UNL     1      -9.837  11.615  63.865  1.00  0.00    -0.306 C  
BRANCH  31  34
HETATM   34  C   UNL     1      -7.755  10.304  64.605  1.00  0.00    -0.114 C  
HETATM   35  C   UNL     1      -7.452   7.822  65.044  1.00  0.00    -0.089 C  
HETATM   36  C   UNL     1      -6.764   7.610  63.700  1.00  0.00    -0.058 C  
HETATM   37  C   UNL     1      -7.093   8.701  62.684  1.00  0.00    -0.097 C  
HETATM   38  C   UNL     1      -7.200   9.235  65.560  1.00  0.00    -0.086 C  
HETATM   39  C   UNL     1      -7.021  10.124  63.252  1.00  0.00    -0.125 C  
ENDBRANCH  31  34
ENDBRANCH  23  24
ENDBRANCH  11  23
ENDBRANCH  10  11
ENDBRANCH   6  10
ENDBRANCH   5   6
ENDBRANCH   3   5
ENDBRANCH   2   3
TORSDOF 13
ENDMDL
MODEL      162
REMARK 921   NORMALIZED FREE ENERGY PREDICTED BY IDOCK:   -4.26 KCAL/MOL
REMARK 922        TOTAL FREE ENERGY PREDICTED BY IDOCK:   -9.96 KCAL/MOL
REMARK 923 INTER-LIGAND FREE ENERGY PREDICTED BY IDOCK:   -7.50 KCAL/MOL
REMARK 924 INTRA-LIGAND FREE ENERGY PREDICTED BY IDOCK:   -2.47 KCAL/MOL
REMARK 927      BINDING AFFINITY PREDICTED BY RF-SCORE:    0.00 PKD
ROOT
HETATM    1  C   UNL     1     -10.931   8.799  71.892  1.00  0.00    -0.435 C  
HETATM    2  C   UNL     1     -10.609   8.793  70.409  1.00  0.00    -0.251 C  
ENDROOT
BRANCH   2   3
HETATM    3  C   UNL     1     -10.999  10.020  69.589  1.00  0.00    -0.264 C  
HETATM    4  O   UNL     1     -11.237  11.107  70.105  1.00  0.00    -0.250 OA 
BRANCH   3   5
HETATM    5  O   UNL     1     -10.937   9.798  68.253  1.00  0.00    -0.229 OA 
BRANCH   5   6
HETATM    6  C   UNL     1     -10.235  10.775  67.421  1.00  0.00    -0.204 C  
HETATM    7  C   UNL     1      -8.758  10.865  67.952  1.00  0.00    -0.131 C  
HETATM    8  C   UNL     1      -7.886  11.867  67.197  1.00  0.00    -0.168 C  
HETATM    9  C   UNL     1      -8.047   9.510  67.978  1.00  0.00    -0.102 C  
BRANCH   6  10
HETATM   10  O   UNL     1     -10.850  12.097  67.338  1.00  0.00    -0.229 OA 
BRANCH  10  11
HETATM   11  P   UNL     1     -11.589  12.514  65.904  1.00  0.00    -0.417 P  
HETATM   12  O   UNL     1     -10.981  11.288  65.180  1.00  0.00    -0.241 OA 
BRANCH  11  13
HETATM   13  C   UNL     1     -10.295  13.705  65.026  1.00  0.00    -0.374 C  
BRANCH  13  14
HETATM   14  C   UNL     1     -10.848  15.120  64.827  1.00  0.00    -0.378 C  
BRANCH  14  15
HETATM   15  C   UNL     1      -9.953  16.218  65.373  1.00  0.00    -0.097 C  
BRANCH  15  16
HETATM   16  C   UNL     1     -10.713  17.554  65.339  1.00  0.00    -0.008 C  
BRANCH  16  17
HETATM   17  C   UNL     1     -10.058  18.557  66.247  1.00  0.00    -0.422 A  
HETATM   18  C   UNL     1      -8.778  19.048  65.960  1.00  0.00    -0.065 A  
HETATM   19  C   UNL     1     -10.754  19.052  67.356  1.00  0.00    -0.559 A  
HETATM   20  C   UNL     1      -8.902  20.515  67.878  1.00  0.00    -0.105 A  
HETATM   21  C   UNL     1      -8.200  20.023  66.783  1.00  0.00    -0.362 A  
HETATM   22  C   UNL     1     -10.175  20.031  68.163  1.00  0.00    -0.535 A  
ENDBRANCH  16  17
ENDBRANCH  15  16
ENDBRANCH  14  15
ENDBRANCH  13  14
ENDBRANCH  11  13
BRANCH  11  23
HETATM   23  C   UNL     1     -12.307  13.963  66.761  1.00  0.00    -0.330 C  
BRANCH  23  24
HETATM   24  C   UNL     1     -12.059  13.987  68.281  1.00  0.00    -0.277 C  
HETATM   25  C   UNL     1     -10.669  14.497  70.303  1.00  0.00     0.216 C  
HETATM   26  O   UNL     1     -12.851  13.414  69.039  1.00  0.00     0.551 OA 
HETATM   27  N   UNL     1     -11.013  14.665  68.868  1.00  0.00    -0.243 N  
HETATM   28  C   UNL     1     -11.599  15.125  71.377  1.00  0.00    -0.373 C  
HETATM   29  O   UNL     1     -11.212  15.507  72.477  1.00  0.00    -0.321 OA 
HETATM   30  C   UNL     1     -10.268  15.790  68.338  1.00  0.00    -0.223 C  
HETATM   31  C   UNL     1      -8.933  15.814  69.105  1.00  0.00    -0.256 C  
HETATM   32  O   UNL     1     -12.914  15.105  71.072  1.00  0.00    -0.366 OA 
HETATM   33  C   UNL     1      -9.260  15.108  70.438  1.00  0.00     0.874 C  
BRANCH  31  34
HETATM   34  C   UNL     1      -7.716  15.154  68.386  1.00  0.00    -0.118 C  
HETATM   35  C   UNL     1      -6.371  17.276  68.020  1.00  0.00    -0.150 C  
HETATM   36  C   UNL     1      -5.305  16.843  69.020  1.00  0.00    -0.135 C  
HETATM   37  C   UNL     1      -5.812  15.802  70.016  1.00  0.00    -0.159 C  
HETATM   38  C   UNL     1      -7.016  16.062  67.361  1.00  0.00    -0.223 C  
HETATM   39  C   UNL     1      -6.625  14.670  69.376  1.00  0.00    -0.138 C  
ENDBRANCH  31  34
ENDBRANCH  23  24
ENDBRANCH  11  23
ENDBRANCH  10  11
ENDBRANCH   6  10
ENDBRANCH   5   6
ENDBRANCH   3   5
ENDBRANCH   2   3
TORSDOF 13
ENDMDL
MODEL      163
REMARK 921   NORMALIZED FREE ENERGY PREDICTED BY IDOCK:   -4.26 KCAL/MOL
REMARK 922        TOTAL FREE ENERGY PREDICTED BY IDOCK:   -9.96 KCAL/MOL
REMARK 923 INTER-LIGAND FREE ENERGY PREDICTED BY IDOCK:   -8.76 KCAL/MOL
REMARK 924 INTRA-LIGAND FREE ENERGY PREDICTED BY IDOCK:   -1.20 KCAL/MOL
REMARK 927      BINDING AFFINITY PREDICTED BY RF-SCORE:    0.00 PKD
ROOT
HETATM    1  C   UNL     1     -12.973  11.990  64.073  1.00  0.00    -0.251 C  
HETATM    2  C   UNL     1     -11.852  11.706  63.089  1.00  0.00    -0.098 C  
ENDROOT
BRANCH   2   3
HETATM    3  C   UNL     1     -10.442  11.529  63.646  1.00  0.00    -0.427 C  
HETATM    4  O   UNL     1      -9.469  12.101  63.165  1.00  0.00    -0.283 OA 
BRANCH   3   5
HETATM    5  O   UNL     1     -10.415  10.779  64.775  1.00  0.00    -0.326 OA 
BRANCH   5   6
HETATM    6  C   UNL     1      -9.124  10.550  65.423  1.00  0.00    -0.187 C  
HETATM    7  C   UNL     1      -8.728   9.052  65.156  1.00  0.00    -0.223 C  
HETATM    8  C   UNL     1      -7.401   8.637  65.791  1.00  0.00    -0.081 C  
HETATM    9  C   UNL     1      -8.698   8.696  63.668  1.00  0.00     0.096 C  
BRANCH   6  10
HETATM   10  O   UNL     1      -9.064  10.867  66.847  1.00  0.00    -0.151 OA 
BRANCH  10  11
HETATM   11  P   UNL     1      -8.059  12.110  67.317  1.00  0.00    -0.165 P  
HETATM   12  O   UNL     1      -6.849  11.466  66.597  1.00  0.00    -0.140 OA 
BRANCH  11  13
HETATM   13  C   UNL     1      -7.360  11.530  69.060  1.00  0.00    -0.094 C  
BRANCH  13  14
HETATM   14  C   UNL     1      -6.544  10.237  68.960  1.00  0.00    -0.053 C  
BRANCH  14  15
HETATM   15  C   UNL     1      -6.120   9.665  70.301  1.00  0.00    -0.062 C  
BRANCH  15  16
HETATM   16  C   UNL     1      -6.371   8.148  70.306  1.00  0.00    -0.036 C  
BRANCH  16  17
HETATM   17  C   UNL     1      -6.893   7.704  71.643  1.00  0.00    -0.053 A  
HETATM   18  C   UNL     1      -7.524   6.461  71.785  1.00  0.00    -0.093 A  
HETATM   19  C   UNL     1      -6.696   8.510  72.771  1.00  0.00    -0.074 A  
HETATM   20  C   UNL     1      -7.751   6.838  74.162  1.00  0.00    -0.112 A  
HETATM   21  C   UNL     1      -7.958   6.035  73.046  1.00  0.00    -0.109 A  
HETATM   22  C   UNL     1      -7.121   8.072  74.025  1.00  0.00    -0.175 A  
ENDBRANCH  16  17
ENDBRANCH  15  16
ENDBRANCH  14  15
ENDBRANCH  13  14
ENDBRANCH  11  13
BRANCH  11  23
HETATM   23  C   UNL     1      -9.489  12.871  68.168  1.00  0.00    -0.218 C  
BRANCH  23  24
HETATM   24  C   UNL     1     -10.275  13.877  67.308  1.00  0.00    -0.249 C  
HETATM   25  C   UNL     1     -10.656  16.155  66.334  1.00  0.00    -0.269 C  
HETATM   26  O   UNL     1     -11.375  13.555  66.840  1.00  0.00    -0.306 OA 
HETATM   27  N   UNL     1      -9.798  15.127  66.976  1.00  0.00    -0.228 N  
HETATM   28  C   UNL     1     -11.054  15.978  64.842  1.00  0.00    -0.370 C  
HETATM   29  O   UNL     1     -11.285  16.912  64.081  1.00  0.00    -1.176 OA 
HETATM   30  C   UNL     1      -8.420  15.572  66.928  1.00  0.00    -0.254 C  
HETATM   31  C   UNL     1      -8.467  17.108  67.027  1.00  0.00    -0.233 C  
HETATM   32  O   UNL     1     -11.264  14.701  64.458  1.00  0.00    -0.353 OA 
HETATM   33  C   UNL     1      -9.868  17.470  66.491  1.00  0.00    -0.315 C  
BRANCH  31  34
HETATM   34  C   UNL     1      -8.217  17.713  68.443  1.00  0.00    -0.289 C  
HETATM   35  C   UNL     1      -5.762  18.274  68.124  1.00  0.00    -0.165 C  
HETATM   36  C   UNL     1      -6.042  19.772  68.145  1.00  0.00    -0.261 C  
HETATM   37  C   UNL     1      -7.490  20.112  67.799  1.00  0.00    -0.327 C  
HETATM   38  C   UNL     1      -6.784  17.524  68.970  1.00  0.00    -0.247 C  
HETATM   39  C   UNL     1      -8.524  19.230  68.510  1.00  0.00    -0.401 C  
ENDBRANCH  31  34
ENDBRANCH  23  24
ENDBRANCH  11  23
ENDBRANCH  10  11
ENDBRANCH   6  10
ENDBRANCH   5   6
ENDBRANCH   3   5
ENDBRANCH   2   3
TORSDOF 13
ENDMDL
MODEL      164
REMARK 921   NORMALIZED FREE ENERGY PREDICTED BY IDOCK:   -4.25 KCAL/MOL
REMARK 922        TOTAL FREE ENERGY PREDICTED BY IDOCK:   -9.94 KCAL/MOL
REMARK 923 INTER-LIGAND FREE ENERGY PREDICTED BY IDOCK:   -8.30 KCAL/MOL
REMARK 924 INTRA-LIGAND FREE ENERGY PREDICTED BY IDOCK:   -1.63 KCAL/MOL
REMARK 927      BINDING AFFINITY PREDICTED BY RF-SCORE:    0.00 PKD
ROOT
HETATM    1  C   UNL     1      -6.349  10.464  65.705  1.00  0.00    -0.126 C  
HETATM    2  C   UNL     1      -6.901   9.485  64.685  1.00  0.00    -0.101 C  
ENDROOT
BRANCH   2   3
HETATM    3  C   UNL     1      -8.411   9.264  64.651  1.00  0.00    -0.161 C  
HETATM    4  O   UNL     1      -9.172  10.017  64.053  1.00  0.00    -0.242 OA 
BRANCH   3   5
HETATM    5  O   UNL     1      -8.784   8.104  65.245  1.00  0.00    -0.147 OA 
BRANCH   5   6
HETATM    6  C   UNL     1      -9.542   8.178  66.493  1.00  0.00    -0.234 C  
HETATM    7  C   UNL     1     -10.273   6.798  66.677  1.00  0.00    -0.211 C  
HETATM    8  C   UNL     1     -11.136   6.714  67.935  1.00  0.00    -0.310 C  
HETATM    9  C   UNL     1      -9.316   5.605  66.652  1.00  0.00    -0.151 C  
BRANCH   6  10
HETATM   10  O   UNL     1     -10.480   9.292  66.601  1.00  0.00    -0.237 OA 
BRANCH  10  11
HETATM   11  P   UNL     1     -10.265  10.359  67.863  1.00  0.00    -0.206 P  
HETATM   12  O   UNL     1     -11.607  11.067  67.556  1.00  0.00    -0.529 OA 
BRANCH  11  13
HETATM   13  C   UNL     1      -9.266  11.853  67.065  1.00  0.00    -0.191 C  
BRANCH  13  14
HETATM   14  C   UNL     1     -10.190  12.893  66.422  1.00  0.00    -0.273 C  
BRANCH  14  15
HETATM   15  C   UNL     1      -9.653  14.312  66.467  1.00  0.00    -0.313 C  
BRANCH  15  16
HETATM   16  C   UNL     1     -10.317  15.068  67.630  1.00  0.00    -0.243 C  
BRANCH  16  17
HETATM   17  C   UNL     1     -10.144  16.551  67.462  1.00  0.00    -0.267 A  
HETATM   18  C   UNL     1     -10.519  17.182  66.269  1.00  0.00    -0.260 A  
HETATM   19  C   UNL     1      -9.661  17.321  68.527  1.00  0.00    -0.296 A  
HETATM   20  C   UNL     1      -9.931  19.330  67.209  1.00  0.00    -0.456 A  
HETATM   21  C   UNL     1     -10.404  18.572  66.144  1.00  0.00    -0.457 A  
HETATM   22  C   UNL     1      -9.561  18.706  68.397  1.00  0.00    -0.396 A  
ENDBRANCH  16  17
ENDBRANCH  15  16
ENDBRANCH  14  15
ENDBRANCH  13  14
ENDBRANCH  11  13
BRANCH  11  23
HETATM   23  C   UNL     1      -8.678   9.522  68.226  1.00  0.00    -0.120 C  
BRANCH  23  24
HETATM   24  C   UNL     1      -8.315   9.476  69.722  1.00  0.00    -0.164 C  
HETATM   25  C   UNL     1      -8.037   8.286  71.911  1.00  0.00    -0.141 C  
HETATM   26  O   UNL     1      -8.090  10.530  70.330  1.00  0.00     0.189 OA 
HETATM   27  N   UNL     1      -8.172   8.303  70.432  1.00  0.00    -0.110 N  
HETATM   28  C   UNL     1      -6.704   8.764  72.549  1.00  0.00     0.044 C  
HETATM   29  O   UNL     1      -6.271   8.347  73.619  1.00  0.00    -0.106 OA 
HETATM   30  C   UNL     1      -7.871   6.981  69.920  1.00  0.00    -0.114 C  
HETATM   31  C   UNL     1      -8.337   5.991  71.003  1.00  0.00    -0.124 C  
HETATM   32  O   UNL     1      -6.100   9.786  71.906  1.00  0.00    -0.295 OA 
HETATM   33  C   UNL     1      -8.287   6.818  72.306  1.00  0.00    -0.106 C  
BRANCH  31  34
HETATM   34  C   UNL     1      -9.739   5.343  70.785  1.00  0.00    -0.239 C  
HETATM   35  C   UNL     1      -9.237   3.112  71.886  1.00  0.00    -0.181 C  
HETATM   36  C   UNL     1     -10.173   3.410  73.051  1.00  0.00    -0.236 C  
HETATM   37  C   UNL     1     -10.432   4.904  73.240  1.00  0.00    -0.260 C  
HETATM   38  C   UNL     1      -9.712   3.814  70.619  1.00  0.00    -0.235 C  
HETATM   39  C   UNL     1     -10.729   5.653  71.935  1.00  0.00    -0.299 C  
ENDBRANCH  31  34
ENDBRANCH  23  24
ENDBRANCH  11  23
ENDBRANCH  10  11
ENDBRANCH   6  10
ENDBRANCH   5   6
ENDBRANCH   3   5
ENDBRANCH   2   3
TORSDOF 13
ENDMDL
MODEL      165
REMARK 921   NORMALIZED FREE ENERGY PREDICTED BY IDOCK:   -4.23 KCAL/MOL
REMARK 922        TOTAL FREE ENERGY PREDICTED BY IDOCK:   -9.90 KCAL/MOL
REMARK 923 INTER-LIGAND FREE ENERGY PREDICTED BY IDOCK:   -7.72 KCAL/MOL
REMARK 924 INTRA-LIGAND FREE ENERGY PREDICTED BY IDOCK:   -2.18 KCAL/MOL
REMARK 927      BINDING AFFINITY PREDICTED BY RF-SCORE:    0.00 PKD
ROOT
HETATM    1  C   UNL     1     -10.062   2.505  62.983  1.00  0.00    -0.113 C  
HETATM    2  C   UNL     1      -8.991   3.072  63.896  1.00  0.00    -0.097 C  
ENDROOT
BRANCH   2   3
HETATM    3  C   UNL     1      -9.435   3.983  65.037  1.00  0.00    -0.172 C  
HETATM    4  O   UNL     1      -9.806   3.546  66.121  1.00  0.00    -0.090 OA 
BRANCH   3   5
HETATM    5  O   UNL     1      -9.262   5.298  64.755  1.00  0.00    -0.031 OA 
BRANCH   5   6
HETATM    6  C   UNL     1      -8.453   6.103  65.670  1.00  0.00    -0.151 C  
HETATM    7  C   UNL     1      -6.950   5.705  65.438  1.00  0.00    -0.064 C  
HETATM    8  C   UNL     1      -5.964   6.445  66.340  1.00  0.00    -0.028 C  
HETATM    9  C   UNL     1      -6.506   5.864  63.982  1.00  0.00    -0.033 C  
BRANCH   6  10
HETATM   10  O   UNL     1      -8.814   6.011  67.082  1.00  0.00    -0.110 OA 
BRANCH  10  11
HETATM   11  P   UNL     1      -9.779   7.215  67.710  1.00  0.00    -0.150 P  
HETATM   12  O   UNL     1     -11.037   6.630  67.025  1.00  0.00    -0.403 OA 
BRANCH  11  13
HETATM   13  C   UNL     1      -9.688   8.651  66.371  1.00  0.00    -0.263 C  
BRANCH  13  14
HETATM   14  C   UNL     1      -9.705  10.044  67.010  1.00  0.00    -0.227 C  
BRANCH  14  15
HETATM   15  C   UNL     1     -11.059  10.461  67.554  1.00  0.00    -0.336 C  
BRANCH  15  16
HETATM   16  C   UNL     1     -10.893  11.726  68.412  1.00  0.00    -0.260 C  
BRANCH  16  17
HETATM   17  C   UNL     1     -11.729  11.632  69.658  1.00  0.00    -0.418 A  
HETATM   18  C   UNL     1     -11.978  10.391  70.257  1.00  0.00    -0.387 A  
HETATM   19  C   UNL     1     -12.213  12.798  70.261  1.00  0.00    -0.351 A  
HETATM   20  C   UNL     1     -13.183  11.485  72.044  1.00  0.00    -0.443 A  
HETATM   21  C   UNL     1     -12.712  10.321  71.447  1.00  0.00    -0.547 A  
HETATM   22  C   UNL     1     -12.934  12.721  71.453  1.00  0.00    -0.359 A  
ENDBRANCH  16  17
ENDBRANCH  15  16
ENDBRANCH  14  15
ENDBRANCH  13  14
ENDBRANCH  11  13
BRANCH  11  23
HETATM   23  C   UNL     1      -8.291   7.907  68.521  1.00  0.00    -0.128 C  
BRANCH  23  24
HETATM   24  C   UNL     1      -8.459   8.177  70.028  1.00  0.00    -0.128 C  
HETATM   25  C   UNL     1      -8.877   7.445  72.388  1.00  0.00    -0.124 C  
HETATM   26  O   UNL     1      -8.517   9.343  70.438  1.00  0.00    -0.184 OA 
HETATM   27  N   UNL     1      -8.499   7.179  70.977  1.00  0.00    -0.128 N  
HETATM   28  C   UNL     1      -7.872   8.195  73.307  1.00  0.00    -0.166 C  
HETATM   29  O   UNL     1      -7.807   8.036  74.521  1.00  0.00    -0.203 OA 
HETATM   30  C   UNL     1      -7.965   5.835  70.883  1.00  0.00    -0.111 C  
HETATM   31  C   UNL     1      -8.714   5.006  71.941  1.00  0.00    -0.136 C  
HETATM   32  O   UNL     1      -7.145   9.152  72.692  1.00  0.00    -0.299 OA 
HETATM   33  C   UNL     1      -9.161   6.053  72.984  1.00  0.00    -0.130 C  
BRANCH  31  34
HETATM   34  C   UNL     1      -9.917   4.157  71.425  1.00  0.00    -0.223 C  
HETATM   35  C   UNL     1      -8.715   3.044  69.485  1.00  0.00    -0.131 C  
HETATM   36  C   UNL     1      -8.763   1.679  70.164  1.00  0.00    -0.104 C  
HETATM   37  C   UNL     1      -8.943   1.772  71.678  1.00  0.00    -0.119 C  
HETATM   38  C   UNL     1      -9.905   3.897  69.909  1.00  0.00    -0.136 C  
HETATM   39  C   UNL     1     -10.018   2.774  72.117  1.00  0.00    -0.238 C  
ENDBRANCH  31  34
ENDBRANCH  23  24
ENDBRANCH  11  23
ENDBRANCH  10  11
ENDBRANCH   6  10
ENDBRANCH   5   6
ENDBRANCH   3   5
ENDBRANCH   2   3
TORSDOF 13
ENDMDL
MODEL      166
REMARK 921   NORMALIZED FREE ENERGY PREDICTED BY IDOCK:   -4.22 KCAL/MOL
REMARK 922        TOTAL FREE ENERGY PREDICTED BY IDOCK:   -9.90 KCAL/MOL
REMARK 923 INTER-LIGAND FREE ENERGY PREDICTED BY IDOCK:   -8.26 KCAL/MOL
REMARK 924 INTRA-LIGAND FREE ENERGY PREDICTED BY IDOCK:   -1.63 KCAL/MOL
REMARK 927      BINDING AFFINITY PREDICTED BY RF-SCORE:    0.00 PKD
ROOT
HETATM    1  C   UNL     1      -9.516   5.034  65.733  1.00  0.00    -0.167 C  
HETATM    2  C   UNL     1      -8.393   5.782  66.427  1.00  0.00    -0.113 C  
ENDROOT
BRANCH   2   3
HETATM    3  C   UNL     1      -7.867   7.053  65.765  1.00  0.00    -0.109 C  
HETATM    4  O   UNL     1      -7.283   7.039  64.686  1.00  0.00    -0.064 OA 
BRANCH   3   5
HETATM    5  O   UNL     1      -8.216   8.177  66.437  1.00  0.00    -0.102 OA 
BRANCH   5   6
HETATM    6  C   UNL     1      -9.543   8.744  66.196  1.00  0.00    -0.253 C  
HETATM    7  C   UNL     1      -9.342  10.259  65.826  1.00  0.00    -0.233 C  
HETATM    8  C   UNL     1     -10.645  11.012  65.563  1.00  0.00    -0.267 C  
HETATM    9  C   UNL     1      -8.401  10.467  64.638  1.00  0.00    -0.155 C  
BRANCH   6  10
HETATM   10  O   UNL     1     -10.506   8.587  67.282  1.00  0.00    -0.276 OA 
BRANCH  10  11
HETATM   11  P   UNL     1     -10.102   9.222  68.768  1.00  0.00    -0.206 P  
HETATM   12  O   UNL     1      -8.805   8.379  68.828  1.00  0.00    -0.139 OA 
BRANCH  11  13
HETATM   13  C   UNL     1     -10.972   8.021  70.057  1.00  0.00    -0.202 C  
BRANCH  13  14
HETATM   14  C   UNL     1     -11.070   6.582  69.538  1.00  0.00    -0.425 C  
BRANCH  14  15
HETATM   15  C   UNL     1     -10.649   5.528  70.547  1.00  0.00    -0.339 C  
BRANCH  15  16
HETATM   16  C   UNL     1      -9.838   4.437  69.829  1.00  0.00    -0.284 C  
BRANCH  16  17
HETATM   17  C   UNL     1      -8.475   4.300  70.448  1.00  0.00    -0.096 A  
HETATM   18  C   UNL     1      -7.333   4.204  69.642  1.00  0.00    -0.050 A  
HETATM   19  C   UNL     1      -8.335   4.330  71.840  1.00  0.00    -0.103 A  
HETATM   20  C   UNL     1      -5.934   4.169  71.613  1.00  0.00    -0.013 A  
HETATM   21  C   UNL     1      -6.065   4.131  70.229  1.00  0.00    -0.018 A  
HETATM   22  C   UNL     1      -7.067   4.268  72.416  1.00  0.00    -0.061 A  
ENDBRANCH  16  17
ENDBRANCH  15  16
ENDBRANCH  14  15
ENDBRANCH  13  14
ENDBRANCH  11  13
BRANCH  11  23
HETATM   23  C   UNL     1     -11.635  10.219  68.696  1.00  0.00    -0.025 C  
BRANCH  23  24
HETATM   24  C   UNL     1     -11.657  11.416  69.665  1.00  0.00    -0.330 C  
HETATM   25  C   UNL     1     -11.489  13.862  70.187  1.00  0.00    -0.099 C  
HETATM   26  O   UNL     1     -11.698  11.215  70.885  1.00  0.00    -0.246 OA 
HETATM   27  N   UNL     1     -11.686  12.729  69.248  1.00  0.00    -0.307 N  
HETATM   28  C   UNL     1     -12.626  14.217  71.185  1.00  0.00    -0.362 C  
HETATM   29  O   UNL     1     -12.827  15.347  71.617  1.00  0.00    -0.355 OA 
HETATM   30  C   UNL     1     -12.148  13.252  67.977  1.00  0.00    -0.221 C  
HETATM   31  C   UNL     1     -11.493  14.637  67.825  1.00  0.00    -0.359 C  
HETATM   32  O   UNL     1     -13.316  13.159  71.661  1.00  0.00    -0.370 OA 
HETATM   33  C   UNL     1     -11.218  15.077  69.279  1.00  0.00    -0.297 C  
BRANCH  31  34
HETATM   34  C   UNL     1     -10.203  14.696  66.951  1.00  0.00    -0.262 C  
HETATM   35  C   UNL     1     -11.314  15.419  64.786  1.00  0.00    -0.381 C  
HETATM   36  C   UNL     1     -10.666  16.798  64.846  1.00  0.00    -0.037 C  
HETATM   37  C   UNL     1     -10.229  17.189  66.256  1.00  0.00    -0.340 C  
HETATM   38  C   UNL     1     -10.430  14.378  65.463  1.00  0.00    -0.366 C  
HETATM   39  C   UNL     1      -9.497  16.074  67.014  1.00  0.00    -0.230 C  
ENDBRANCH  31  34
ENDBRANCH  23  24
ENDBRANCH  11  23
ENDBRANCH  10  11
ENDBRANCH   6  10
ENDBRANCH   5   6
ENDBRANCH   3   5
ENDBRANCH   2   3
TORSDOF 13
ENDMDL
MODEL      167
REMARK 921   NORMALIZED FREE ENERGY PREDICTED BY IDOCK:   -4.21 KCAL/MOL
REMARK 922        TOTAL FREE ENERGY PREDICTED BY IDOCK:   -9.87 KCAL/MOL
REMARK 923 INTER-LIGAND FREE ENERGY PREDICTED BY IDOCK:   -8.29 KCAL/MOL
REMARK 924 INTRA-LIGAND FREE ENERGY PREDICTED BY IDOCK:   -1.58 KCAL/MOL
REMARK 927      BINDING AFFINITY PREDICTED BY RF-SCORE:    0.00 PKD
ROOT
HETATM    1  C   UNL     1      -8.142   9.536  63.203  1.00  0.00    -0.149 C  
HETATM    2  C   UNL     1      -7.513   8.550  64.171  1.00  0.00    -0.112 C  
ENDROOT
BRANCH   2   3
HETATM    3  C   UNL     1      -6.689   9.111  65.326  1.00  0.00    -0.069 C  
HETATM    4  O   UNL     1      -5.992   8.401  66.044  1.00  0.00    -0.043 OA 
BRANCH   3   5
HETATM    5  O   UNL     1      -6.726  10.465  65.387  1.00  0.00    -0.127 OA 
BRANCH   5   6
HETATM    6  C   UNL     1      -7.448  11.090  66.495  1.00  0.00    -0.145 C  
HETATM    7  C   UNL     1      -6.415  11.308  67.660  1.00  0.00    -0.067 C  
HETATM    8  C   UNL     1      -7.018  11.938  68.915  1.00  0.00    -0.110 C  
HETATM    9  C   UNL     1      -5.194  12.124  67.234  1.00  0.00    -0.106 C  
BRANCH   6  10
HETATM   10  O   UNL     1      -8.632  10.375  66.963  1.00  0.00    -0.129 OA 
BRANCH  10  11
HETATM   11  P   UNL     1     -10.119  10.953  66.483  1.00  0.00    -0.235 P  
HETATM   12  O   UNL     1      -9.501  12.293  66.016  1.00  0.00    -0.239 OA 
BRANCH  11  13
HETATM   13  C   UNL     1     -10.841  11.820  68.094  1.00  0.00    -0.217 C  
BRANCH  13  14
HETATM   14  C   UNL     1     -10.653  13.340  68.070  1.00  0.00    -0.249 C  
BRANCH  14  15
HETATM   15  C   UNL     1     -11.731  14.110  68.812  1.00  0.00    -0.380 C  
BRANCH  15  16
HETATM   16  C   UNL     1     -12.101  13.352  70.097  1.00  0.00    -0.415 C  
BRANCH  16  17
HETATM   17  C   UNL     1     -12.525  14.312  71.173  1.00  0.00    -0.433 A  
HETATM   18  C   UNL     1     -11.585  15.139  71.800  1.00  0.00    -0.478 A  
HETATM   19  C   UNL     1     -13.878  14.426  71.511  1.00  0.00    -0.455 A  
HETATM   20  C   UNL     1     -13.346  16.180  73.087  1.00  0.00    -0.502 A  
HETATM   21  C   UNL     1     -11.999  16.067  72.763  1.00  0.00    -0.623 A  
HETATM   22  C   UNL     1     -14.283  15.361  72.463  1.00  0.00    -0.500 A  
ENDBRANCH  16  17
ENDBRANCH  15  16
ENDBRANCH  14  15
ENDBRANCH  13  14
ENDBRANCH  11  13
BRANCH  11  23
HETATM   23  C   UNL     1     -10.850   9.369  67.036  1.00  0.00    -0.026 C  
BRANCH  23  24
HETATM   24  C   UNL     1     -10.417   8.930  68.447  1.00  0.00    -0.187 C  
HETATM   25  C   UNL     1      -9.477   7.270  70.073  1.00  0.00    -0.161 C  
HETATM   26  O   UNL     1     -10.679   9.650  69.419  1.00  0.00    -0.217 OA 
HETATM   27  N   UNL     1      -9.695   7.783  68.696  1.00  0.00    -0.154 N  
HETATM   28  C   UNL     1      -8.490   8.021  71.008  1.00  0.00    -0.128 C  
HETATM   29  O   UNL     1      -7.847   7.479  71.901  1.00  0.00    -0.086 OA 
HETATM   30  C   UNL     1      -8.837   7.052  67.784  1.00  0.00    -0.123 C  
HETATM   31  C   UNL     1      -8.714   5.632  68.365  1.00  0.00    -0.109 C  
HETATM   32  O   UNL     1      -8.480   9.364  70.863  1.00  0.00    -0.246 OA 
HETATM   33  C   UNL     1      -8.980   5.825  69.874  1.00  0.00    -0.139 C  
BRANCH  31  34
HETATM   34  C   UNL     1      -9.655   4.552  67.747  1.00  0.00    -0.208 C  
HETATM   35  C   UNL     1      -8.393   4.236  65.567  1.00  0.00    -0.110 C  
HETATM   36  C   UNL     1      -7.955   2.829  65.958  1.00  0.00    -0.082 C  
HETATM   37  C   UNL     1      -7.987   2.592  67.467  1.00  0.00    -0.068 C  
HETATM   38  C   UNL     1      -9.731   4.581  66.212  1.00  0.00    -0.216 C  
HETATM   39  C   UNL     1      -9.259   3.109  68.151  1.00  0.00    -0.248 C  
ENDBRANCH  31  34
ENDBRANCH  23  24
ENDBRANCH  11  23
ENDBRANCH  10  11
ENDBRANCH   6  10
ENDBRANCH   5   6
ENDBRANCH   3   5
ENDBRANCH   2   3
TORSDOF 13
ENDMDL
MODEL      168
REMARK 921   NORMALIZED FREE ENERGY PREDICTED BY IDOCK:   -4.19 KCAL/MOL
REMARK 922        TOTAL FREE ENERGY PREDICTED BY IDOCK:   -9.84 KCAL/MOL
REMARK 923 INTER-LIGAND FREE ENERGY PREDICTED BY IDOCK:   -7.61 KCAL/MOL
REMARK 924 INTRA-LIGAND FREE ENERGY PREDICTED BY IDOCK:   -2.24 KCAL/MOL
REMARK 927      BINDING AFFINITY PREDICTED BY RF-SCORE:    0.00 PKD
ROOT
HETATM    1  C   UNL     1      -9.174  20.053  67.812  1.00  0.00    -0.435 C  
HETATM    2  C   UNL     1      -9.133  19.024  66.697  1.00  0.00    -0.346 C  
ENDROOT
BRANCH   2   3
HETATM    3  C   UNL     1      -9.426  17.570  67.057  1.00  0.00    -0.268 C  
HETATM    4  O   UNL     1     -10.469  17.225  67.602  1.00  0.00    -0.343 OA 
BRANCH   3   5
HETATM    5  O   UNL     1      -8.472  16.717  66.609  1.00  0.00    -0.208 OA 
BRANCH   5   6
HETATM    6  C   UNL     1      -8.232  15.488  67.363  1.00  0.00    -0.177 C  
HETATM    7  C   UNL     1      -6.899  15.689  68.171  1.00  0.00    -0.130 C  
HETATM    8  C   UNL     1      -6.487  14.477  69.005  1.00  0.00    -0.099 C  
HETATM    9  C   UNL     1      -6.926  16.925  69.073  1.00  0.00    -0.224 C  
BRANCH   6  10
HETATM   10  O   UNL     1      -8.194  14.258  66.576  1.00  0.00     0.172 OA 
BRANCH  10  11
HETATM   11  P   UNL     1      -9.465  13.195  66.747  1.00  0.00    -0.235 P  
HETATM   12  O   UNL     1     -10.474  14.242  66.214  1.00  0.00    -0.281 OA 
BRANCH  11  13
HETATM   13  C   UNL     1     -10.095  13.490  68.586  1.00  0.00    -0.166 C  
BRANCH  13  14
HETATM   14  C   UNL     1     -11.590  13.192  68.744  1.00  0.00    -0.348 C  
BRANCH  14  15
HETATM   15  C   UNL     1     -11.935  11.714  68.708  1.00  0.00    -0.326 C  
BRANCH  15  16
HETATM   16  C   UNL     1     -11.036  10.959  69.701  1.00  0.00    -0.311 C  
BRANCH  16  17
HETATM   17  C   UNL     1     -11.866  10.128  70.638  1.00  0.00    -0.431 A  
HETATM   18  C   UNL     1     -11.458   8.837  70.996  1.00  0.00    -0.337 A  
HETATM   19  C   UNL     1     -13.025  10.668  71.208  1.00  0.00    -0.513 A  
HETATM   20  C   UNL     1     -13.357   8.639  72.479  1.00  0.00    -0.337 A  
HETATM   21  C   UNL     1     -12.211   8.092  71.912  1.00  0.00    -0.373 A  
HETATM   22  C   UNL     1     -13.763   9.923  72.128  1.00  0.00    -0.296 A  
ENDBRANCH  16  17
ENDBRANCH  15  16
ENDBRANCH  14  15
ENDBRANCH  13  14
ENDBRANCH  11  13
BRANCH  11  23
HETATM   23  C   UNL     1      -8.273  11.958  67.377  1.00  0.00    -0.164 C  
BRANCH  23  24
HETATM   24  C   UNL     1      -8.693  10.496  67.138  1.00  0.00    -0.130 C  
HETATM   25  C   UNL     1      -8.639   8.047  67.671  1.00  0.00    -0.130 C  
HETATM   26  O   UNL     1      -9.351  10.205  66.130  1.00  0.00    -0.159 OA 
HETATM   27  N   UNL     1      -8.419   9.474  68.020  1.00  0.00    -0.119 N  
HETATM   28  C   UNL     1     -10.094   7.508  67.593  1.00  0.00    -0.187 C  
HETATM   29  O   UNL     1     -10.405   6.344  67.825  1.00  0.00    -0.151 OA 
HETATM   30  C   UNL     1      -8.148   9.569  69.441  1.00  0.00    -0.116 C  
HETATM   31  C   UNL     1      -7.411   8.272  69.820  1.00  0.00    -0.065 C  
HETATM   32  O   UNL     1     -11.001   8.387  67.115  1.00  0.00    -0.123 OA 
HETATM   33  C   UNL     1      -7.867   7.260  68.748  1.00  0.00    -0.121 C  
BRANCH  31  34
HETATM   34  C   UNL     1      -5.856   8.364  69.902  1.00  0.00    -0.025 C  
HETATM   35  C   UNL     1      -5.722   9.581  72.126  1.00  0.00     0.043 C  
HETATM   36  C   UNL     1      -5.130   8.361  72.824  1.00  0.00    -0.039 C  
HETATM   37  C   UNL     1      -5.430   7.054  72.094  1.00  0.00    -0.037 C  
HETATM   38  C   UNL     1      -5.332   9.600  70.652  1.00  0.00    -0.045 C  
HETATM   39  C   UNL     1      -5.216   7.124  70.577  1.00  0.00    -0.023 C  
ENDBRANCH  31  34
ENDBRANCH  23  24
ENDBRANCH  11  23
ENDBRANCH  10  11
ENDBRANCH   6  10
ENDBRANCH   5   6
ENDBRANCH   3   5
ENDBRANCH   2   3
TORSDOF 13
ENDMDL
MODEL      169
REMARK 921   NORMALIZED FREE ENERGY PREDICTED BY IDOCK:   -4.19 KCAL/MOL
REMARK 922        TOTAL FREE ENERGY PREDICTED BY IDOCK:   -9.83 KCAL/MOL
REMARK 923 INTER-LIGAND FREE ENERGY PREDICTED BY IDOCK:   -7.53 KCAL/MOL
REMARK 924 INTRA-LIGAND FREE ENERGY PREDICTED BY IDOCK:   -2.30 KCAL/MOL
REMARK 927      BINDING AFFINITY PREDICTED BY RF-SCORE:    0.00 PKD
ROOT
HETATM    1  C   UNL     1     -11.979  14.840  64.443  1.00  0.00    -0.433 C  
HETATM    2  C   UNL     1     -12.152  13.371  64.786  1.00  0.00    -0.448 C  
ENDROOT
BRANCH   2   3
HETATM    3  C   UNL     1     -10.938  12.457  64.638  1.00  0.00    -0.305 C  
HETATM    4  O   UNL     1     -10.446  12.187  63.547  1.00  0.00    -0.419 OA 
BRANCH   3   5
HETATM    5  O   UNL     1     -10.415  12.085  65.832  1.00  0.00    -0.240 OA 
BRANCH   5   6
HETATM    6  C   UNL     1     -11.331  11.839  66.945  1.00  0.00    -0.320 C  
HETATM    7  C   UNL     1     -10.778  12.628  68.187  1.00  0.00    -0.242 C  
HETATM    8  C   UNL     1     -11.616  12.459  69.454  1.00  0.00    -0.371 C  
HETATM    9  C   UNL     1     -10.589  14.122  67.914  1.00  0.00    -0.244 C  
BRANCH   6  10
HETATM   10  O   UNL     1     -11.570  10.436  67.272  1.00  0.00    -0.240 OA 
BRANCH  10  11
HETATM   11  P   UNL     1     -10.249   9.423  67.328  1.00  0.00    -0.264 P  
HETATM   12  O   UNL     1     -10.088   9.470  65.789  1.00  0.00    -0.288 OA 
BRANCH  11  13
HETATM   13  C   UNL     1     -11.021   7.619  67.217  1.00  0.00    -0.052 C  
BRANCH  13  14
HETATM   14  C   UNL     1      -9.989   6.525  67.516  1.00  0.00    -0.169 C  
BRANCH  14  15
HETATM   15  C   UNL     1     -10.595   5.160  67.788  1.00  0.00    -0.041 C  
BRANCH  15  16
HETATM   16  C   UNL     1      -9.505   4.085  67.642  1.00  0.00    -0.231 C  
BRANCH  16  17
HETATM   17  C   UNL     1      -8.842   3.822  68.965  1.00  0.00    -0.152 A  
HETATM   18  C   UNL     1      -9.597   3.409  70.070  1.00  0.00    -0.202 A  
HETATM   19  C   UNL     1      -7.452   3.931  69.082  1.00  0.00    -0.054 A  
HETATM   20  C   UNL     1      -7.580   3.218  71.388  1.00  0.00    -0.047 A  
HETATM   21  C   UNL     1      -8.963   3.114  71.282  1.00  0.00    -0.160 A  
HETATM   22  C   UNL     1      -6.827   3.625  70.291  1.00  0.00    -0.034 A  
ENDBRANCH  16  17
ENDBRANCH  15  16
ENDBRANCH  14  15
ENDBRANCH  13  14
ENDBRANCH  11  13
BRANCH  11  23
HETATM   23  C   UNL     1     -10.438   9.369  69.147  1.00  0.00    -0.217 C  
BRANCH  23  24
HETATM   24  C   UNL     1      -9.112   9.455  69.925  1.00  0.00    -0.204 C  
HETATM   25  C   UNL     1      -7.571   8.779  71.783  1.00  0.00    -0.038 C  
HETATM   26  O   UNL     1      -8.295  10.342  69.646  1.00  0.00    -0.152 OA 
HETATM   27  N   UNL     1      -8.745   8.555  70.901  1.00  0.00    -0.151 N  
HETATM   28  C   UNL     1      -6.144   8.623  71.189  1.00  0.00    -0.043 C  
HETATM   29  O   UNL     1      -5.166   8.277  71.843  1.00  0.00    -0.034 OA 
HETATM   30  C   UNL     1      -9.210   7.193  71.080  1.00  0.00    -0.157 C  
HETATM   31  C   UNL     1      -8.919   6.836  72.549  1.00  0.00    -0.138 C  
HETATM   32  O   UNL     1      -6.015   9.027  69.907  1.00  0.00    -0.031 OA 
HETATM   33  C   UNL     1      -7.751   7.769  72.933  1.00  0.00    -0.137 C  
BRANCH  31  34
HETATM   34  C   UNL     1     -10.116   6.973  73.540  1.00  0.00    -0.348 C  
HETATM   35  C   UNL     1     -11.850   5.784  72.116  1.00  0.00    -0.172 C  
HETATM   36  C   UNL     1     -11.913   4.602  73.077  1.00  0.00     0.042 C  
HETATM   37  C   UNL     1     -10.666   4.477  73.950  1.00  0.00    -0.349 C  
HETATM   38  C   UNL     1     -11.494   7.066  72.861  1.00  0.00    -0.162 C  
HETATM   39  C   UNL     1     -10.193   5.805  74.555  1.00  0.00    -0.287 C  
ENDBRANCH  31  34
ENDBRANCH  23  24
ENDBRANCH  11  23
ENDBRANCH  10  11
ENDBRANCH   6  10
ENDBRANCH   5   6
ENDBRANCH   3   5
ENDBRANCH   2   3
TORSDOF 13
ENDMDL
MODEL      170
REMARK 921   NORMALIZED FREE ENERGY PREDICTED BY IDOCK:   -4.18 KCAL/MOL
REMARK 922        TOTAL FREE ENERGY PREDICTED BY IDOCK:   -9.81 KCAL/MOL
REMARK 923 INTER-LIGAND FREE ENERGY PREDICTED BY IDOCK:   -8.14 KCAL/MOL
REMARK 924 INTRA-LIGAND FREE ENERGY PREDICTED BY IDOCK:   -1.68 KCAL/MOL
REMARK 927      BINDING AFFINITY PREDICTED BY RF-SCORE:    0.00 PKD
ROOT
HETATM    1  C   UNL     1     -10.802  11.696  63.807  1.00  0.00    -0.493 C  
HETATM    2  C   UNL     1     -12.030  12.583  63.891  1.00  0.00    -0.563 C  
ENDROOT
BRANCH   2   3
HETATM    3  C   UNL     1     -12.309  13.293  65.214  1.00  0.00    -0.476 C  
HETATM    4  O   UNL     1     -13.420  13.719  65.511  1.00  0.00    -0.591 OA 
BRANCH   3   5
HETATM    5  O   UNL     1     -11.238  13.289  66.046  1.00  0.00    -0.292 OA 
BRANCH   5   6
HETATM    6  C   UNL     1     -11.309  14.085  67.271  1.00  0.00    -0.330 C  
HETATM    7  C   UNL     1      -9.911  14.779  67.457  1.00  0.00    -0.218 C  
HETATM    8  C   UNL     1      -9.807  15.640  68.715  1.00  0.00    -0.213 C  
HETATM    9  C   UNL     1      -9.491  15.616  66.247  1.00  0.00    -0.351 C  
BRANCH   6  10
HETATM   10  O   UNL     1     -11.707  13.361  68.475  1.00  0.00    -0.313 OA 
BRANCH  10  11
HETATM   11  P   UNL     1     -10.735  12.103  68.973  1.00  0.00     0.021 P  
HETATM   12  O   UNL     1      -9.790  12.291  67.761  1.00  0.00    -0.192 OA 
BRANCH  11  13
HETATM   13  C   UNL     1     -11.536  10.516  68.134  1.00  0.00    -0.179 C  
BRANCH  13  14
HETATM   14  C   UNL     1     -10.753  10.052  66.901  1.00  0.00    -0.211 C  
BRANCH  14  15
HETATM   15  C   UNL     1     -10.162   8.660  67.028  1.00  0.00    -0.360 C  
BRANCH  15  16
HETATM   16  C   UNL     1      -9.261   8.379  65.814  1.00  0.00    -0.175 C  
BRANCH  16  17
HETATM   17  C   UNL     1      -7.874   8.013  66.260  1.00  0.00    -0.099 A  
HETATM   18  C   UNL     1      -6.983   9.000  66.702  1.00  0.00    -0.081 A  
HETATM   19  C   UNL     1      -7.484   6.669  66.292  1.00  0.00    -0.081 A  
HETATM   20  C   UNL     1      -5.336   7.302  67.202  1.00  0.00    -0.022 A  
HETATM   21  C   UNL     1      -5.712   8.640  67.166  1.00  0.00    -0.042 A  
HETATM   22  C   UNL     1      -6.220   6.319  66.767  1.00  0.00    -0.040 A  
ENDBRANCH  16  17
ENDBRANCH  15  16
ENDBRANCH  14  15
ENDBRANCH  13  14
ENDBRANCH  11  13
BRANCH  11  23
HETATM   23  C   UNL     1     -11.852  11.882  70.406  1.00  0.00    -0.239 C  
BRANCH  23  24
HETATM   24  C   UNL     1     -12.438  10.464  70.538  1.00  0.00    -0.317 C  
HETATM   25  C   UNL     1     -12.222   7.977  70.764  1.00  0.00    -0.017 C  
HETATM   26  O   UNL     1     -13.656  10.290  70.404  1.00  0.00     0.006 OA 
HETATM   27  N   UNL     1     -11.681   9.357  70.855  1.00  0.00    -0.294 N  
HETATM   28  C   UNL     1     -13.251   7.502  71.827  1.00  0.00    -0.316 C  
HETATM   29  O   UNL     1     -13.377   6.334  72.182  1.00  0.00     0.016 OA 
HETATM   30  C   UNL     1     -10.407   9.314  71.545  1.00  0.00    -0.294 C  
HETATM   31  C   UNL     1      -9.771   7.961  71.177  1.00  0.00    -0.182 C  
HETATM   32  O   UNL     1     -14.109   8.453  72.253  1.00  0.00    -0.371 OA 
HETATM   33  C   UNL     1     -10.980   7.068  70.824  1.00  0.00    -0.285 C  
BRANCH  31  34
HETATM   34  C   UNL     1      -8.718   7.986  70.026  1.00  0.00    -0.135 C  
HETATM   35  C   UNL     1      -6.792   8.944  71.374  1.00  0.00    -0.086 C  
HETATM   36  C   UNL     1      -6.015   7.633  71.304  1.00  0.00    -0.035 C  
HETATM   37  C   UNL     1      -6.908   6.427  71.021  1.00  0.00    -0.066 C  
HETATM   38  C   UNL     1      -7.676   9.112  70.144  1.00  0.00    -0.105 C  
HETATM   39  C   UNL     1      -7.931   6.657  69.903  1.00  0.00    -0.117 C  
ENDBRANCH  31  34
ENDBRANCH  23  24
ENDBRANCH  11  23
ENDBRANCH  10  11
ENDBRANCH   6  10
ENDBRANCH   5   6
ENDBRANCH   3   5
ENDBRANCH   2   3
TORSDOF 13
ENDMDL
MODEL      171
REMARK 921   NORMALIZED FREE ENERGY PREDICTED BY IDOCK:   -4.17 KCAL/MOL
REMARK 922        TOTAL FREE ENERGY PREDICTED BY IDOCK:   -9.81 KCAL/MOL
REMARK 923 INTER-LIGAND FREE ENERGY PREDICTED BY IDOCK:   -7.81 KCAL/MOL
REMARK 924 INTRA-LIGAND FREE ENERGY PREDICTED BY IDOCK:   -2.00 KCAL/MOL
REMARK 927      BINDING AFFINITY PREDICTED BY RF-SCORE:    0.00 PKD
ROOT
HETATM    1  C   UNL     1      -8.054  18.664  68.261  1.00  0.00    -0.339 C  
HETATM    2  C   UNL     1      -7.474  17.483  67.504  1.00  0.00    -0.202 C  
ENDROOT
BRANCH   2   3
HETATM    3  C   UNL     1      -8.369  16.265  67.289  1.00  0.00    -0.180 C  
HETATM    4  O   UNL     1      -8.488  15.722  66.196  1.00  0.00    -0.291 OA 
BRANCH   3   5
HETATM    5  O   UNL     1      -8.905  15.799  68.444  1.00  0.00    -0.176 OA 
BRANCH   5   6
HETATM    6  C   UNL     1      -8.604  14.425  68.843  1.00  0.00    -0.064 C  
HETATM    7  C   UNL     1      -7.053  14.339  69.087  1.00  0.00    -0.117 C  
HETATM    8  C   UNL     1      -6.564  12.950  69.493  1.00  0.00    -0.029 C  
HETATM    9  C   UNL     1      -6.550  15.361  70.108  1.00  0.00    -0.035 C  
BRANCH   6  10
HETATM   10  O   UNL     1      -9.054  13.384  67.923  1.00  0.00    -0.190 OA 
BRANCH  10  11
HETATM   11  P   UNL     1     -10.682  13.316  67.575  1.00  0.00    -0.256 P  
HETATM   12  O   UNL     1     -11.038  14.106  68.858  1.00  0.00    -0.244 OA 
BRANCH  11  13
HETATM   13  C   UNL     1     -11.283  11.641  68.411  1.00  0.00    -0.249 C  
BRANCH  13  14
HETATM   14  C   UNL     1     -11.889  11.868  69.800  1.00  0.00    -0.411 C  
BRANCH  14  15
HETATM   15  C   UNL     1     -12.672  10.684  70.336  1.00  0.00    -0.340 C  
BRANCH  15  16
HETATM   16  C   UNL     1     -12.215  10.383  71.773  1.00  0.00    -0.219 C  
BRANCH  16  17
HETATM   17  C   UNL     1     -12.008   8.906  71.962  1.00  0.00    -0.439 A  
HETATM   18  C   UNL     1     -12.870   7.983  71.357  1.00  0.00    -0.289 A  
HETATM   19  C   UNL     1     -10.912   8.444  72.700  1.00  0.00    -0.318 A  
HETATM   20  C   UNL     1     -11.540   6.159  72.224  1.00  0.00    -0.362 A  
HETATM   21  C   UNL     1     -12.636   6.610  71.496  1.00  0.00    -0.287 A  
HETATM   22  C   UNL     1     -10.680   7.075  72.823  1.00  0.00    -0.306 A  
ENDBRANCH  16  17
ENDBRANCH  15  16
ENDBRANCH  14  15
ENDBRANCH  13  14
ENDBRANCH  11  13
BRANCH  11  23
HETATM   23  C   UNL     1     -10.262  12.382  66.058  1.00  0.00    -0.245 C  
BRANCH  23  24
HETATM   24  C   UNL     1      -8.965  11.558  66.161  1.00  0.00    -0.197 C  
HETATM   25  C   UNL     1      -7.701   9.438  66.598  1.00  0.00    -0.097 C  
HETATM   26  O   UNL     1      -7.869  12.130  66.086  1.00  0.00     0.334 OA 
HETATM   27  N   UNL     1      -8.945  10.186  66.284  1.00  0.00    -0.146 N  
HETATM   28  C   UNL     1      -6.613   9.294  65.499  1.00  0.00    -0.069 C  
HETATM   29  O   UNL     1      -5.840   8.345  65.422  1.00  0.00    -0.044 OA 
HETATM   30  C   UNL     1      -9.973   9.240  65.897  1.00  0.00    -0.219 C  
HETATM   31  C   UNL     1      -9.696   7.959  66.704  1.00  0.00    -0.305 C  
HETATM   32  O   UNL     1      -6.477  10.367  64.689  1.00  0.00    -0.121 OA 
HETATM   33  C   UNL     1      -8.186   8.036  67.013  1.00  0.00    -0.116 C  
BRANCH  31  34
HETATM   34  C   UNL     1     -10.541   7.769  68.002  1.00  0.00    -0.201 C  
HETATM   35  C   UNL     1      -9.965   5.330  68.405  1.00  0.00    -0.220 C  
HETATM   36  C   UNL     1      -9.153   5.667  69.650  1.00  0.00    -0.148 C  
HETATM   37  C   UNL     1      -8.677   7.118  69.675  1.00  0.00    -0.141 C  
HETATM   38  C   UNL     1     -11.085   6.344  68.201  1.00  0.00    -0.358 C  
HETATM   39  C   UNL     1      -9.757   8.135  69.288  1.00  0.00    -0.170 C  
ENDBRANCH  31  34
ENDBRANCH  23  24
ENDBRANCH  11  23
ENDBRANCH  10  11
ENDBRANCH   6  10
ENDBRANCH   5   6
ENDBRANCH   3   5
ENDBRANCH   2   3
TORSDOF 13
ENDMDL
MODEL      172
REMARK 921   NORMALIZED FREE ENERGY PREDICTED BY IDOCK:   -4.17 KCAL/MOL
REMARK 922        TOTAL FREE ENERGY PREDICTED BY IDOCK:   -9.80 KCAL/MOL
REMARK 923 INTER-LIGAND FREE ENERGY PREDICTED BY IDOCK:   -9.10 KCAL/MOL
REMARK 924 INTRA-LIGAND FREE ENERGY PREDICTED BY IDOCK:   -0.70 KCAL/MOL
REMARK 927      BINDING AFFINITY PREDICTED BY RF-SCORE:    0.00 PKD
ROOT
HETATM    1  C   UNL     1     -10.136   5.930  66.652  1.00  0.00    -0.229 C  
HETATM    2  C   UNL     1      -9.333   7.209  66.799  1.00  0.00    -0.199 C  
ENDROOT
BRANCH   2   3
HETATM    3  C   UNL     1      -8.034   7.331  66.006  1.00  0.00    -0.115 C  
HETATM    4  O   UNL     1      -7.321   6.364  65.758  1.00  0.00    -0.076 OA 
BRANCH   3   5
HETATM    5  O   UNL     1      -7.831   8.581  65.523  1.00  0.00    -0.095 OA 
BRANCH   5   6
HETATM    6  C   UNL     1      -8.987   9.467  65.385  1.00  0.00    -0.201 C  
HETATM    7  C   UNL     1      -8.807  10.262  64.040  1.00  0.00    -0.237 C  
HETATM    8  C   UNL     1      -9.929  11.259  63.752  1.00  0.00    -0.388 C  
HETATM    9  C   UNL     1      -8.628   9.351  62.824  1.00  0.00    -0.221 C  
BRANCH   6  10
HETATM   10  O   UNL     1      -9.231  10.370  66.506  1.00  0.00    -0.156 OA 
BRANCH  10  11
HETATM   11  P   UNL     1      -8.059  11.503  66.852  1.00  0.00    -0.141 P  
HETATM   12  O   UNL     1      -7.003  10.732  66.023  1.00  0.00    -0.131 OA 
BRANCH  11  13
HETATM   13  C   UNL     1      -7.249  10.861  68.524  1.00  0.00    -0.090 C  
BRANCH  13  14
HETATM   14  C   UNL     1      -6.819   9.393  68.437  1.00  0.00    -0.063 C  
BRANCH  14  15
HETATM   15  C   UNL     1      -6.792   8.673  69.774  1.00  0.00    -0.042 C  
BRANCH  15  16
HETATM   16  C   UNL     1      -7.828   9.312  70.713  1.00  0.00    -0.174 C  
BRANCH  16  17
HETATM   17  C   UNL     1      -9.082   8.485  70.754  1.00  0.00    -0.196 A  
HETATM   18  C   UNL     1     -10.122   8.722  69.845  1.00  0.00    -0.197 A  
HETATM   19  C   UNL     1      -9.192   7.430  71.667  1.00  0.00    -0.154 A  
HETATM   20  C   UNL     1     -11.360   6.860  70.763  1.00  0.00    -0.355 A  
HETATM   21  C   UNL     1     -11.263   7.911  69.858  1.00  0.00    -0.051 A  
HETATM   22  C   UNL     1     -10.327   6.620  71.664  1.00  0.00    -0.227 A  
ENDBRANCH  16  17
ENDBRANCH  15  16
ENDBRANCH  14  15
ENDBRANCH  13  14
ENDBRANCH  11  13
BRANCH  11  23
HETATM   23  C   UNL     1      -9.307  12.413  67.832  1.00  0.00    -0.195 C  
BRANCH  23  24
HETATM   24  C   UNL     1     -10.122  13.439  67.022  1.00  0.00    -0.247 C  
HETATM   25  C   UNL     1     -10.612  15.764  66.224  1.00  0.00    -0.310 C  
HETATM   26  O   UNL     1     -11.178  13.090  66.479  1.00  0.00    -0.285 OA 
HETATM   27  N   UNL     1      -9.715  14.740  66.817  1.00  0.00    -0.244 N  
HETATM   28  C   UNL     1     -10.935  15.691  64.706  1.00  0.00    -0.400 C  
HETATM   29  O   UNL     1     -11.196  16.670  64.015  1.00  0.00    -1.052 OA 
HETATM   30  C   UNL     1      -8.368  15.273  66.871  1.00  0.00    -0.243 C  
HETATM   31  C   UNL     1      -8.521  16.788  67.096  1.00  0.00    -0.208 C  
HETATM   32  O   UNL     1     -11.044  14.441  64.208  1.00  0.00    -0.247 OA 
HETATM   33  C   UNL     1      -9.920  17.107  66.527  1.00  0.00    -0.308 C  
BRANCH  31  34
HETATM   34  C   UNL     1      -8.370  17.283  68.567  1.00  0.00    -0.267 C  
HETATM   35  C   UNL     1      -6.031  18.245  68.345  1.00  0.00    -0.184 C  
HETATM   36  C   UNL     1      -6.541  19.673  68.504  1.00  0.00    -0.314 C  
HETATM   37  C   UNL     1      -8.024  19.818  68.168  1.00  0.00    -0.334 C  
HETATM   38  C   UNL     1      -6.927  17.267  69.097  1.00  0.00    -0.215 C  
HETATM   39  C   UNL     1      -8.909  18.722  68.774  1.00  0.00    -0.308 C  
ENDBRANCH  31  34
ENDBRANCH  23  24
ENDBRANCH  11  23
ENDBRANCH  10  11
ENDBRANCH   6  10
ENDBRANCH   5   6
ENDBRANCH   3   5
ENDBRANCH   2   3
TORSDOF 13
ENDMDL
MODEL      173
REMARK 921   NORMALIZED FREE ENERGY PREDICTED BY IDOCK:   -4.15 KCAL/MOL
REMARK 922        TOTAL FREE ENERGY PREDICTED BY IDOCK:   -9.76 KCAL/MOL
REMARK 923 INTER-LIGAND FREE ENERGY PREDICTED BY IDOCK:   -7.78 KCAL/MOL
REMARK 924 INTRA-LIGAND FREE ENERGY PREDICTED BY IDOCK:   -1.98 KCAL/MOL
REMARK 927      BINDING AFFINITY PREDICTED BY RF-SCORE:    0.00 PKD
ROOT
HETATM    1  C   UNL     1      -5.849   8.889  73.090  1.00  0.00    -0.072 C  
HETATM    2  C   UNL     1      -7.237   8.494  72.620  1.00  0.00    -0.068 C  
ENDROOT
BRANCH   2   3
HETATM    3  C   UNL     1      -7.617   8.807  71.175  1.00  0.00    -0.115 C  
HETATM    4  O   UNL     1      -7.492   9.927  70.689  1.00  0.00    -0.284 OA 
BRANCH   3   5
HETATM    5  O   UNL     1      -7.987   7.703  70.480  1.00  0.00    -0.097 OA 
BRANCH   5   6
HETATM    6  C   UNL     1      -9.294   7.703  69.825  1.00  0.00    -0.150 C  
HETATM    7  C   UNL     1     -10.145   6.556  70.483  1.00  0.00    -0.213 C  
HETATM    8  C   UNL     1     -11.546   6.404  69.892  1.00  0.00    -0.422 C  
HETATM    9  C   UNL     1     -10.260   6.692  72.002  1.00  0.00    -0.206 C  
BRANCH   6  10
HETATM   10  O   UNL     1      -9.274   7.580  68.370  1.00  0.00    -0.140 OA 
BRANCH  10  11
HETATM   11  P   UNL     1     -10.480   8.350  67.516  1.00  0.00    -0.172 P  
HETATM   12  O   UNL     1     -10.811   7.060  66.727  1.00  0.00    -0.318 OA 
BRANCH  11  13
HETATM   13  C   UNL     1      -9.556   9.100  65.951  1.00  0.00    -0.273 C  
BRANCH  13  14
HETATM   14  C   UNL     1      -8.055   8.790  65.957  1.00  0.00    -0.112 C  
BRANCH  14  15
HETATM   15  C   UNL     1      -7.668   7.578  65.128  1.00  0.00    -0.111 C  
BRANCH  15  16
HETATM   16  C   UNL     1      -6.610   6.763  65.888  1.00  0.00    -0.051 C  
BRANCH  16  17
HETATM   17  C   UNL     1      -7.259   5.666  66.684  1.00  0.00    -0.074 A  
HETATM   18  C   UNL     1      -6.760   5.308  67.943  1.00  0.00    -0.055 A  
HETATM   19  C   UNL     1      -8.409   5.036  66.194  1.00  0.00    -0.113 A  
HETATM   20  C   UNL     1      -8.551   3.707  68.208  1.00  0.00    -0.117 A  
HETATM   21  C   UNL     1      -7.405   4.323  68.699  1.00  0.00    -0.056 A  
HETATM   22  C   UNL     1      -9.052   4.063  66.959  1.00  0.00    -0.163 A  
ENDBRANCH  16  17
ENDBRANCH  15  16
ENDBRANCH  14  15
ENDBRANCH  13  14
ENDBRANCH  11  13
BRANCH  11  23
HETATM   23  C   UNL     1     -10.088   9.875  68.449  1.00  0.00    -0.167 C  
BRANCH  23  24
HETATM   24  C   UNL     1     -10.899  11.110  68.013  1.00  0.00    -0.225 C  
HETATM   25  C   UNL     1     -11.108  13.523  67.370  1.00  0.00    -0.281 C  
HETATM   26  O   UNL     1     -12.135  11.057  68.000  1.00  0.00    -0.615 OA 
HETATM   27  N   UNL     1     -10.320  12.282  67.577  1.00  0.00    -0.202 N  
HETATM   28  C   UNL     1     -12.063  13.612  66.148  1.00  0.00    -0.436 C  
HETATM   29  O   UNL     1     -12.352  14.661  65.582  1.00  0.00    -0.271 OA 
HETATM   30  C   UNL     1      -8.998  12.469  67.013  1.00  0.00    -0.211 C  
HETATM   31  C   UNL     1      -8.667  13.961  67.193  1.00  0.00    -0.233 C  
HETATM   32  O   UNL     1     -12.675  12.455  65.819  1.00  0.00    -0.392 OA 
HETATM   33  C   UNL     1     -10.052  14.641  67.266  1.00  0.00    -0.236 C  
BRANCH  31  34
HETATM   34  C   UNL     1      -7.781  14.326  68.423  1.00  0.00    -0.134 C  
HETATM   35  C   UNL     1      -6.253  15.974  67.242  1.00  0.00    -0.155 C  
HETATM   36  C   UNL     1      -6.834  17.154  68.013  1.00  0.00    -0.174 C  
HETATM   37  C   UNL     1      -8.225  16.872  68.575  1.00  0.00    -0.249 C  
HETATM   38  C   UNL     1      -6.330  14.698  68.072  1.00  0.00    -0.165 C  
HETATM   39  C   UNL     1      -8.358  15.502  69.252  1.00  0.00    -0.257 C  
ENDBRANCH  31  34
ENDBRANCH  23  24
ENDBRANCH  11  23
ENDBRANCH  10  11
ENDBRANCH   6  10
ENDBRANCH   5   6
ENDBRANCH   3   5
ENDBRANCH   2   3
TORSDOF 13
ENDMDL
MODEL      174
REMARK 921   NORMALIZED FREE ENERGY PREDICTED BY IDOCK:   -4.11 KCAL/MOL
REMARK 922        TOTAL FREE ENERGY PREDICTED BY IDOCK:   -9.70 KCAL/MOL
REMARK 923 INTER-LIGAND FREE ENERGY PREDICTED BY IDOCK:   -7.69 KCAL/MOL
REMARK 924 INTRA-LIGAND FREE ENERGY PREDICTED BY IDOCK:   -2.00 KCAL/MOL
REMARK 927      BINDING AFFINITY PREDICTED BY RF-SCORE:    0.00 PKD
ROOT
HETATM    1  C   UNL     1      -5.373  10.357  71.948  1.00  0.00     0.098 C  
HETATM    2  C   UNL     1      -5.342  10.981  70.564  1.00  0.00    -0.100 C  
ENDROOT
BRANCH   2   3
HETATM    3  C   UNL     1      -5.550  12.489  70.457  1.00  0.00    -0.172 C  
HETATM    4  O   UNL     1      -5.843  13.184  71.424  1.00  0.00    -0.346 OA 
BRANCH   3   5
HETATM    5  O   UNL     1      -5.264  12.971  69.222  1.00  0.00    -0.073 OA 
BRANCH   5   6
HETATM    6  C   UNL     1      -6.341  13.031  68.235  1.00  0.00    -0.089 C  
HETATM    7  C   UNL     1      -7.266  14.241  68.627  1.00  0.00    -0.125 C  
HETATM    8  C   UNL     1      -8.466  14.432  67.700  1.00  0.00    -0.191 C  
HETATM    9  C   UNL     1      -6.507  15.565  68.737  1.00  0.00    -0.107 C  
BRANCH   6  10
HETATM   10  O   UNL     1      -7.115  11.805  68.065  1.00  0.00    -0.073 OA 
BRANCH  10  11
HETATM   11  P   UNL     1      -6.486  10.629  67.067  1.00  0.00    -0.093 P  
HETATM   12  O   UNL     1      -5.507  11.638  66.417  1.00  0.00    -0.251 OA 
BRANCH  11  13
HETATM   13  C   UNL     1      -7.637  10.684  65.474  1.00  0.00    -0.072 C  
BRANCH  13  14
HETATM   14  C   UNL     1      -7.197   9.679  64.404  1.00  0.00    -0.122 C  
BRANCH  14  15
HETATM   15  C   UNL     1      -8.120   8.482  64.260  1.00  0.00    -0.155 C  
BRANCH  15  16
HETATM   16  C   UNL     1      -7.492   7.271  64.970  1.00  0.00    -0.089 C  
BRANCH  16  17
HETATM   17  C   UNL     1      -8.560   6.398  65.567  1.00  0.00    -0.115 A  
HETATM   18  C   UNL     1      -8.448   5.002  65.517  1.00  0.00    -0.134 A  
HETATM   19  C   UNL     1      -9.646   6.979  66.232  1.00  0.00    -0.094 A  
HETATM   20  C   UNL     1     -10.493   4.785  66.789  1.00  0.00    -0.180 A  
HETATM   21  C   UNL     1      -9.422   4.199  66.124  1.00  0.00    -0.187 A  
HETATM   22  C   UNL     1     -10.604   6.171  66.843  1.00  0.00    -0.380 A  
ENDBRANCH  16  17
ENDBRANCH  15  16
ENDBRANCH  14  15
ENDBRANCH  13  14
ENDBRANCH  11  13
BRANCH  11  23
HETATM   23  C   UNL     1      -7.643   9.437  67.834  1.00  0.00    -0.087 C  
BRANCH  23  24
HETATM   24  C   UNL     1      -8.672  10.077  68.785  1.00  0.00    -0.136 C  
HETATM   25  C   UNL     1     -10.716  11.449  69.257  1.00  0.00    -0.151 C  
HETATM   26  O   UNL     1      -8.479  10.045  70.007  1.00  0.00    -0.187 OA 
HETATM   27  N   UNL     1      -9.848  10.651  68.354  1.00  0.00    -0.156 N  
HETATM   28  C   UNL     1     -11.546  10.712  70.345  1.00  0.00    -0.351 C  
HETATM   29  O   UNL     1     -12.618  11.120  70.778  1.00  0.00    -0.347 OA 
HETATM   30  C   UNL     1     -10.567  10.397  67.121  1.00  0.00    -0.261 C  
HETATM   31  C   UNL     1     -11.468  11.624  66.894  1.00  0.00    -0.320 C  
HETATM   32  O   UNL     1     -10.938   9.639  70.894  1.00  0.00    -0.291 OA 
HETATM   33  C   UNL     1     -11.675  12.197  68.313  1.00  0.00    -0.401 C  
BRANCH  31  34
HETATM   34  C   UNL     1     -10.922  12.705  65.910  1.00  0.00    -0.310 C  
HETATM   35  C   UNL     1     -11.181  11.355  63.776  1.00  0.00    -0.375 C  
HETATM   36  C   UNL     1     -12.299  12.259  63.270  1.00  0.00    -0.518 C  
HETATM   37  C   UNL     1     -12.992  13.032  64.391  1.00  0.00    -0.039 C  
HETATM   38  C   UNL     1     -10.220  12.134  64.667  1.00  0.00    -0.312 C  
HETATM   39  C   UNL     1     -12.027  13.665  65.401  1.00  0.00    -0.400 C  
ENDBRANCH  31  34
ENDBRANCH  23  24
ENDBRANCH  11  23
ENDBRANCH  10  11
ENDBRANCH   6  10
ENDBRANCH   5   6
ENDBRANCH   3   5
ENDBRANCH   2   3
TORSDOF 13
ENDMDL
MODEL      175
REMARK 921   NORMALIZED FREE ENERGY PREDICTED BY IDOCK:   -4.10 KCAL/MOL
REMARK 922        TOTAL FREE ENERGY PREDICTED BY IDOCK:   -9.68 KCAL/MOL
REMARK 923 INTER-LIGAND FREE ENERGY PREDICTED BY IDOCK:   -9.01 KCAL/MOL
REMARK 924 INTRA-LIGAND FREE ENERGY PREDICTED BY IDOCK:   -0.67 KCAL/MOL
REMARK 927      BINDING AFFINITY PREDICTED BY RF-SCORE:    0.00 PKD
ROOT
HETATM    1  C   UNL     1     -13.409  10.375  71.637  1.00  0.00    -0.432 C  
HETATM    2  C   UNL     1     -13.863   9.071  72.267  1.00  0.00    -0.547 C  
ENDROOT
BRANCH   2   3
HETATM    3  C   UNL     1     -13.213   7.778  71.780  1.00  0.00    -0.318 C  
HETATM    4  O   UNL     1     -13.758   7.031  70.974  1.00  0.00    -0.177 OA 
BRANCH   3   5
HETATM    5  O   UNL     1     -11.948   7.622  72.241  1.00  0.00    -0.304 OA 
BRANCH   5   6
HETATM    6  C   UNL     1     -11.062   6.698  71.534  1.00  0.00    -0.256 C  
HETATM    7  C   UNL     1     -10.110   6.052  72.606  1.00  0.00    -0.198 C  
HETATM    8  C   UNL     1      -9.096   5.068  72.025  1.00  0.00    -0.153 C  
HETATM    9  C   UNL     1     -10.868   5.368  73.746  1.00  0.00    -0.282 C  
BRANCH   6  10
HETATM   10  O   UNL     1     -10.301   7.270  70.427  1.00  0.00    -0.203 OA 
BRANCH  10  11
HETATM   11  P   UNL     1      -9.135   8.401  70.798  1.00  0.00    -0.180 P  
HETATM   12  O   UNL     1     -10.124   9.201  71.680  1.00  0.00    -0.327 OA 
BRANCH  11  13
HETATM   13  C   UNL     1      -9.291   9.740  69.367  1.00  0.00    -0.202 C  
BRANCH  13  14
HETATM   14  C   UNL     1     -10.745  10.152  69.112  1.00  0.00    -0.254 C  
BRANCH  14  15
HETATM   15  C   UNL     1     -11.065  10.430  67.654  1.00  0.00    -0.361 C  
BRANCH  15  16
HETATM   16  C   UNL     1     -11.373  11.926  67.479  1.00  0.00    -0.381 C  
BRANCH  16  17
HETATM   17  C   UNL     1     -11.519  12.268  66.023  1.00  0.00    -0.434 A  
HETATM   18  C   UNL     1     -11.041  11.397  65.035  1.00  0.00    -0.215 A  
HETATM   19  C   UNL     1     -12.192  13.436  65.645  1.00  0.00    -0.510 A  
HETATM   20  C   UNL     1     -11.907  12.858  63.315  1.00  0.00    -0.469 A  
HETATM   21  C   UNL     1     -11.231  11.700  63.681  1.00  0.00    -0.497 A  
HETATM   22  C   UNL     1     -12.386  13.724  64.294  1.00  0.00    -0.384 A  
ENDBRANCH  16  17
ENDBRANCH  15  16
ENDBRANCH  14  15
ENDBRANCH  13  14
ENDBRANCH  11  13
BRANCH  11  23
HETATM   23  C   UNL     1      -7.966   7.455  69.755  1.00  0.00    -0.125 C  
BRANCH  23  24
HETATM   24  C   UNL     1      -7.507   8.197  68.486  1.00  0.00    -0.099 C  
HETATM   25  C   UNL     1      -7.295   8.437  66.000  1.00  0.00    -0.073 C  
HETATM   26  O   UNL     1      -6.770   9.187  68.588  1.00  0.00    -0.057 OA 
HETATM   27  N   UNL     1      -7.915   7.852  67.216  1.00  0.00    -0.116 N  
HETATM   28  C   UNL     1      -7.609   9.915  65.633  1.00  0.00    -0.119 C  
HETATM   29  O   UNL     1      -7.612  10.348  64.486  1.00  0.00    -0.126 OA 
HETATM   30  C   UNL     1      -9.108   7.126  66.828  1.00  0.00    -0.147 C  
HETATM   31  C   UNL     1      -8.825   6.565  65.423  1.00  0.00     0.050 C  
HETATM   32  O   UNL     1      -7.753  10.744  66.689  1.00  0.00    -0.127 OA 
HETATM   33  C   UNL     1      -7.760   7.524  64.849  1.00  0.00    -0.115 C  
BRANCH  31  34
HETATM   34  C   UNL     1      -8.356   5.078  65.358  1.00  0.00    -0.132 C  
HETATM   35  C   UNL     1     -10.631   4.043  64.911  1.00  0.00    -0.148 C  
HETATM   36  C   UNL     1     -10.237   3.648  63.493  1.00  0.00    -0.210 C  
HETATM   37  C   UNL     1      -9.074   4.473  62.945  1.00  0.00    -0.124 C  
HETATM   38  C   UNL     1      -9.410   4.060  65.824  1.00  0.00    -0.160 C  
HETATM   39  C   UNL     1      -7.916   4.649  63.935  1.00  0.00    -0.095 C  
ENDBRANCH  31  34
ENDBRANCH  23  24
ENDBRANCH  11  23
ENDBRANCH  10  11
ENDBRANCH   6  10
ENDBRANCH   5   6
ENDBRANCH   3   5
ENDBRANCH   2   3
TORSDOF 13
ENDMDL
MODEL      176
REMARK 921   NORMALIZED FREE ENERGY PREDICTED BY IDOCK:   -4.07 KCAL/MOL
REMARK 922        TOTAL FREE ENERGY PREDICTED BY IDOCK:   -9.63 KCAL/MOL
REMARK 923 INTER-LIGAND FREE ENERGY PREDICTED BY IDOCK:   -8.07 KCAL/MOL
REMARK 924 INTRA-LIGAND FREE ENERGY PREDICTED BY IDOCK:   -1.56 KCAL/MOL
REMARK 927      BINDING AFFINITY PREDICTED BY RF-SCORE:    0.00 PKD
ROOT
HETATM    1  C   UNL     1      -9.050   4.573  62.473  1.00  0.00    -0.127 C  
HETATM    2  C   UNL     1      -8.934   3.999  63.873  1.00  0.00    -0.125 C  
ENDROOT
BRANCH   2   3
HETATM    3  C   UNL     1     -10.198   3.941  64.727  1.00  0.00    -0.188 C  
HETATM    4  O   UNL     1     -11.301   3.689  64.254  1.00  0.00    -0.185 OA 
BRANCH   3   5
HETATM    5  O   UNL     1      -9.942   4.082  66.051  1.00  0.00    -0.193 OA 
BRANCH   5   6
HETATM    6  C   UNL     1      -8.562   3.927  66.510  1.00  0.00    -0.111 C  
HETATM    7  C   UNL     1      -8.572   2.868  67.672  1.00  0.00    -0.118 C  
HETATM    8  C   UNL     1      -7.198   2.603  68.285  1.00  0.00    -0.048 C  
HETATM    9  C   UNL     1      -9.197   1.533  67.260  1.00  0.00    -0.094 C  
BRANCH   6  10
HETATM   10  O   UNL     1      -7.888   5.156  66.920  1.00  0.00    -0.098 OA 
BRANCH  10  11
HETATM   11  P   UNL     1      -8.694   6.158  67.980  1.00  0.00    -0.110 P  
HETATM   12  O   UNL     1      -9.782   6.477  66.926  1.00  0.00    -0.146 OA 
BRANCH  11  13
HETATM   13  C   UNL     1      -7.870   7.920  67.698  1.00  0.00    -0.122 C  
BRANCH  13  14
HETATM   14  C   UNL     1      -8.721   8.824  66.800  1.00  0.00    -0.134 C  
BRANCH  14  15
HETATM   15  C   UNL     1      -9.113  10.144  67.442  1.00  0.00    -0.149 C  
BRANCH  15  16
HETATM   16  C   UNL     1     -10.635  10.172  67.653  1.00  0.00    -0.316 C  
BRANCH  16  17
HETATM   17  C   UNL     1     -11.126  11.588  67.767  1.00  0.00    -0.319 A  
HETATM   18  C   UNL     1     -11.413  12.337  66.618  1.00  0.00    -0.431 A  
HETATM   19  C   UNL     1     -11.358  12.146  69.029  1.00  0.00    -0.329 A  
HETATM   20  C   UNL     1     -12.155  14.180  67.995  1.00  0.00    -0.303 A  
HETATM   21  C   UNL     1     -11.921  13.636  66.737  1.00  0.00    -0.458 A  
HETATM   22  C   UNL     1     -11.875  13.436  69.138  1.00  0.00    -0.383 A  
ENDBRANCH  16  17
ENDBRANCH  15  16
ENDBRANCH  14  15
ENDBRANCH  13  14
ENDBRANCH  11  13
BRANCH  11  23
HETATM   23  C   UNL     1      -7.408   5.781  69.226  1.00  0.00    -0.079 C  
BRANCH  23  24
HETATM   24  C   UNL     1      -7.302   6.817  70.360  1.00  0.00    -0.081 C  
HETATM   25  C   UNL     1      -8.296   8.360  72.068  1.00  0.00    -0.171 C  
HETATM   26  O   UNL     1      -6.200   7.304  70.643  1.00  0.00    -0.034 OA 
HETATM   27  N   UNL     1      -8.374   7.210  71.132  1.00  0.00    -0.113 N  
HETATM   28  C   UNL     1      -7.483   8.206  73.383  1.00  0.00    -0.145 C  
HETATM   29  O   UNL     1      -7.737   8.813  74.418  1.00  0.00    -0.411 OA 
HETATM   30  C   UNL     1      -9.605   6.487  71.384  1.00  0.00    -0.165 C  
HETATM   31  C   UNL     1     -10.631   7.541  71.836  1.00  0.00    -0.245 C  
HETATM   32  O   UNL     1      -6.374   7.443  73.280  1.00  0.00    -0.062 OA 
HETATM   33  C   UNL     1      -9.763   8.678  72.416  1.00  0.00    -0.313 C  
BRANCH  31  34
HETATM   34  C   UNL     1     -11.607   8.065  70.738  1.00  0.00    -0.251 C  
HETATM   35  C   UNL     1     -13.704   6.922  71.600  1.00  0.00    -0.273 C  
HETATM   36  C   UNL     1     -14.332   8.251  72.004  1.00  0.00    -0.541 C  
HETATM   37  C   UNL     1     -13.301   9.360  72.205  1.00  0.00    -0.539 C  
HETATM   38  C   UNL     1     -12.767   7.109  70.412  1.00  0.00     0.249 C  
HETATM   39  C   UNL     1     -12.241   9.432  71.100  1.00  0.00    -0.402 C  
ENDBRANCH  31  34
ENDBRANCH  23  24
ENDBRANCH  11  23
ENDBRANCH  10  11
ENDBRANCH   6  10
ENDBRANCH   5   6
ENDBRANCH   3   5
ENDBRANCH   2   3
TORSDOF 13
ENDMDL
MODEL      177
REMARK 921   NORMALIZED FREE ENERGY PREDICTED BY IDOCK:   -4.05 KCAL/MOL
REMARK 922        TOTAL FREE ENERGY PREDICTED BY IDOCK:   -9.59 KCAL/MOL
REMARK 923 INTER-LIGAND FREE ENERGY PREDICTED BY IDOCK:   -8.36 KCAL/MOL
REMARK 924 INTRA-LIGAND FREE ENERGY PREDICTED BY IDOCK:   -1.23 KCAL/MOL
REMARK 927      BINDING AFFINITY PREDICTED BY RF-SCORE:    0.00 PKD
ROOT
HETATM    1  C   UNL     1      -9.880  16.303  65.906  1.00  0.00    -0.365 C  
HETATM    2  C   UNL     1      -9.946  15.200  66.947  1.00  0.00    -0.243 C  
ENDROOT
BRANCH   2   3
HETATM    3  C   UNL     1     -11.235  15.055  67.751  1.00  0.00    -0.321 C  
HETATM    4  O   UNL     1     -11.636  15.927  68.515  1.00  0.00    -0.377 OA 
BRANCH   3   5
HETATM    5  O   UNL     1     -11.923  13.930  67.439  1.00  0.00    -0.385 OA 
BRANCH   5   6
HETATM    6  C   UNL     1     -11.332  13.001  66.476  1.00  0.00    -0.320 C  
HETATM    7  C   UNL     1     -12.289  12.949  65.230  1.00  0.00    -0.544 C  
HETATM    8  C   UNL     1     -11.825  11.997  64.129  1.00  0.00    -0.462 C  
HETATM    9  C   UNL     1     -12.552  14.326  64.618  1.00  0.00    -0.277 C  
BRANCH   6  10
HETATM   10  O   UNL     1     -11.046  11.661  66.981  1.00  0.00    -0.271 OA 
BRANCH  10  11
HETATM   11  P   UNL     1      -9.446  11.219  67.128  1.00  0.00    -0.173 P  
HETATM   12  O   UNL     1      -9.083  11.913  65.793  1.00  0.00    -0.163 OA 
BRANCH  11  13
HETATM   13  C   UNL     1      -9.353   9.455  66.265  1.00  0.00    -0.198 C  
BRANCH  13  14
HETATM   14  C   UNL     1      -9.161   9.559  64.748  1.00  0.00    -0.271 C  
BRANCH  14  15
HETATM   15  C   UNL     1      -7.853   8.971  64.247  1.00  0.00    -0.130 C  
BRANCH  15  16
HETATM   16  C   UNL     1      -8.148   7.695  63.442  1.00  0.00    -0.044 C  
BRANCH  16  17
HETATM   17  C   UNL     1      -7.632   6.483  64.166  1.00  0.00    -0.100 A  
HETATM   18  C   UNL     1      -8.483   5.407  64.450  1.00  0.00    -0.106 A  
HETATM   19  C   UNL     1      -6.277   6.399  64.506  1.00  0.00    -0.030 A  
HETATM   20  C   UNL     1      -6.630   4.183  65.404  1.00  0.00    -0.044 A  
HETATM   21  C   UNL     1      -7.978   4.261  65.077  1.00  0.00    -0.093 A  
HETATM   22  C   UNL     1      -5.781   5.249  65.120  1.00  0.00    -0.017 A  
ENDBRANCH  16  17
ENDBRANCH  15  16
ENDBRANCH  14  15
ENDBRANCH  13  14
ENDBRANCH  11  13
BRANCH  11  23
HETATM   23  C   UNL     1      -9.876  10.399  68.707  1.00  0.00    -0.185 C  
BRANCH  23  24
HETATM   24  C   UNL     1      -9.071   9.118  68.994  1.00  0.00    -0.143 C  
HETATM   25  C   UNL     1      -8.792   6.844  70.012  1.00  0.00    -0.142 C  
HETATM   26  O   UNL     1      -7.875   9.063  68.680  1.00  0.00    -0.098 OA 
HETATM   27  N   UNL     1      -9.624   7.983  69.545  1.00  0.00    -0.163 N  
HETATM   28  C   UNL     1      -8.114   5.928  68.956  1.00  0.00    -0.103 C  
HETATM   29  O   UNL     1      -7.861   4.742  69.143  1.00  0.00    -0.070 OA 
HETATM   30  C   UNL     1     -11.014   7.572  69.536  1.00  0.00    -0.113 C  
HETATM   31  C   UNL     1     -11.167   6.567  70.693  1.00  0.00    -0.386 C  
HETATM   32  O   UNL     1      -7.689   6.561  67.842  1.00  0.00    -0.101 OA 
HETATM   33  C   UNL     1      -9.744   5.997  70.877  1.00  0.00    -0.207 C  
BRANCH  31  34
HETATM   34  C   UNL     1     -11.737   7.137  72.028  1.00  0.00    -0.326 C  
HETATM   35  C   UNL     1     -12.558   9.355  71.106  1.00  0.00    -0.357 C  
HETATM   36  C   UNL     1     -14.018   8.961  71.298  1.00  0.00    -0.213 C  
HETATM   37  C   UNL     1     -14.222   7.449  71.373  1.00  0.00    -0.508 C  
HETATM   38  C   UNL     1     -11.674   8.670  72.141  1.00  0.00    -0.442 C  
HETATM   39  C   UNL     1     -13.212   6.728  72.274  1.00  0.00     0.129 C  
ENDBRANCH  31  34
ENDBRANCH  23  24
ENDBRANCH  11  23
ENDBRANCH  10  11
ENDBRANCH   6  10
ENDBRANCH   5   6
ENDBRANCH   3   5
ENDBRANCH   2   3
TORSDOF 13
ENDMDL
MODEL      178
REMARK 921   NORMALIZED FREE ENERGY PREDICTED BY IDOCK:   -4.04 KCAL/MOL
REMARK 922        TOTAL FREE ENERGY PREDICTED BY IDOCK:   -9.57 KCAL/MOL
REMARK 923 INTER-LIGAND FREE ENERGY PREDICTED BY IDOCK:   -8.15 KCAL/MOL
REMARK 924 INTRA-LIGAND FREE ENERGY PREDICTED BY IDOCK:   -1.42 KCAL/MOL
REMARK 927      BINDING AFFINITY PREDICTED BY RF-SCORE:    0.00 PKD
ROOT
HETATM    1  C   UNL     1      -7.001  14.440  68.876  1.00  0.00    -0.105 C  
HETATM    2  C   UNL     1      -7.041  12.923  68.923  1.00  0.00    -0.063 C  
ENDROOT
BRANCH   2   3
HETATM    3  C   UNL     1      -6.429  12.157  67.753  1.00  0.00    -0.095 C  
HETATM    4  O   UNL     1      -5.850  12.719  66.829  1.00  0.00    -0.133 OA 
BRANCH   3   5
HETATM    5  O   UNL     1      -6.498  10.813  67.914  1.00  0.00    -0.061 OA 
BRANCH   5   6
HETATM    6  C   UNL     1      -7.697  10.119  67.442  1.00  0.00    -0.095 C  
HETATM    7  C   UNL     1      -7.534   9.908  65.893  1.00  0.00    -0.108 C  
HETATM    8  C   UNL     1      -8.722   9.209  65.233  1.00  0.00    -0.219 C  
HETATM    9  C   UNL     1      -6.251   9.162  65.521  1.00  0.00    -0.063 C  
BRANCH   6  10
HETATM   10  O   UNL     1      -8.968  10.764  67.759  1.00  0.00    -0.135 OA 
BRANCH  10  11
HETATM   11  P   UNL     1      -9.882  10.101  68.984  1.00  0.00    -0.228 P  
HETATM   12  O   UNL     1      -8.615   9.702  69.778  1.00  0.00    -0.163 OA 
BRANCH  11  13
HETATM   13  C   UNL     1     -10.152   8.235  68.428  1.00  0.00    -0.201 C  
BRANCH  13  14
HETATM   14  C   UNL     1     -10.460   7.314  69.613  1.00  0.00    -0.239 C  
BRANCH  14  15
HETATM   15  C   UNL     1      -9.986   5.883  69.426  1.00  0.00    -0.229 C  
BRANCH  15  16
HETATM   16  C   UNL     1      -8.868   5.584  70.439  1.00  0.00    -0.141 C  
BRANCH  16  17
HETATM   17  C   UNL     1      -9.433   5.458  71.826  1.00  0.00    -0.177 A  
HETATM   18  C   UNL     1      -9.743   4.199  72.357  1.00  0.00    -0.210 A  
HETATM   19  C   UNL     1      -9.595   6.599  72.620  1.00  0.00    -0.156 A  
HETATM   20  C   UNL     1     -10.368   5.228  74.453  1.00  0.00    -0.302 A  
HETATM   21  C   UNL     1     -10.217   4.089  73.669  1.00  0.00    -0.213 A  
HETATM   22  C   UNL     1     -10.057   6.479  73.930  1.00  0.00    -0.329 A  
ENDBRANCH  16  17
ENDBRANCH  15  16
ENDBRANCH  14  15
ENDBRANCH  13  14
ENDBRANCH  11  13
BRANCH  11  23
HETATM   23  C   UNL     1     -11.381  10.574  68.045  1.00  0.00    -0.246 C  
BRANCH  23  24
HETATM   24  C   UNL     1     -11.351  12.009  67.487  1.00  0.00    -0.319 C  
HETATM   25  C   UNL     1     -11.610  14.492  67.711  1.00  0.00    -0.365 C  
HETATM   26  O   UNL     1     -11.211  12.189  66.270  1.00  0.00    -0.302 OA 
HETATM   27  N   UNL     1     -11.422  13.133  68.280  1.00  0.00    -0.292 N  
HETATM   28  C   UNL     1     -10.424  15.166  66.967  1.00  0.00    -0.282 C  
HETATM   29  O   UNL     1     -10.253  16.379  66.913  1.00  0.00    -0.278 OA 
HETATM   30  C   UNL     1     -11.082  13.258  69.684  1.00  0.00     0.063 C  
HETATM   31  C   UNL     1     -11.818  14.513  70.188  1.00  0.00    -0.371 C  
HETATM   32  O   UNL     1      -9.647  14.322  66.255  1.00  0.00    -0.289 OA 
HETATM   33  C   UNL     1     -12.011  15.365  68.916  1.00  0.00    -0.298 C  
BRANCH  31  34
HETATM   34  C   UNL     1     -13.170  14.266  70.927  1.00  0.00    -0.320 C  
HETATM   35  C   UNL     1     -12.208  13.919  73.250  1.00  0.00     0.755 C  
HETATM   36  C   UNL     1     -12.809  15.225  73.757  1.00  0.00    -0.618 C  
HETATM   37  C   UNL     1     -13.125  16.211  72.634  1.00  0.00    -0.330 C  
HETATM   38  C   UNL     1     -13.068  13.326  72.140  1.00  0.00    -0.486 C  
HETATM   39  C   UNL     1     -13.828  15.577  71.428  1.00  0.00    -0.501 C  
ENDBRANCH  31  34
ENDBRANCH  23  24
ENDBRANCH  11  23
ENDBRANCH  10  11
ENDBRANCH   6  10
ENDBRANCH   5   6
ENDBRANCH   3   5
ENDBRANCH   2   3
TORSDOF 13
ENDMDL
MODEL      179
REMARK 921   NORMALIZED FREE ENERGY PREDICTED BY IDOCK:   -4.01 KCAL/MOL
REMARK 922        TOTAL FREE ENERGY PREDICTED BY IDOCK:   -9.52 KCAL/MOL
REMARK 923 INTER-LIGAND FREE ENERGY PREDICTED BY IDOCK:   -8.39 KCAL/MOL
REMARK 924 INTRA-LIGAND FREE ENERGY PREDICTED BY IDOCK:   -1.13 KCAL/MOL
REMARK 927      BINDING AFFINITY PREDICTED BY RF-SCORE:    0.00 PKD
ROOT
HETATM    1  C   UNL     1      -5.175  11.786  70.424  1.00  0.00    -0.107 C  
HETATM    2  C   UNL     1      -6.280  10.749  70.503  1.00  0.00    -0.086 C  
ENDROOT
BRANCH   2   3
HETATM    3  C   UNL     1      -6.014   9.375  69.894  1.00  0.00    -0.036 C  
HETATM    4  O   UNL     1      -5.723   8.398  70.577  1.00  0.00    -0.028 OA 
BRANCH   3   5
HETATM    5  O   UNL     1      -6.249   9.339  68.560  1.00  0.00    -0.048 OA 
BRANCH   5   6
HETATM    6  C   UNL     1      -7.626   9.156  68.102  1.00  0.00    -0.084 C  
HETATM    7  C   UNL     1      -7.719   7.722  67.465  1.00  0.00    -0.117 C  
HETATM    8  C   UNL     1      -9.101   7.377  66.911  1.00  0.00    -0.164 C  
HETATM    9  C   UNL     1      -7.275   6.612  68.419  1.00  0.00    -0.085 C  
BRANCH   6  10
HETATM   10  O   UNL     1      -8.131  10.177  67.188  1.00  0.00    -0.119 OA 
BRANCH  10  11
HETATM   11  P   UNL     1      -9.410  11.110  67.708  1.00  0.00    -0.172 P  
HETATM   12  O   UNL     1      -8.820  11.208  69.136  1.00  0.00    -0.073 OA 
BRANCH  11  13
HETATM   13  C   UNL     1     -10.742   9.801  68.323  1.00  0.00    -0.233 C  
BRANCH  13  14
HETATM   14  C   UNL     1     -11.017   9.913  69.826  1.00  0.00    -0.304 C  
BRANCH  14  15
HETATM   15  C   UNL     1     -10.101   9.063  70.689  1.00  0.00    -0.284 C  
BRANCH  15  16
HETATM   16  C   UNL     1     -10.841   8.668  71.977  1.00  0.00    -0.430 C  
BRANCH  16  17
HETATM   17  C   UNL     1     -10.230   7.434  72.579  1.00  0.00    -0.261 A  
HETATM   18  C   UNL     1     -10.705   6.926  73.796  1.00  0.00    -0.231 A  
HETATM   19  C   UNL     1      -9.220   6.750  71.893  1.00  0.00    -0.142 A  
HETATM   20  C   UNL     1      -9.167   5.068  73.629  1.00  0.00    -0.122 A  
HETATM   21  C   UNL     1     -10.165   5.746  74.320  1.00  0.00    -0.294 A  
HETATM   22  C   UNL     1      -8.696   5.569  72.418  1.00  0.00    -0.128 A  
ENDBRANCH  16  17
ENDBRANCH  15  16
ENDBRANCH  14  15
ENDBRANCH  13  14
ENDBRANCH  11  13
BRANCH  11  23
HETATM   23  C   UNL     1     -10.108  10.994  66.020  1.00  0.00    -0.247 C  
BRANCH  23  24
HETATM   24  C   UNL     1     -11.039  12.160  65.639  1.00  0.00    -0.316 C  
HETATM   25  C   UNL     1     -11.702  14.577  65.653  1.00  0.00    -0.335 C  
HETATM   26  O   UNL     1     -12.124  11.923  65.093  1.00  0.00    -0.319 OA 
HETATM   27  N   UNL     1     -10.711  13.485  65.824  1.00  0.00    -0.272 N  
HETATM   28  C   UNL     1     -12.163  14.955  64.218  1.00  0.00    -0.344 C  
HETATM   29  O   UNL     1     -12.529  16.080  63.892  1.00  0.00    -0.806 OA 
HETATM   30  C   UNL     1      -9.389  14.069  65.943  1.00  0.00     0.028 C  
HETATM   31  C   UNL     1      -9.586  15.425  66.644  1.00  0.00    -0.276 C  
HETATM   32  O   UNL     1     -12.262  13.917  63.361  1.00  0.00    -0.635 OA 
HETATM   33  C   UNL     1     -11.045  15.805  66.311  1.00  0.00    -0.073 C  
BRANCH  31  34
HETATM   34  C   UNL     1      -9.321  15.449  68.181  1.00  0.00    -0.197 C  
HETATM   35  C   UNL     1      -6.809  15.795  68.069  1.00  0.00    -0.141 C  
HETATM   36  C   UNL     1      -6.921  17.209  68.629  1.00  0.00    -0.209 C  
HETATM   37  C   UNL     1      -8.309  17.817  68.439  1.00  0.00    -0.295 C  
HETATM   38  C   UNL     1      -7.939  14.917  68.595  1.00  0.00    -0.144 C  
HETATM   39  C   UNL     1      -9.459  16.866  68.792  1.00  0.00    -0.264 C  
ENDBRANCH  31  34
ENDBRANCH  23  24
ENDBRANCH  11  23
ENDBRANCH  10  11
ENDBRANCH   6  10
ENDBRANCH   5   6
ENDBRANCH   3   5
ENDBRANCH   2   3
TORSDOF 13
ENDMDL
MODEL      180
REMARK 921   NORMALIZED FREE ENERGY PREDICTED BY IDOCK:   -3.99 KCAL/MOL
REMARK 922        TOTAL FREE ENERGY PREDICTED BY IDOCK:   -9.49 KCAL/MOL
REMARK 923 INTER-LIGAND FREE ENERGY PREDICTED BY IDOCK:  -10.59 KCAL/MOL
REMARK 924 INTRA-LIGAND FREE ENERGY PREDICTED BY IDOCK:    1.11 KCAL/MOL
REMARK 927      BINDING AFFINITY PREDICTED BY RF-SCORE:    0.00 PKD
ROOT
HETATM    1  C   UNL     1     -10.076  20.054  69.567  1.00  0.00    -0.046 C  
HETATM    2  C   UNL     1     -10.473  20.087  68.103  1.00  0.00    -0.428 C  
ENDROOT
BRANCH   2   3
HETATM    3  C   UNL     1      -9.370  19.927  67.060  1.00  0.00    -0.370 C  
HETATM    4  O   UNL     1      -9.608  19.814  65.862  1.00  0.00    -0.364 OA 
BRANCH   3   5
HETATM    5  O   UNL     1      -8.127  20.040  67.591  1.00  0.00    -0.296 OA 
BRANCH   5   6
HETATM    6  C   UNL     1      -7.344  18.821  67.788  1.00  0.00    -0.233 C  
HETATM    7  C   UNL     1      -7.120  18.176  66.372  1.00  0.00    -0.274 C  
HETATM    8  C   UNL     1      -6.329  16.869  66.402  1.00  0.00    -0.043 C  
HETATM    9  C   UNL     1      -6.461  19.132  65.376  1.00  0.00    -0.313 C  
BRANCH   6  10
HETATM   10  O   UNL     1      -7.902  17.854  68.729  1.00  0.00    -0.294 OA 
BRANCH  10  11
HETATM   11  P   UNL     1      -8.406  16.388  68.117  1.00  0.00    -0.199 P  
HETATM   12  O   UNL     1      -9.683  17.023  67.517  1.00  0.00    -0.244 OA 
BRANCH  11  13
HETATM   13  C   UNL     1      -9.457  15.594  69.576  1.00  0.00    -0.275 C  
BRANCH  13  14
HETATM   14  C   UNL     1     -10.810  16.289  69.764  1.00  0.00    -0.356 C  
BRANCH  14  15
HETATM   15  C   UNL     1     -11.519  15.927  71.057  1.00  0.00    -0.461 C  
BRANCH  15  16
HETATM   16  C   UNL     1     -12.846  15.225  70.726  1.00  0.00    -0.494 C  
BRANCH  16  17
HETATM   17  C   UNL     1     -12.706  13.736  70.874  1.00  0.00    -0.394 A  
HETATM   18  C   UNL     1     -13.301  13.067  71.951  1.00  0.00    -0.539 A  
HETATM   19  C   UNL     1     -12.028  12.999  69.895  1.00  0.00    -0.381 A  
HETATM   20  C   UNL     1     -12.541  10.949  71.069  1.00  0.00    -0.517 A  
HETATM   21  C   UNL     1     -13.210  11.674  72.049  1.00  0.00    -0.443 A  
HETATM   22  C   UNL     1     -11.953  11.610  69.995  1.00  0.00    -0.429 A  
ENDBRANCH  16  17
ENDBRANCH  15  16
ENDBRANCH  14  15
ENDBRANCH  13  14
ENDBRANCH  11  13
BRANCH  11  23
HETATM   23  C   UNL     1      -6.895  15.637  68.827  1.00  0.00    -0.118 C  
BRANCH  23  24
HETATM   24  C   UNL     1      -6.980  14.112  69.026  1.00  0.00    -0.112 C  
HETATM   25  C   UNL     1      -7.958  11.854  68.546  1.00  0.00    -0.137 C  
HETATM   26  O   UNL     1      -6.327  13.575  69.930  1.00  0.00    -0.126 OA 
HETATM   27  N   UNL     1      -7.716  13.280  68.210  1.00  0.00    -0.133 N  
HETATM   28  C   UNL     1      -6.786  10.843  68.418  1.00  0.00    -0.059 C  
HETATM   29  O   UNL     1      -6.936   9.652  68.161  1.00  0.00    -0.075 OA 
HETATM   30  C   UNL     1      -8.138  13.515  66.843  1.00  0.00     0.130 C  
HETATM   31  C   UNL     1      -9.326  12.568  66.598  1.00  0.00    -0.236 C  
HETATM   32  O   UNL     1      -5.571  11.336  68.742  1.00  0.00    -0.043 OA 
HETATM   33  C   UNL     1      -9.101  11.422  67.608  1.00  0.00    -0.155 C  
BRANCH  31  34
HETATM   34  C   UNL     1     -10.747  13.195  66.745  1.00  0.00    -0.274 C  
HETATM   35  C   UNL     1     -10.811  14.378  64.499  1.00  0.00    -0.271 C  
HETATM   36  C   UNL     1     -11.888  13.438  63.970  1.00  0.00    -0.498 C  
HETATM   37  C   UNL     1     -11.942  12.110  64.721  1.00  0.00    -0.377 C  
HETATM   38  C   UNL     1     -10.929  14.534  66.011  1.00  0.00    -0.324 C  
HETATM   39  C   UNL     1     -11.873  12.253  66.246  1.00  0.00    -0.387 C  
ENDBRANCH  31  34
ENDBRANCH  23  24
ENDBRANCH  11  23
ENDBRANCH  10  11
ENDBRANCH   6  10
ENDBRANCH   5   6
ENDBRANCH   3   5
ENDBRANCH   2   3
TORSDOF 13
ENDMDL
MODEL      181
REMARK 921   NORMALIZED FREE ENERGY PREDICTED BY IDOCK:   -3.99 KCAL/MOL
REMARK 922        TOTAL FREE ENERGY PREDICTED BY IDOCK:   -9.48 KCAL/MOL
REMARK 923 INTER-LIGAND FREE ENERGY PREDICTED BY IDOCK:   -6.83 KCAL/MOL
REMARK 924 INTRA-LIGAND FREE ENERGY PREDICTED BY IDOCK:   -2.65 KCAL/MOL
REMARK 927      BINDING AFFINITY PREDICTED BY RF-SCORE:    0.00 PKD
ROOT
HETATM    1  C   UNL     1      -5.751  11.807  70.538  1.00  0.00    -0.150 C  
HETATM    2  C   UNL     1      -6.395  11.204  69.303  1.00  0.00    -0.076 C  
ENDROOT
BRANCH   2   3
HETATM    3  C   UNL     1      -6.372   9.685  69.156  1.00  0.00    -0.041 C  
HETATM    4  O   UNL     1      -5.372   9.016  69.395  1.00  0.00    -0.035 OA 
BRANCH   3   5
HETATM    5  O   UNL     1      -7.588   9.170  68.851  1.00  0.00    -0.074 OA 
BRANCH   5   6
HETATM    6  C   UNL     1      -7.647   7.830  68.268  1.00  0.00    -0.109 C  
HETATM    7  C   UNL     1      -8.448   7.943  66.919  1.00  0.00    -0.128 C  
HETATM    8  C   UNL     1      -8.622   6.614  66.186  1.00  0.00    -0.148 C  
HETATM    9  C   UNL     1      -7.851   8.969  65.953  1.00  0.00    -0.102 C  
BRANCH   6  10
HETATM   10  O   UNL     1      -8.202   6.788  69.128  1.00  0.00    -0.118 OA 
BRANCH  10  11
HETATM   11  P   UNL     1      -8.625   7.216  70.681  1.00  0.00    -0.144 P  
HETATM   12  O   UNL     1      -7.248   6.771  71.230  1.00  0.00    -0.074 OA 
BRANCH  11  13
HETATM   13  C   UNL     1      -9.468   5.599  71.413  1.00  0.00    -0.147 C  
BRANCH  13  14
HETATM   14  C   UNL     1      -8.784   4.316  70.929  1.00  0.00    -0.124 C  
BRANCH  14  15
HETATM   15  C   UNL     1      -9.746   3.241  70.455  1.00  0.00    -0.125 C  
BRANCH  15  16
HETATM   16  C   UNL     1      -8.944   2.059  69.887  1.00  0.00    -0.144 C  
BRANCH  16  17
HETATM   17  C   UNL     1      -8.467   2.365  68.495  1.00  0.00    -0.094 A  
HETATM   18  C   UNL     1      -7.117   2.210  68.155  1.00  0.00    -0.047 A  
HETATM   19  C   UNL     1      -9.385   2.751  67.512  1.00  0.00    -0.201 A  
HETATM   20  C   UNL     1      -7.614   2.821  65.869  1.00  0.00    -0.073 A  
HETATM   21  C   UNL     1      -6.693   2.446  66.841  1.00  0.00    -0.040 A  
HETATM   22  C   UNL     1      -8.956   2.973  66.204  1.00  0.00    -0.150 A  
ENDBRANCH  16  17
ENDBRANCH  15  16
ENDBRANCH  14  15
ENDBRANCH  13  14
ENDBRANCH  11  13
BRANCH  11  23
HETATM   23  C   UNL     1     -10.253   7.744  70.032  1.00  0.00    -0.210 C  
BRANCH  23  24
HETATM   24  C   UNL     1     -10.768   9.072  70.618  1.00  0.00    -0.239 C  
HETATM   25  C   UNL     1     -11.447  11.477  70.423  1.00  0.00     0.028 C  
HETATM   26  O   UNL     1     -10.885   9.196  71.843  1.00  0.00    -0.359 OA 
HETATM   27  N   UNL     1     -11.163  10.140  69.842  1.00  0.00    -0.270 N  
HETATM   28  C   UNL     1     -12.747  11.675  71.251  1.00  0.00    -0.340 C  
HETATM   29  O   UNL     1     -13.345  12.743  71.338  1.00  0.00    -0.231 OA 
HETATM   30  C   UNL     1     -11.615  10.124  68.465  1.00  0.00     0.087 C  
HETATM   31  C   UNL     1     -11.421  11.558  67.939  1.00  0.00    -0.372 C  
HETATM   32  O   UNL     1     -13.116  10.610  71.994  1.00  0.00    -0.481 OA 
HETATM   33  C   UNL     1     -11.471  12.429  69.212  1.00  0.00    -0.349 C  
BRANCH  31  34
HETATM   34  C   UNL     1     -10.123  11.818  67.114  1.00  0.00    -0.224 C  
HETATM   35  C   UNL     1     -11.252  12.523  64.952  1.00  0.00    -0.344 C  
HETATM   36  C   UNL     1     -10.777  13.963  65.106  1.00  0.00    -0.371 C  
HETATM   37  C   UNL     1     -10.430  14.326  66.548  1.00  0.00    -0.287 C  
HETATM   38  C   UNL     1     -10.268  11.559  65.605  1.00  0.00    -0.292 C  
HETATM   39  C   UNL     1      -9.591  13.265  67.272  1.00  0.00    -0.234 C  
ENDBRANCH  31  34
ENDBRANCH  23  24
ENDBRANCH  11  23
ENDBRANCH  10  11
ENDBRANCH   6  10
ENDBRANCH   5   6
ENDBRANCH   3   5
ENDBRANCH   2   3
TORSDOF 13
ENDMDL
MODEL      182
REMARK 921   NORMALIZED FREE ENERGY PREDICTED BY IDOCK:   -3.99 KCAL/MOL
REMARK 922        TOTAL FREE ENERGY PREDICTED BY IDOCK:   -9.48 KCAL/MOL
REMARK 923 INTER-LIGAND FREE ENERGY PREDICTED BY IDOCK:   -7.64 KCAL/MOL
REMARK 924 INTRA-LIGAND FREE ENERGY PREDICTED BY IDOCK:   -1.84 KCAL/MOL
REMARK 927      BINDING AFFINITY PREDICTED BY RF-SCORE:    0.00 PKD
ROOT
HETATM    1  C   UNL     1     -10.981   7.978  72.761  1.00  0.00    -0.449 C  
HETATM    2  C   UNL     1      -9.692   8.585  72.239  1.00  0.00    -0.380 C  
ENDROOT
BRANCH   2   3
HETATM    3  C   UNL     1      -9.634   8.980  70.766  1.00  0.00    -0.249 C  
HETATM    4  O   UNL     1     -10.078  10.046  70.353  1.00  0.00    -0.247 OA 
BRANCH   3   5
HETATM    5  O   UNL     1      -8.948   8.087  70.010  1.00  0.00    -0.142 OA 
BRANCH   5   6
HETATM    6  C   UNL     1      -7.825   8.575  69.210  1.00  0.00    -0.099 C  
HETATM    7  C   UNL     1      -6.622   8.817  70.193  1.00  0.00    -0.039 C  
HETATM    8  C   UNL     1      -5.363   9.355  69.514  1.00  0.00    -0.035 C  
HETATM    9  C   UNL     1      -6.255   7.576  71.008  1.00  0.00    -0.035 C  
BRANCH   6  10
HETATM   10  O   UNL     1      -8.093   9.759  68.397  1.00  0.00    -0.102 OA 
BRANCH  10  11
HETATM   11  P   UNL     1      -8.594   9.517  66.827  1.00  0.00    -0.128 P  
HETATM   12  O   UNL     1      -9.849   8.742  67.297  1.00  0.00    -0.172 OA 
BRANCH  11  13
HETATM   13  C   UNL     1      -7.724   7.835  66.298  1.00  0.00    -0.089 C  
BRANCH  13  14
HETATM   14  C   UNL     1      -8.613   6.981  65.388  1.00  0.00    -0.048 C  
BRANCH  14  15
HETATM   15  C   UNL     1      -8.996   5.636  65.979  1.00  0.00    -0.158 C  
BRANCH  15  16
HETATM   16  C   UNL     1      -8.007   5.275  67.099  1.00  0.00    -0.101 C  
BRANCH  16  17
HETATM   17  C   UNL     1      -8.718   5.181  68.420  1.00  0.00    -0.104 A  
HETATM   18  C   UNL     1     -10.083   5.482  68.518  1.00  0.00    -0.240 A  
HETATM   19  C   UNL     1      -8.029   4.730  69.552  1.00  0.00    -0.066 A  
HETATM   20  C   UNL     1     -10.056   4.882  70.860  1.00  0.00    -0.292 A  
HETATM   21  C   UNL     1     -10.747   5.338  69.742  1.00  0.00    -0.179 A  
HETATM   22  C   UNL     1      -8.701   4.579  70.765  1.00  0.00    -0.124 A  
ENDBRANCH  16  17
ENDBRANCH  15  16
ENDBRANCH  14  15
ENDBRANCH  13  14
ENDBRANCH  11  13
BRANCH  11  23
HETATM   23  C   UNL     1      -7.110  10.432  66.272  1.00  0.00    -0.123 C  
BRANCH  23  24
HETATM   24  C   UNL     1      -6.926  11.807  66.943  1.00  0.00    -0.101 C  
HETATM   25  C   UNL     1      -7.666  14.141  67.475  1.00  0.00    -0.185 C  
HETATM   26  O   UNL     1      -5.849  12.083  67.486  1.00  0.00    -0.079 OA 
HETATM   27  N   UNL     1      -7.926  12.751  67.022  1.00  0.00    -0.096 N  
HETATM   28  C   UNL     1      -7.386  14.400  68.981  1.00  0.00    -0.127 C  
HETATM   29  O   UNL     1      -7.659  15.449  69.556  1.00  0.00    -0.213 OA 
HETATM   30  C   UNL     1      -9.359  12.543  66.954  1.00  0.00    -0.219 C  
HETATM   31  C   UNL     1      -9.967  13.903  66.566  1.00  0.00    -0.288 C  
HETATM   32  O   UNL     1      -6.687  13.428  69.605  1.00  0.00    -0.059 OA 
HETATM   33  C   UNL     1      -8.922  14.929  67.054  1.00  0.00    -0.256 C  
BRANCH  31  34
HETATM   34  C   UNL     1     -10.306  14.099  65.056  1.00  0.00    -0.443 C  
HETATM   35  C   UNL     1     -11.411  11.845  64.680  1.00  0.00    -0.355 C  
HETATM   36  C   UNL     1     -12.783  12.483  64.497  1.00  0.00    -0.440 C  
HETATM   37  C   UNL     1     -12.883  13.871  65.127  1.00  0.00    -0.383 C  
HETATM   38  C   UNL     1     -10.310  12.800  64.233  1.00  0.00    -0.402 C  
HETATM   39  C   UNL     1     -11.681  14.777  64.832  1.00  0.00    -0.390 C  
ENDBRANCH  31  34
ENDBRANCH  23  24
ENDBRANCH  11  23
ENDBRANCH  10  11
ENDBRANCH   6  10
ENDBRANCH   5   6
ENDBRANCH   3   5
ENDBRANCH   2   3
TORSDOF 13
ENDMDL
MODEL      183
REMARK 921   NORMALIZED FREE ENERGY PREDICTED BY IDOCK:   -3.97 KCAL/MOL
REMARK 922        TOTAL FREE ENERGY PREDICTED BY IDOCK:   -9.46 KCAL/MOL
REMARK 923 INTER-LIGAND FREE ENERGY PREDICTED BY IDOCK:   -7.32 KCAL/MOL
REMARK 924 INTRA-LIGAND FREE ENERGY PREDICTED BY IDOCK:   -2.14 KCAL/MOL
REMARK 927      BINDING AFFINITY PREDICTED BY RF-SCORE:    0.00 PKD
ROOT
HETATM    1  C   UNL     1      -7.079  10.049  62.990  1.00  0.00    -0.129 C  
HETATM    2  C   UNL     1      -6.262   9.543  64.165  1.00  0.00    -0.097 C  
ENDROOT
BRANCH   2   3
HETATM    3  C   UNL     1      -6.998   9.231  65.465  1.00  0.00    -0.082 C  
HETATM    4  O   UNL     1      -6.707   8.271  66.172  1.00  0.00    -0.053 OA 
BRANCH   3   5
HETATM    5  O   UNL     1      -7.907  10.182  65.794  1.00  0.00    -0.126 OA 
BRANCH   5   6
HETATM    6  C   UNL     1      -8.265  10.340  67.203  1.00  0.00    -0.121 C  
HETATM    7  C   UNL     1      -7.028  10.983  67.929  1.00  0.00    -0.073 C  
HETATM    8  C   UNL     1      -7.230  11.198  69.429  1.00  0.00    -0.091 C  
HETATM    9  C   UNL     1      -6.579  12.301  67.295  1.00  0.00    -0.146 C  
BRANCH   6  10
HETATM   10  O   UNL     1      -8.709   9.128  67.885  1.00  0.00    -0.128 OA 
BRANCH  10  11
HETATM   11  P   UNL     1     -10.349   8.842  67.957  1.00  0.00    -0.174 P  
HETATM   12  O   UNL     1     -10.388   8.418  66.469  1.00  0.00    -0.285 OA 
BRANCH  11  13
HETATM   13  C   UNL     1     -11.159  10.576  67.510  1.00  0.00    -0.290 C  
BRANCH  13  14
HETATM   14  C   UNL     1     -11.259  11.503  68.726  1.00  0.00    -0.309 C  
BRANCH  14  15
HETATM   15  C   UNL     1     -11.712  12.914  68.395  1.00  0.00    -0.382 C  
BRANCH  15  16
HETATM   16  C   UNL     1     -11.288  13.860  69.530  1.00  0.00    -0.293 C  
BRANCH  16  17
HETATM   17  C   UNL     1     -10.285  14.863  69.033  1.00  0.00    -0.243 A  
HETATM   18  C   UNL     1      -9.387  14.527  68.012  1.00  0.00    -0.201 A  
HETATM   19  C   UNL     1     -10.285  16.164  69.550  1.00  0.00    -0.261 A  
HETATM   20  C   UNL     1      -8.505  16.778  68.034  1.00  0.00    -0.205 A  
HETATM   21  C   UNL     1      -8.493  15.486  67.520  1.00  0.00    -0.188 A  
HETATM   22  C   UNL     1      -9.399  17.116  69.046  1.00  0.00    -0.143 A  
ENDBRANCH  16  17
ENDBRANCH  15  16
ENDBRANCH  14  15
ENDBRANCH  13  14
ENDBRANCH  11  13
BRANCH  11  23
HETATM   23  C   UNL     1     -10.302   9.343  69.716  1.00  0.00    -0.223 C  
BRANCH  23  24
HETATM   24  C   UNL     1     -10.809   8.267  70.695  1.00  0.00    -0.236 C  
HETATM   25  C   UNL     1     -10.975   5.905  71.517  1.00  0.00    -0.262 C  
HETATM   26  O   UNL     1     -11.661   8.563  71.542  1.00  0.00    -0.269 OA 
HETATM   27  N   UNL     1     -10.326   6.977  70.721  1.00  0.00    -0.205 N  
HETATM   28  C   UNL     1     -10.830   5.926  73.064  1.00  0.00    -0.267 C  
HETATM   29  O   UNL     1     -10.845   4.919  73.765  1.00  0.00    -0.275 OA 
HETATM   30  C   UNL     1      -9.044   6.494  70.247  1.00  0.00    -0.155 C  
HETATM   31  C   UNL     1      -9.217   4.981  70.023  1.00  0.00    -0.182 C  
HETATM   32  O   UNL     1     -10.817   7.157  73.618  1.00  0.00    -0.352 OA 
HETATM   33  C   UNL     1     -10.372   4.596  70.972  1.00  0.00    -0.143 C  
BRANCH  31  34
HETATM   34  C   UNL     1      -9.502   4.531  68.557  1.00  0.00    -0.213 C  
HETATM   35  C   UNL     1      -7.181   4.970  67.628  1.00  0.00    -0.070 C  
HETATM   36  C   UNL     1      -6.910   3.481  67.442  1.00  0.00    -0.046 C  
HETATM   37  C   UNL     1      -7.793   2.601  68.325  1.00  0.00    -0.056 C  
HETATM   38  C   UNL     1      -8.670   5.267  67.494  1.00  0.00    -0.106 C  
HETATM   39  C   UNL     1      -9.270   3.014  68.338  1.00  0.00    -0.242 C  
ENDBRANCH  31  34
ENDBRANCH  23  24
ENDBRANCH  11  23
ENDBRANCH  10  11
ENDBRANCH   6  10
ENDBRANCH   5   6
ENDBRANCH   3   5
ENDBRANCH   2   3
TORSDOF 13
ENDMDL
MODEL      184
REMARK 921   NORMALIZED FREE ENERGY PREDICTED BY IDOCK:   -3.92 KCAL/MOL
REMARK 922        TOTAL FREE ENERGY PREDICTED BY IDOCK:   -9.37 KCAL/MOL
REMARK 923 INTER-LIGAND FREE ENERGY PREDICTED BY IDOCK:   -6.94 KCAL/MOL
REMARK 924 INTRA-LIGAND FREE ENERGY PREDICTED BY IDOCK:   -2.43 KCAL/MOL
REMARK 927      BINDING AFFINITY PREDICTED BY RF-SCORE:    0.00 PKD
ROOT
HETATM    1  C   UNL     1     -12.046  14.557  68.209  1.00  0.00    -0.234 C  
HETATM    2  C   UNL     1     -11.589  13.109  68.193  1.00  0.00    -0.375 C  
ENDROOT
BRANCH   2   3
HETATM    3  C   UNL     1     -11.223  12.491  66.846  1.00  0.00    -0.303 C  
HETATM    4  O   UNL     1     -12.042  11.907  66.146  1.00  0.00    -0.519 OA 
BRANCH   3   5
HETATM    5  O   UNL     1      -9.947  12.762  66.476  1.00  0.00    -0.241 OA 
BRANCH   5   6
HETATM    6  C   UNL     1      -8.862  12.070  67.171  1.00  0.00    -0.188 C  
HETATM    7  C   UNL     1      -7.739  13.133  67.457  1.00  0.00    -0.168 C  
HETATM    8  C   UNL     1      -6.511  12.564  68.166  1.00  0.00    -0.076 C  
HETATM    9  C   UNL     1      -8.246  14.346  68.239  1.00  0.00    -0.149 C  
BRANCH   6  10
HETATM   10  O   UNL     1      -8.320  10.896  66.492  1.00  0.00    -0.143 OA 
BRANCH  10  11
HETATM   11  P   UNL     1      -8.170   9.495  67.381  1.00  0.00    -0.113 P  
HETATM   12  O   UNL     1      -7.250   8.859  66.310  1.00  0.00    -0.084 OA 
BRANCH  11  13
HETATM   13  C   UNL     1      -9.676   8.382  66.783  1.00  0.00    -0.242 C  
BRANCH  13  14
HETATM   14  C   UNL     1      -9.271   6.919  66.572  1.00  0.00    -0.195 C  
BRANCH  14  15
HETATM   15  C   UNL     1     -10.424   5.936  66.672  1.00  0.00    -0.310 C  
BRANCH  15  16
HETATM   16  C   UNL     1      -9.868   4.503  66.671  1.00  0.00    -0.244 C  
BRANCH  16  17
HETATM   17  C   UNL     1      -9.701   4.003  65.263  1.00  0.00    -0.197 A  
HETATM   18  C   UNL     1      -8.425   3.753  64.742  1.00  0.00    -0.104 A  
HETATM   19  C   UNL     1     -10.830   3.724  64.484  1.00  0.00    -0.073 A  
HETATM   20  C   UNL     1      -9.411   2.955  62.685  1.00  0.00    -0.092 A  
HETATM   21  C   UNL     1      -8.285   3.236  63.449  1.00  0.00    -0.085 A  
HETATM   22  C   UNL     1     -10.681   3.198  63.201  1.00  0.00    -0.225 A  
ENDBRANCH  16  17
ENDBRANCH  15  16
ENDBRANCH  14  15
ENDBRANCH  13  14
ENDBRANCH  11  13
BRANCH  11  23
HETATM   23  C   UNL     1      -9.256  10.247  68.646  1.00  0.00    -0.159 C  
BRANCH  23  24
HETATM   24  C   UNL     1     -10.385   9.323  69.142  1.00  0.00    -0.211 C  
HETATM   25  C   UNL     1     -11.243   7.174  70.105  1.00  0.00    -0.262 C  
HETATM   26  O   UNL     1     -11.565   9.651  68.965  1.00  0.00     0.107 OA 
HETATM   27  N   UNL     1     -10.159   8.151  69.829  1.00  0.00    -0.193 N  
HETATM   28  C   UNL     1     -12.315   7.523  71.173  1.00  0.00    -0.291 C  
HETATM   29  O   UNL     1     -12.910   6.685  71.843  1.00  0.00    -0.328 OA 
HETATM   30  C   UNL     1      -8.990   7.781  70.603  1.00  0.00    -0.145 C  
HETATM   31  C   UNL     1      -9.015   6.245  70.701  1.00  0.00    -0.144 C  
HETATM   32  O   UNL     1     -12.658   8.828  71.229  1.00  0.00    -0.306 OA 
HETATM   33  C   UNL     1     -10.508   5.888  70.530  1.00  0.00    -0.319 C  
BRANCH  31  34
HETATM   34  C   UNL     1      -8.118   5.476  69.683  1.00  0.00    -0.101 C  
HETATM   35  C   UNL     1      -6.193   4.981  71.262  1.00  0.00    -0.022 C  
HETATM   36  C   UNL     1      -6.504   3.488  71.266  1.00  0.00    -0.019 C  
HETATM   37  C   UNL     1      -7.945   3.179  70.865  1.00  0.00    -0.057 C  
HETATM   38  C   UNL     1      -6.608   5.613  69.938  1.00  0.00    -0.046 C  
HETATM   39  C   UNL     1      -8.430   3.958  69.636  1.00  0.00    -0.087 C  
ENDBRANCH  31  34
ENDBRANCH  23  24
ENDBRANCH  11  23
ENDBRANCH  10  11
ENDBRANCH   6  10
ENDBRANCH   5   6
ENDBRANCH   3   5
ENDBRANCH   2   3
TORSDOF 13
ENDMDL
MODEL      185
REMARK 921   NORMALIZED FREE ENERGY PREDICTED BY IDOCK:   -3.91 KCAL/MOL
REMARK 922        TOTAL FREE ENERGY PREDICTED BY IDOCK:   -9.35 KCAL/MOL
REMARK 923 INTER-LIGAND FREE ENERGY PREDICTED BY IDOCK:   -7.52 KCAL/MOL
REMARK 924 INTRA-LIGAND FREE ENERGY PREDICTED BY IDOCK:   -1.83 KCAL/MOL
REMARK 927      BINDING AFFINITY PREDICTED BY RF-SCORE:    0.00 PKD
ROOT
HETATM    1  C   UNL     1      -8.461   9.019  63.096  1.00  0.00    -0.185 C  
HETATM    2  C   UNL     1      -8.114   8.264  64.367  1.00  0.00    -0.145 C  
ENDROOT
BRANCH   2   3
HETATM    3  C   UNL     1      -8.866   8.633  65.643  1.00  0.00    -0.187 C  
HETATM    4  O   UNL     1     -10.001   9.099  65.627  1.00  0.00    -0.232 OA 
BRANCH   3   5
HETATM    5  O   UNL     1      -8.194   8.283  66.767  1.00  0.00    -0.101 OA 
BRANCH   5   6
HETATM    6  C   UNL     1      -8.412   9.072  67.980  1.00  0.00    -0.125 C  
HETATM    7  C   UNL     1      -7.335  10.216  67.993  1.00  0.00    -0.086 C  
HETATM    8  C   UNL     1      -7.410  11.127  69.217  1.00  0.00    -0.097 C  
HETATM    9  C   UNL     1      -7.361  11.079  66.730  1.00  0.00    -0.139 C  
BRANCH   6  10
HETATM   10  O   UNL     1      -8.405   8.322  69.233  1.00  0.00    -0.119 OA 
BRANCH  10  11
HETATM   11  P   UNL     1      -9.877   7.859  69.861  1.00  0.00    -0.186 P  
HETATM   12  O   UNL     1      -9.220   6.737  70.700  1.00  0.00    -0.155 OA 
BRANCH  11  13
HETATM   13  C   UNL     1     -10.553   6.534  68.575  1.00  0.00    -0.244 C  
BRANCH  13  14
HETATM   14  C   UNL     1      -9.880   5.167  68.740  1.00  0.00    -0.235 C  
BRANCH  14  15
HETATM   15  C   UNL     1      -9.473   4.515  67.431  1.00  0.00    -0.189 C  
BRANCH  15  16
HETATM   16  C   UNL     1     -10.469   4.920  66.332  1.00  0.00    -0.325 C  
BRANCH  16  17
HETATM   17  C   UNL     1     -10.408   3.954  65.183  1.00  0.00    -0.077 A  
HETATM   18  C   UNL     1     -11.227   4.130  64.060  1.00  0.00     0.377 A  
HETATM   19  C   UNL     1      -9.485   2.902  65.203  1.00  0.00    -0.083 A  
HETATM   20  C   UNL     1     -10.199   2.218  62.998  1.00  0.00    -0.121 A  
HETATM   21  C   UNL     1     -11.124   3.255  62.972  1.00  0.00     0.008 A  
HETATM   22  C   UNL     1      -9.381   2.042  64.111  1.00  0.00    -0.126 A  
ENDBRANCH  16  17
ENDBRANCH  15  16
ENDBRANCH  14  15
ENDBRANCH  13  14
ENDBRANCH  11  13
BRANCH  11  23
HETATM   23  C   UNL     1     -10.655   9.186  68.869  1.00  0.00    -0.191 C  
BRANCH  23  24
HETATM   24  C   UNL     1     -10.996  10.457  69.668  1.00  0.00    -0.277 C  
HETATM   25  C   UNL     1     -11.374  12.926  69.871  1.00  0.00     0.039 C  
HETATM   26  O   UNL     1     -11.088  10.398  70.901  1.00  0.00    -0.264 OA 
HETATM   27  N   UNL     1     -11.262  11.674  69.080  1.00  0.00    -0.246 N  
HETATM   28  C   UNL     1     -12.633  13.147  70.755  1.00  0.00    -0.260 C  
HETATM   29  O   UNL     1     -13.094  14.251  71.024  1.00  0.00    -0.345 OA 
HETATM   30  C   UNL     1     -11.723  11.932  67.730  1.00  0.00    -0.292 C  
HETATM   31  C   UNL     1     -11.357  13.397  67.430  1.00  0.00    -0.338 C  
HETATM   32  O   UNL     1     -13.125  12.030  71.332  1.00  0.00    -0.344 OA 
HETATM   33  C   UNL     1     -11.289  14.055  68.825  1.00  0.00    -0.309 C  
BRANCH  31  34
HETATM   34  C   UNL     1     -10.043  13.625  66.621  1.00  0.00    -0.277 C  
HETATM   35  C   UNL     1     -10.891  15.519  65.159  1.00  0.00    -0.452 C  
HETATM   36  C   UNL     1      -9.985  16.534  65.848  1.00  0.00    -0.342 C  
HETATM   37  C   UNL     1      -9.542  16.088  67.240  1.00  0.00    -0.227 C  
HETATM   38  C   UNL     1     -10.262  14.131  65.185  1.00  0.00    -0.411 C  
HETATM   39  C   UNL     1      -9.081  14.627  67.308  1.00  0.00    -0.215 C  
ENDBRANCH  31  34
ENDBRANCH  23  24
ENDBRANCH  11  23
ENDBRANCH  10  11
ENDBRANCH   6  10
ENDBRANCH   5   6
ENDBRANCH   3   5
ENDBRANCH   2   3
TORSDOF 13
ENDMDL
MODEL      186
REMARK 921   NORMALIZED FREE ENERGY PREDICTED BY IDOCK:   -3.90 KCAL/MOL
REMARK 922        TOTAL FREE ENERGY PREDICTED BY IDOCK:   -9.33 KCAL/MOL
REMARK 923 INTER-LIGAND FREE ENERGY PREDICTED BY IDOCK:   -8.55 KCAL/MOL
REMARK 924 INTRA-LIGAND FREE ENERGY PREDICTED BY IDOCK:   -0.78 KCAL/MOL
REMARK 927      BINDING AFFINITY PREDICTED BY RF-SCORE:    0.00 PKD
ROOT
HETATM    1  C   UNL     1      -5.717   8.035  65.940  1.00  0.00    -0.037 C  
HETATM    2  C   UNL     1      -6.743   9.051  65.473  1.00  0.00    -0.072 C  
ENDROOT
BRANCH   2   3
HETATM    3  C   UNL     1      -8.218   8.739  65.712  1.00  0.00    -0.121 C  
HETATM    4  O   UNL     1      -9.120   9.430  65.253  1.00  0.00    -0.207 OA 
BRANCH   3   5
HETATM    5  O   UNL     1      -8.404   7.571  66.376  1.00  0.00    -0.115 OA 
BRANCH   5   6
HETATM    6  C   UNL     1      -9.199   7.591  67.604  1.00  0.00    -0.127 C  
HETATM    7  C   UNL     1     -10.298   6.475  67.466  1.00  0.00    -0.252 C  
HETATM    8  C   UNL     1     -11.237   6.376  68.667  1.00  0.00    -0.338 C  
HETATM    9  C   UNL     1      -9.713   5.090  67.179  1.00  0.00    -0.180 C  
BRANCH   6  10
HETATM   10  O   UNL     1      -9.793   8.878  67.954  1.00  0.00    -0.156 OA 
BRANCH  10  11
HETATM   11  P   UNL     1      -9.217   9.646  69.316  1.00  0.00    -0.209 P  
HETATM   12  O   UNL     1      -8.663   8.318  69.888  1.00  0.00    -0.131 OA 
BRANCH  11  13
HETATM   13  C   UNL     1     -10.726   9.586  70.575  1.00  0.00    -0.298 C  
BRANCH  13  14
HETATM   14  C   UNL     1     -10.449   8.670  71.772  1.00  0.00    -0.394 C  
BRANCH  14  15
HETATM   15  C   UNL     1     -11.695   8.234  72.521  1.00  0.00    -0.451 C  
BRANCH  15  16
HETATM   16  C   UNL     1     -12.028   6.781  72.146  1.00  0.00    -0.309 C  
BRANCH  16  17
HETATM   17  C   UNL     1     -10.947   5.852  72.621  1.00  0.00    -0.305 A  
HETATM   18  C   UNL     1     -10.325   6.056  73.860  1.00  0.00    -0.293 A  
HETATM   19  C   UNL     1     -10.597   4.737  71.851  1.00  0.00    -0.150 A  
HETATM   20  C   UNL     1      -9.021   4.045  73.548  1.00  0.00    -0.099 A  
HETATM   21  C   UNL     1      -9.357   5.154  74.316  1.00  0.00    -0.125 A  
HETATM   22  C   UNL     1      -9.640   3.837  72.319  1.00  0.00    -0.205 A  
ENDBRANCH  16  17
ENDBRANCH  15  16
ENDBRANCH  14  15
ENDBRANCH  13  14
ENDBRANCH  11  13
BRANCH  11  23
HETATM   23  C   UNL     1      -9.873  11.215  68.641  1.00  0.00    -0.202 C  
BRANCH  23  24
HETATM   24  C   UNL     1      -8.799  12.147  68.050  1.00  0.00    -0.181 C  
HETATM   25  C   UNL     1      -8.066  14.225  66.854  1.00  0.00     0.083 C  
HETATM   26  O   UNL     1      -7.622  11.768  67.994  1.00  0.00    -0.102 OA 
HETATM   27  N   UNL     1      -9.062  13.428  67.614  1.00  0.00    -0.192 N  
HETATM   28  C   UNL     1      -6.832  14.799  67.603  1.00  0.00    -0.182 C  
HETATM   29  O   UNL     1      -6.252  15.829  67.276  1.00  0.00    -0.273 OA 
HETATM   30  C   UNL     1     -10.154  14.297  68.005  1.00  0.00    -0.227 C  
HETATM   31  C   UNL     1     -10.286  15.343  66.884  1.00  0.00    -0.273 C  
HETATM   32  O   UNL     1      -6.343  14.007  68.582  1.00  0.00    -0.080 OA 
HETATM   33  C   UNL     1      -8.877  15.390  66.254  1.00  0.00    -0.302 C  
BRANCH  31  34
HETATM   34  C   UNL     1     -11.387  15.069  65.813  1.00  0.00    -0.279 C  
HETATM   35  C   UNL     1     -10.249  13.103  64.679  1.00  0.00    -0.327 C  
HETATM   36  C   UNL     1     -11.295  12.123  65.198  1.00  0.00    -0.379 C  
HETATM   37  C   UNL     1     -12.036  12.640  66.430  1.00  0.00    -0.425 C  
HETATM   38  C   UNL     1     -10.856  14.489  64.491  1.00  0.00    -0.239 C  
HETATM   39  C   UNL     1     -12.487  14.101  66.318  1.00  0.00    -0.395 C  
ENDBRANCH  31  34
ENDBRANCH  23  24
ENDBRANCH  11  23
ENDBRANCH  10  11
ENDBRANCH   6  10
ENDBRANCH   5   6
ENDBRANCH   3   5
ENDBRANCH   2   3
TORSDOF 13
ENDMDL
MODEL      187
REMARK 921   NORMALIZED FREE ENERGY PREDICTED BY IDOCK:   -3.89 KCAL/MOL
REMARK 922        TOTAL FREE ENERGY PREDICTED BY IDOCK:   -9.31 KCAL/MOL
REMARK 923 INTER-LIGAND FREE ENERGY PREDICTED BY IDOCK:   -7.58 KCAL/MOL
REMARK 924 INTRA-LIGAND FREE ENERGY PREDICTED BY IDOCK:   -1.73 KCAL/MOL
REMARK 927      BINDING AFFINITY PREDICTED BY RF-SCORE:    0.00 PKD
ROOT
HETATM    1  C   UNL     1      -6.078   7.123  66.358  1.00  0.00    -0.036 C  
HETATM    2  C   UNL     1      -7.103   8.181  66.723  1.00  0.00    -0.077 C  
ENDROOT
BRANCH   2   3
HETATM    3  C   UNL     1      -7.804   8.918  65.585  1.00  0.00    -0.096 C  
HETATM    4  O   UNL     1      -7.215   9.700  64.846  1.00  0.00    -0.106 OA 
BRANCH   3   5
HETATM    5  O   UNL     1      -9.091   8.525  65.421  1.00  0.00    -0.152 OA 
BRANCH   5   6
HETATM    6  C   UNL     1      -9.825   8.049  66.593  1.00  0.00    -0.252 C  
HETATM    7  C   UNL     1     -10.234   6.557  66.313  1.00  0.00     0.082 C  
HETATM    8  C   UNL     1     -11.036   5.910  67.441  1.00  0.00    -0.258 C  
HETATM    9  C   UNL     1      -9.040   5.662  65.975  1.00  0.00    -0.164 C  
BRANCH   6  10
HETATM   10  O   UNL     1     -10.981   8.850  66.986  1.00  0.00    -0.086 OA 
BRANCH  10  11
HETATM   11  P   UNL     1     -10.791   9.898  68.268  1.00  0.00    -0.153 P  
HETATM   12  O   UNL     1     -11.694  10.960  67.595  1.00  0.00    -0.566 OA 
BRANCH  11  13
HETATM   13  C   UNL     1      -9.186  10.935  67.807  1.00  0.00    -0.153 C  
BRANCH  13  14
HETATM   14  C   UNL     1      -9.518  12.192  66.996  1.00  0.00    -0.201 C  
BRANCH  14  15
HETATM   15  C   UNL     1      -9.234  13.494  67.725  1.00  0.00    -0.213 C  
BRANCH  15  16
HETATM   16  C   UNL     1     -10.426  14.447  67.541  1.00  0.00    -0.252 C  
BRANCH  16  17
HETATM   17  C   UNL     1     -11.190  14.591  68.827  1.00  0.00    -0.281 A  
HETATM   18  C   UNL     1     -11.247  15.826  69.487  1.00  0.00    -0.317 A  
HETATM   19  C   UNL     1     -11.901  13.501  69.342  1.00  0.00    -0.389 A  
HETATM   20  C   UNL     1     -12.716  14.876  71.155  1.00  0.00    -0.411 A  
HETATM   21  C   UNL     1     -12.006  15.962  70.656  1.00  0.00    -0.379 A  
HETATM   22  C   UNL     1     -12.664  13.649  70.500  1.00  0.00    -0.260 A  
ENDBRANCH  16  17
ENDBRANCH  15  16
ENDBRANCH  14  15
ENDBRANCH  13  14
ENDBRANCH  11  13
BRANCH  11  23
HETATM   23  C   UNL     1      -9.724   8.642  69.063  1.00  0.00    -0.173 C  
BRANCH  23  24
HETATM   24  C   UNL     1     -10.428   7.811  70.152  1.00  0.00    -0.231 C  
HETATM   25  C   UNL     1     -10.755   5.721  71.496  1.00  0.00    -0.258 C  
HETATM   26  O   UNL     1     -11.451   8.252  70.692  1.00  0.00    -0.274 OA 
HETATM   27  N   UNL     1      -9.952   6.602  70.610  1.00  0.00    -0.183 N  
HETATM   28  C   UNL     1     -10.959   6.133  72.980  1.00  0.00    -0.249 C  
HETATM   29  O   UNL     1     -11.123   5.332  73.895  1.00  0.00    -0.231 OA 
HETATM   30  C   UNL     1      -8.593   6.101  70.561  1.00  0.00    -0.138 C  
HETATM   31  C   UNL     1      -8.699   4.572  70.700  1.00  0.00    -0.127 C  
HETATM   32  O   UNL     1     -11.080   7.461  73.189  1.00  0.00    -0.353 OA 
HETATM   33  C   UNL     1     -10.034   4.360  71.446  1.00  0.00    -0.248 C  
BRANCH  31  34
HETATM   34  C   UNL     1      -8.645   3.756  69.372  1.00  0.00    -0.113 C  
HETATM   35  C   UNL     1      -6.127   3.445  69.286  1.00  0.00    -0.028 C  
HETATM   36  C   UNL     1      -6.244   1.948  69.550  1.00  0.00    -0.025 C  
HETATM   37  C   UNL     1      -7.562   1.563  70.220  1.00  0.00    -0.036 C  
HETATM   38  C   UNL     1      -7.360   3.961  68.552  1.00  0.00    -0.055 C  
HETATM   39  C   UNL     1      -8.795   2.230  69.598  1.00  0.00    -0.139 C  
ENDBRANCH  31  34
ENDBRANCH  23  24
ENDBRANCH  11  23
ENDBRANCH  10  11
ENDBRANCH   6  10
ENDBRANCH   5   6
ENDBRANCH   3   5
ENDBRANCH   2   3
TORSDOF 13
ENDMDL
MODEL      188
REMARK 921   NORMALIZED FREE ENERGY PREDICTED BY IDOCK:   -3.87 KCAL/MOL
REMARK 922        TOTAL FREE ENERGY PREDICTED BY IDOCK:   -9.28 KCAL/MOL
REMARK 923 INTER-LIGAND FREE ENERGY PREDICTED BY IDOCK:   -9.17 KCAL/MOL
REMARK 924 INTRA-LIGAND FREE ENERGY PREDICTED BY IDOCK:   -0.11 KCAL/MOL
REMARK 927      BINDING AFFINITY PREDICTED BY RF-SCORE:    0.00 PKD
ROOT
HETATM    1  C   UNL     1     -12.510  14.055  64.316  1.00  0.00    -0.303 C  
HETATM    2  C   UNL     1     -12.351  12.551  64.194  1.00  0.00    -0.548 C  
ENDROOT
BRANCH   2   3
HETATM    3  C   UNL     1     -10.950  12.001  63.934  1.00  0.00    -0.401 C  
HETATM    4  O   UNL     1     -10.105  12.625  63.302  1.00  0.00    -0.300 OA 
BRANCH   3   5
HETATM    5  O   UNL     1     -10.723  10.825  64.571  1.00  0.00    -0.297 OA 
BRANCH   5   6
HETATM    6  C   UNL     1      -9.693  10.786  65.607  1.00  0.00    -0.237 C  
HETATM    7  C   UNL     1      -8.547   9.842  65.091  1.00  0.00    -0.173 C  
HETATM    8  C   UNL     1      -7.390   9.672  66.074  1.00  0.00    -0.099 C  
HETATM    9  C   UNL     1      -7.985  10.268  63.733  1.00  0.00    -0.128 C  
BRANCH   6  10
HETATM   10  O   UNL     1     -10.146  10.390  66.938  1.00  0.00    -0.201 OA 
BRANCH  10  11
HETATM   11  P   UNL     1     -10.228  11.575  68.107  1.00  0.00    -0.207 P  
HETATM   12  O   UNL     1     -11.349  12.319  67.342  1.00  0.00    -0.283 OA 
BRANCH  11  13
HETATM   13  C   UNL     1      -8.910  12.914  67.528  1.00  0.00    -0.192 C  
BRANCH  13  14
HETATM   14  C   UNL     1      -9.546  14.035  66.698  1.00  0.00    -0.299 C  
BRANCH  14  15
HETATM   15  C   UNL     1      -9.693  15.350  67.442  1.00  0.00    -0.215 C  
BRANCH  15  16
HETATM   16  C   UNL     1     -10.491  16.336  66.574  1.00  0.00    -0.290 C  
BRANCH  16  17
HETATM   17  C   UNL     1      -9.891  17.712  66.652  1.00  0.00    -0.309 A  
HETATM   18  C   UNL     1     -10.705  18.833  66.862  1.00  0.00    -0.406 A  
HETATM   19  C   UNL     1      -8.503  17.873  66.574  1.00  0.00    -0.284 A  
HETATM   20  C   UNL     1      -8.750  20.253  66.916  1.00  0.00    -0.385 A  
HETATM   21  C   UNL     1     -10.130  20.103  66.987  1.00  0.00    -0.599 A  
HETATM   22  C   UNL     1      -7.939  19.141  66.710  1.00  0.00    -0.281 A  
ENDBRANCH  16  17
ENDBRANCH  15  16
ENDBRANCH  14  15
ENDBRANCH  13  14
ENDBRANCH  11  13
BRANCH  11  23
HETATM   23  C   UNL     1      -8.902  10.694  69.011  1.00  0.00    -0.148 C  
BRANCH  23  24
HETATM   24  C   UNL     1      -9.412   9.681  70.053  1.00  0.00    -0.240 C  
HETATM   25  C   UNL     1      -9.592   7.372  71.010  1.00  0.00    -0.161 C  
HETATM   26  O   UNL     1     -10.256  10.032  70.886  1.00  0.00    -0.112 OA 
HETATM   27  N   UNL     1      -8.939   8.390  70.150  1.00  0.00    -0.140 N  
HETATM   28  C   UNL     1      -9.436   7.480  72.553  1.00  0.00    -0.159 C  
HETATM   29  O   UNL     1      -9.455   6.515  73.310  1.00  0.00    -0.140 OA 
HETATM   30  C   UNL     1      -7.664   7.870  69.696  1.00  0.00    -0.103 C  
HETATM   31  C   UNL     1      -7.851   6.348  69.561  1.00  0.00    -0.101 C  
HETATM   32  O   UNL     1      -9.410   8.741  73.034  1.00  0.00    -0.204 OA 
HETATM   33  C   UNL     1      -9.003   6.029  70.538  1.00  0.00    -0.150 C  
BRANCH  31  34
HETATM   34  C   UNL     1      -8.150   5.818  68.125  1.00  0.00    -0.104 C  
HETATM   35  C   UNL     1     -10.587   5.219  68.504  1.00  0.00    -0.084 C  
HETATM   36  C   UNL     1     -11.065   6.339  67.587  1.00  0.00    -0.368 C  
HETATM   37  C   UNL     1     -10.029   7.448  67.411  1.00  0.00    -0.239 C  
HETATM   38  C   UNL     1      -9.218   4.713  68.066  1.00  0.00    -0.158 C  
HETATM   39  C   UNL     1      -8.607   6.936  67.154  1.00  0.00    -0.121 C  
ENDBRANCH  31  34
ENDBRANCH  23  24
ENDBRANCH  11  23
ENDBRANCH  10  11
ENDBRANCH   6  10
ENDBRANCH   5   6
ENDBRANCH   3   5
ENDBRANCH   2   3
TORSDOF 13
ENDMDL
MODEL      189
REMARK 921   NORMALIZED FREE ENERGY PREDICTED BY IDOCK:   -3.86 KCAL/MOL
REMARK 922        TOTAL FREE ENERGY PREDICTED BY IDOCK:   -9.25 KCAL/MOL
REMARK 923 INTER-LIGAND FREE ENERGY PREDICTED BY IDOCK:   -7.57 KCAL/MOL
REMARK 924 INTRA-LIGAND FREE ENERGY PREDICTED BY IDOCK:   -1.68 KCAL/MOL
REMARK 927      BINDING AFFINITY PREDICTED BY RF-SCORE:    0.00 PKD
ROOT
HETATM    1  C   UNL     1      -9.255   2.043  68.229  1.00  0.00    -0.235 C  
HETATM    2  C   UNL     1      -8.680   3.387  67.823  1.00  0.00    -0.132 C  
ENDROOT
BRANCH   2   3
HETATM    3  C   UNL     1      -8.968   3.889  66.410  1.00  0.00    -0.133 C  
HETATM    4  O   UNL     1     -10.107   3.999  65.970  1.00  0.00    -0.171 OA 
BRANCH   3   5
HETATM    5  O   UNL     1      -7.849   4.297  65.761  1.00  0.00    -0.092 OA 
BRANCH   5   6
HETATM    6  C   UNL     1      -7.796   5.674  65.271  1.00  0.00    -0.100 C  
HETATM    7  C   UNL     1      -7.567   5.608  63.717  1.00  0.00    -0.074 C  
HETATM    8  C   UNL     1      -7.464   6.976  63.045  1.00  0.00    -0.094 C  
HETATM    9  C   UNL     1      -8.625   4.776  62.990  1.00  0.00    -0.120 C  
BRANCH   6  10
HETATM   10  O   UNL     1      -6.812   6.539  65.916  1.00  0.00    -0.050 OA 
BRANCH  10  11
HETATM   11  P   UNL     1      -7.350   7.544  67.132  1.00  0.00    -0.098 P  
HETATM   12  O   UNL     1      -7.218   6.417  68.185  1.00  0.00    -0.080 OA 
BRANCH  11  13
HETATM   13  C   UNL     1      -9.304   7.326  67.107  1.00  0.00    -0.141 C  
BRANCH  13  14
HETATM   14  C   UNL     1      -9.906   7.322  68.516  1.00  0.00    -0.159 C  
BRANCH  14  15
HETATM   15  C   UNL     1     -10.982   6.271  68.727  1.00  0.00    -0.424 C  
BRANCH  15  16
HETATM   16  C   UNL     1     -11.785   6.617  69.992  1.00  0.00    -0.378 C  
BRANCH  16  17
HETATM   17  C   UNL     1     -10.951   6.399  71.223  1.00  0.00    -0.321 A  
HETATM   18  C   UNL     1     -10.226   5.213  71.391  1.00  0.00    -0.282 A  
HETATM   19  C   UNL     1     -10.847   7.413  72.182  1.00  0.00    -0.273 A  
HETATM   20  C   UNL     1      -9.306   6.058  73.461  1.00  0.00    -0.134 A  
HETATM   21  C   UNL     1      -9.410   5.043  72.516  1.00  0.00    -0.150 A  
HETATM   22  C   UNL     1     -10.022   7.240  73.294  1.00  0.00    -0.319 A  
ENDBRANCH  16  17
ENDBRANCH  15  16
ENDBRANCH  14  15
ENDBRANCH  13  14
ENDBRANCH  11  13
BRANCH  11  23
HETATM   23  C   UNL     1      -7.505   8.875  65.886  1.00  0.00    -0.093 C  
BRANCH  23  24
HETATM   24  C   UNL     1      -7.330  10.296  66.453  1.00  0.00    -0.114 C  
HETATM   25  C   UNL     1      -8.165  12.596  66.997  1.00  0.00    -0.108 C  
HETATM   26  O   UNL     1      -6.206  10.685  66.795  1.00  0.00    -0.063 OA 
HETATM   27  N   UNL     1      -8.379  11.167  66.657  1.00  0.00    -0.155 N  
HETATM   28  C   UNL     1      -7.664  12.964  68.421  1.00  0.00    -0.133 C  
HETATM   29  O   UNL     1      -7.926  14.020  68.986  1.00  0.00    -0.070 OA 
HETATM   30  C   UNL     1      -9.781  10.848  66.841  1.00  0.00    -0.181 C  
HETATM   31  C   UNL     1     -10.557  12.133  66.500  1.00  0.00    -0.269 C  
HETATM   32  O   UNL     1      -6.794  12.084  68.961  1.00  0.00    -0.098 OA 
HETATM   33  C   UNL     1      -9.535  13.261  66.758  1.00  0.00    -0.257 C  
BRANCH  31  34
HETATM   34  C   UNL     1     -11.154  12.214  65.062  1.00  0.00    -0.368 C  
HETATM   35  C   UNL     1     -12.813  14.083  65.507  1.00  0.00    -0.453 C  
HETATM   36  C   UNL     1     -12.032  15.062  64.637  1.00  0.00    -0.363 C  
HETATM   37  C   UNL     1     -10.570  14.662  64.456  1.00  0.00    -0.090 C  
HETATM   38  C   UNL     1     -12.627  12.654  65.010  1.00  0.00    -0.504 C  
HETATM   39  C   UNL     1     -10.365  13.176  64.137  1.00  0.00    -0.286 C  
ENDBRANCH  31  34
ENDBRANCH  23  24
ENDBRANCH  11  23
ENDBRANCH  10  11
ENDBRANCH   6  10
ENDBRANCH   5   6
ENDBRANCH   3   5
ENDBRANCH   2   3
TORSDOF 13
ENDMDL
MODEL      190
REMARK 921   NORMALIZED FREE ENERGY PREDICTED BY IDOCK:   -3.84 KCAL/MOL
REMARK 922        TOTAL FREE ENERGY PREDICTED BY IDOCK:   -9.23 KCAL/MOL
REMARK 923 INTER-LIGAND FREE ENERGY PREDICTED BY IDOCK:   -7.20 KCAL/MOL
REMARK 924 INTRA-LIGAND FREE ENERGY PREDICTED BY IDOCK:   -2.03 KCAL/MOL
REMARK 927      BINDING AFFINITY PREDICTED BY RF-SCORE:    0.00 PKD
ROOT
HETATM    1  C   UNL     1      -6.651   3.626  70.009  1.00  0.00    -0.033 C  
HETATM    2  C   UNL     1      -7.794   4.583  70.298  1.00  0.00    -0.060 C  
ENDROOT
BRANCH   2   3
HETATM    3  C   UNL     1      -7.479   5.853  71.084  1.00  0.00    -0.091 C  
HETATM    4  O   UNL     1      -6.899   6.810  70.582  1.00  0.00    -0.056 OA 
BRANCH   3   5
HETATM    5  O   UNL     1      -8.007   5.840  72.332  1.00  0.00    -0.102 OA 
BRANCH   5   6
HETATM    6  C   UNL     1      -9.433   6.127  72.484  1.00  0.00    -0.143 C  
HETATM    7  C   UNL     1     -10.122   4.811  72.998  1.00  0.00    -0.201 C  
HETATM    8  C   UNL     1     -11.633   4.934  73.190  1.00  0.00    -0.300 C  
HETATM    9  C   UNL     1      -9.501   4.273  74.288  1.00  0.00    -0.124 C  
BRANCH   6  10
HETATM   10  O   UNL     1     -10.105   6.649  71.297  1.00  0.00    -0.188 OA 
BRANCH  10  11
HETATM   11  P   UNL     1     -10.225   8.304  71.146  1.00  0.00    -0.219 P  
HETATM   12  O   UNL     1     -10.204   8.494  72.682  1.00  0.00    -0.284 OA 
BRANCH  11  13
HETATM   13  C   UNL     1     -12.161   8.644  71.106  1.00  0.00    -0.260 C  
BRANCH  13  14
HETATM   14  C   UNL     1     -12.491  10.137  71.208  1.00  0.00    -0.510 C  
BRANCH  14  15
HETATM   15  C   UNL     1     -12.051  10.954  70.007  1.00  0.00    -0.433 C  
BRANCH  15  16
HETATM   16  C   UNL     1     -12.043  12.445  70.384  1.00  0.00    -0.381 C  
BRANCH  16  17
HETATM   17  C   UNL     1     -11.530  13.275  69.242  1.00  0.00    -0.345 A  
HETATM   18  C   UNL     1     -12.280  14.351  68.750  1.00  0.00    -0.200 A  
HETATM   19  C   UNL     1     -10.265  13.014  68.702  1.00  0.00    -0.173 A  
HETATM   20  C   UNL     1     -10.508  14.889  67.196  1.00  0.00    -0.271 A  
HETATM   21  C   UNL     1     -11.768  15.151  67.721  1.00  0.00    -0.250 A  
HETATM   22  C   UNL     1      -9.758  13.823  67.686  1.00  0.00    -0.227 A  
ENDBRANCH  16  17
ENDBRANCH  15  16
ENDBRANCH  14  15
ENDBRANCH  13  14
ENDBRANCH  11  13
BRANCH  11  23
HETATM   23  C   UNL     1     -10.250   8.079  69.330  1.00  0.00    -0.213 C  
BRANCH  23  24
HETATM   24  C   UNL     1      -9.025   8.666  68.602  1.00  0.00    -0.142 C  
HETATM   25  C   UNL     1      -7.290   8.649  66.794  1.00  0.00    -0.079 C  
HETATM   26  O   UNL     1      -8.412   9.615  69.106  1.00  0.00    -0.127 OA 
HETATM   27  N   UNL     1      -8.589   8.222  67.373  1.00  0.00    -0.124 N  
HETATM   28  C   UNL     1      -7.148  10.099  66.254  1.00  0.00    -0.110 C  
HETATM   29  O   UNL     1      -6.390  10.417  65.343  1.00  0.00    -0.116 OA 
HETATM   30  C   UNL     1      -9.351   7.532  66.351  1.00  0.00    -0.157 C  
HETATM   31  C   UNL     1      -8.317   6.821  65.459  1.00  0.00    -0.143 C  
HETATM   32  O   UNL     1      -7.827  11.034  66.951  1.00  0.00    -0.127 OA 
HETATM   33  C   UNL     1      -7.032   7.656  65.645  1.00  0.00    -0.060 C  
BRANCH  31  34
HETATM   34  C   UNL     1      -8.072   5.310  65.762  1.00  0.00    -0.112 C  
HETATM   35  C   UNL     1     -10.506   4.590  65.799  1.00  0.00    -0.268 C  
HETATM   36  C   UNL     1     -10.348   3.786  64.514  1.00  0.00    -0.208 C  
HETATM   37  C   UNL     1      -9.157   4.238  63.671  1.00  0.00    -0.142 C  
HETATM   38  C   UNL     1      -9.192   4.635  66.571  1.00  0.00    -0.132 C  
HETATM   39  C   UNL     1      -7.873   4.465  64.478  1.00  0.00    -0.085 C  
ENDBRANCH  31  34
ENDBRANCH  23  24
ENDBRANCH  11  23
ENDBRANCH  10  11
ENDBRANCH   6  10
ENDBRANCH   5   6
ENDBRANCH   3   5
ENDBRANCH   2   3
TORSDOF 13
ENDMDL
MODEL      191
REMARK 921   NORMALIZED FREE ENERGY PREDICTED BY IDOCK:   -3.84 KCAL/MOL
REMARK 922        TOTAL FREE ENERGY PREDICTED BY IDOCK:   -9.23 KCAL/MOL
REMARK 923 INTER-LIGAND FREE ENERGY PREDICTED BY IDOCK:   -7.42 KCAL/MOL
REMARK 924 INTRA-LIGAND FREE ENERGY PREDICTED BY IDOCK:   -1.81 KCAL/MOL
REMARK 927      BINDING AFFINITY PREDICTED BY RF-SCORE:    0.00 PKD
ROOT
HETATM    1  C   UNL     1     -12.135  14.521  65.705  1.00  0.00    -0.285 C  
HETATM    2  C   UNL     1     -12.425  13.061  65.408  1.00  0.00    -0.531 C  
ENDROOT
BRANCH   2   3
HETATM    3  C   UNL     1     -11.574  12.365  64.349  1.00  0.00    -0.354 C  
HETATM    4  O   UNL     1     -12.059  11.872  63.335  1.00  0.00    -0.502 OA 
BRANCH   3   5
HETATM    5  O   UNL     1     -10.245  12.461  64.599  1.00  0.00    -0.291 OA 
BRANCH   5   6
HETATM    6  C   UNL     1      -9.530  11.255  65.016  1.00  0.00    -0.209 C  
HETATM    7  C   UNL     1      -9.479  10.290  63.775  1.00  0.00    -0.352 C  
HETATM    8  C   UNL     1      -8.778   8.961  64.050  1.00  0.00    -0.068 C  
HETATM    9  C   UNL     1      -8.850  10.937  62.539  1.00  0.00    -0.352 C  
BRANCH   6  10
HETATM   10  O   UNL     1     -10.065  10.576  66.193  1.00  0.00    -0.228 OA 
BRANCH  10  11
HETATM   11  P   UNL     1      -9.240  10.761  67.629  1.00  0.00    -0.149 P  
HETATM   12  O   UNL     1     -10.320  11.722  68.181  1.00  0.00    -0.187 OA 
BRANCH  11  13
HETATM   13  C   UNL     1      -8.029  12.274  67.296  1.00  0.00    -0.177 C  
BRANCH  13  14
HETATM   14  C   UNL     1      -7.376  12.791  68.583  1.00  0.00    -0.099 C  
BRANCH  14  15
HETATM   15  C   UNL     1      -7.196  14.298  68.626  1.00  0.00    -0.125 C  
BRANCH  15  16
HETATM   16  C   UNL     1      -7.403  14.872  67.215  1.00  0.00    -0.174 C  
BRANCH  16  17
HETATM   17  C   UNL     1      -8.558  15.834  67.201  1.00  0.00    -0.226 A  
HETATM   18  C   UNL     1      -9.472  15.865  68.262  1.00  0.00    -0.201 A  
HETATM   19  C   UNL     1      -8.690  16.749  66.150  1.00  0.00    -0.299 A  
HETATM   20  C   UNL     1     -10.632  17.713  67.220  1.00  0.00    -0.297 A  
HETATM   21  C   UNL     1     -10.512  16.802  68.264  1.00  0.00    -0.341 A  
HETATM   22  C   UNL     1      -9.723  17.687  66.166  1.00  0.00    -0.228 A  
ENDBRANCH  16  17
ENDBRANCH  15  16
ENDBRANCH  14  15
ENDBRANCH  13  14
ENDBRANCH  11  13
BRANCH  11  23
HETATM   23  C   UNL     1      -7.962   9.625  66.976  1.00  0.00    -0.109 C  
BRANCH  23  24
HETATM   24  C   UNL     1      -7.168   8.874  68.061  1.00  0.00    -0.083 C  
HETATM   25  C   UNL     1      -7.000   7.543  70.178  1.00  0.00    -0.059 C  
HETATM   26  O   UNL     1      -5.932   8.937  68.068  1.00  0.00    -0.045 OA 
HETATM   27  N   UNL     1      -7.758   8.078  69.018  1.00  0.00    -0.099 N  
HETATM   28  C   UNL     1      -5.977   6.397  69.943  1.00  0.00    -0.022 C  
HETATM   29  O   UNL     1      -5.689   5.554  70.786  1.00  0.00    -0.015 OA 
HETATM   30  C   UNL     1      -9.049   7.421  68.961  1.00  0.00    -0.133 C  
HETATM   31  C   UNL     1      -9.439   7.125  70.421  1.00  0.00    -0.162 C  
HETATM   32  O   UNL     1      -5.308   6.464  68.771  1.00  0.00    -0.010 OA 
HETATM   33  C   UNL     1      -8.084   7.055  71.158  1.00  0.00    -0.105 C  
BRANCH  31  34
HETATM   34  C   UNL     1     -10.409   8.145  71.093  1.00  0.00    -0.237 C  
HETATM   35  C   UNL     1     -12.579   6.985  70.466  1.00  0.00    -0.002 C  
HETATM   36  C   UNL     1     -12.863   6.606  71.915  1.00  0.00    -0.209 C  
HETATM   37  C   UNL     1     -11.607   6.594  72.785  1.00  0.00    -0.100 C  
HETATM   38  C   UNL     1     -11.774   8.277  70.395  1.00  0.00     0.015 C  
HETATM   39  C   UNL     1     -10.696   7.810  72.579  1.00  0.00    -0.372 C  
ENDBRANCH  31  34
ENDBRANCH  23  24
ENDBRANCH  11  23
ENDBRANCH  10  11
ENDBRANCH   6  10
ENDBRANCH   5   6
ENDBRANCH   3   5
ENDBRANCH   2   3
TORSDOF 13
ENDMDL
MODEL      192
REMARK 921   NORMALIZED FREE ENERGY PREDICTED BY IDOCK:   -3.82 KCAL/MOL
REMARK 922        TOTAL FREE ENERGY PREDICTED BY IDOCK:   -9.20 KCAL/MOL
REMARK 923 INTER-LIGAND FREE ENERGY PREDICTED BY IDOCK:   -7.95 KCAL/MOL
REMARK 924 INTRA-LIGAND FREE ENERGY PREDICTED BY IDOCK:   -1.24 KCAL/MOL
REMARK 927      BINDING AFFINITY PREDICTED BY RF-SCORE:    0.00 PKD
ROOT
HETATM    1  C   UNL     1      -8.194   4.569  64.937  1.00  0.00    -0.107 C  
HETATM    2  C   UNL     1      -6.764   5.075  64.906  1.00  0.00    -0.048 C  
ENDROOT
BRANCH   2   3
HETATM    3  C   UNL     1      -6.533   6.541  64.548  1.00  0.00    -0.041 C  
HETATM    4  O   UNL     1      -6.241   6.904  63.413  1.00  0.00    -0.041 OA 
BRANCH   3   5
HETATM    5  O   UNL     1      -6.800   7.380  65.579  1.00  0.00    -0.050 OA 
BRANCH   5   6
HETATM    6  C   UNL     1      -7.802   8.426  65.380  1.00  0.00    -0.108 C  
HETATM    7  C   UNL     1      -7.222   9.752  65.995  1.00  0.00    -0.101 C  
HETATM    8  C   UNL     1      -8.163  10.950  65.890  1.00  0.00    -0.133 C  
HETATM    9  C   UNL     1      -5.861  10.137  65.413  1.00  0.00    -0.098 C  
BRANCH   6  10
HETATM   10  O   UNL     1      -9.134   8.137  65.906  1.00  0.00    -0.177 OA 
BRANCH  10  11
HETATM   11  P   UNL     1      -9.304   8.039  67.560  1.00  0.00    -0.156 P  
HETATM   12  O   UNL     1      -8.161   7.000  67.664  1.00  0.00    -0.112 OA 
BRANCH  11  13
HETATM   13  C   UNL     1     -10.644   6.626  67.823  1.00  0.00    -0.252 C  
BRANCH  13  14
HETATM   14  C   UNL     1     -10.007   5.278  68.177  1.00  0.00    -0.209 C  
BRANCH  14  15
HETATM   15  C   UNL     1     -10.081   4.925  69.652  1.00  0.00    -0.300 C  
BRANCH  15  16
HETATM   16  C   UNL     1     -10.948   5.966  70.379  1.00  0.00    -0.376 C  
BRANCH  16  17
HETATM   17  C   UNL     1     -10.501   6.122  71.805  1.00  0.00    -0.259 A  
HETATM   18  C   UNL     1      -9.550   7.091  72.151  1.00  0.00    -0.160 A  
HETATM   19  C   UNL     1     -11.081   5.337  72.808  1.00  0.00    -0.346 A  
HETATM   20  C   UNL     1      -9.768   6.484  74.481  1.00  0.00    -0.331 A  
HETATM   21  C   UNL     1      -9.181   7.263  73.490  1.00  0.00    -0.241 A  
HETATM   22  C   UNL     1     -10.716   5.524  74.140  1.00  0.00    -0.151 A  
ENDBRANCH  16  17
ENDBRANCH  15  16
ENDBRANCH  14  15
ENDBRANCH  13  14
ENDBRANCH  11  13
BRANCH  11  23
HETATM   23  C   UNL     1     -10.655   9.267  67.438  1.00  0.00    -0.255 C  
BRANCH  23  24
HETATM   24  C   UNL     1     -11.101   9.855  68.790  1.00  0.00    -0.135 C  
HETATM   25  C   UNL     1     -11.579  11.766  70.338  1.00  0.00    -0.015 C  
HETATM   26  O   UNL     1     -11.285   9.100  69.754  1.00  0.00    -0.181 OA 
HETATM   27  N   UNL     1     -11.364  11.193  68.986  1.00  0.00    -0.248 N  
HETATM   28  C   UNL     1     -12.909  11.459  71.082  1.00  0.00    -0.341 C  
HETATM   29  O   UNL     1     -13.427  12.216  71.896  1.00  0.00    -0.399 OA 
HETATM   30  C   UNL     1     -11.728  12.186  67.994  1.00  0.00    -0.344 C  
HETATM   31  C   UNL     1     -11.392  13.552  68.619  1.00  0.00    -0.323 C  
HETATM   32  O   UNL     1     -13.404  10.221  70.871  1.00  0.00    -0.370 OA 
HETATM   33  C   UNL     1     -11.454  13.289  70.139  1.00  0.00    -0.038 C  
BRANCH  31  34
HETATM   34  C   UNL     1     -10.029  14.183  68.198  1.00  0.00    -0.232 C  
HETATM   35  C   UNL     1     -10.922  15.672  66.346  1.00  0.00    -0.197 C  
HETATM   36  C   UNL     1     -10.628  16.938  67.143  1.00  0.00    -0.249 C  
HETATM   37  C   UNL     1     -10.521  16.685  68.646  1.00  0.00    -0.323 C  
HETATM   38  C   UNL     1      -9.939  14.566  66.711  1.00  0.00    -0.267 C  
HETATM   39  C   UNL     1      -9.680  15.455  69.011  1.00  0.00    -0.239 C  
ENDBRANCH  31  34
ENDBRANCH  23  24
ENDBRANCH  11  23
ENDBRANCH  10  11
ENDBRANCH   6  10
ENDBRANCH   5   6
ENDBRANCH   3   5
ENDBRANCH   2   3
TORSDOF 13
ENDMDL
MODEL      193
REMARK 921   NORMALIZED FREE ENERGY PREDICTED BY IDOCK:   -3.81 KCAL/MOL
REMARK 922        TOTAL FREE ENERGY PREDICTED BY IDOCK:   -9.18 KCAL/MOL
REMARK 923 INTER-LIGAND FREE ENERGY PREDICTED BY IDOCK:   -6.93 KCAL/MOL
REMARK 924 INTRA-LIGAND FREE ENERGY PREDICTED BY IDOCK:   -2.24 KCAL/MOL
REMARK 927      BINDING AFFINITY PREDICTED BY RF-SCORE:    0.00 PKD
ROOT
HETATM    1  C   UNL     1     -12.097  14.465  65.056  1.00  0.00    -0.417 C  
HETATM    2  C   UNL     1     -12.634  13.201  65.701  1.00  0.00    -0.414 C  
ENDROOT
BRANCH   2   3
HETATM    3  C   UNL     1     -11.653  12.320  66.470  1.00  0.00    -0.377 C  
HETATM    4  O   UNL     1     -12.023  11.445  67.245  1.00  0.00    -0.580 OA 
BRANCH   3   5
HETATM    5  O   UNL     1     -10.363  12.538  66.113  1.00  0.00    -0.244 OA 
BRANCH   5   6
HETATM    6  C   UNL     1      -9.574  11.401  65.639  1.00  0.00    -0.231 C  
HETATM    7  C   UNL     1     -10.127  11.009  64.221  1.00  0.00    -0.398 C  
HETATM    8  C   UNL     1      -9.420   9.812  63.586  1.00  0.00    -0.034 C  
HETATM    9  C   UNL     1     -10.116  12.174  63.229  1.00  0.00    -0.297 C  
BRANCH   6  10
HETATM   10  O   UNL     1      -9.529  10.245  66.529  1.00  0.00    -0.162 OA 
BRANCH  10  11
HETATM   11  P   UNL     1      -8.176  10.060  67.483  1.00  0.00    -0.113 P  
HETATM   12  O   UNL     1      -7.371  11.061  66.618  1.00  0.00    -0.131 OA 
BRANCH  11  13
HETATM   13  C   UNL     1      -7.217   8.549  66.669  1.00  0.00    -0.074 C  
BRANCH  13  14
HETATM   14  C   UNL     1      -8.168   7.533  66.028  1.00  0.00    -0.130 C  
BRANCH  14  15
HETATM   15  C   UNL     1      -7.915   6.096  66.446  1.00  0.00    -0.106 C  
BRANCH  15  16
HETATM   16  C   UNL     1      -9.199   5.275  66.241  1.00  0.00    -0.152 C  
BRANCH  16  17
HETATM   17  C   UNL     1      -8.950   4.132  65.298  1.00  0.00    -0.134 A  
HETATM   18  C   UNL     1      -8.708   4.370  63.938  1.00  0.00    -0.133 A  
HETATM   19  C   UNL     1      -8.897   2.822  65.788  1.00  0.00    -0.134 A  
HETATM   20  C   UNL     1      -8.366   2.005  63.576  1.00  0.00    -0.080 A  
HETATM   21  C   UNL     1      -8.424   3.302  63.079  1.00  0.00    -0.085 A  
HETATM   22  C   UNL     1      -8.601   1.766  64.927  1.00  0.00    -0.099 A  
ENDBRANCH  16  17
ENDBRANCH  15  16
ENDBRANCH  14  15
ENDBRANCH  13  14
ENDBRANCH  11  13
BRANCH  11  23
HETATM   23  C   UNL     1      -9.127   8.877  68.505  1.00  0.00    -0.137 C  
BRANCH  23  24
HETATM   24  C   UNL     1      -8.644   8.770  69.964  1.00  0.00    -0.136 C  
HETATM   25  C   UNL     1      -8.060   7.473  72.027  1.00  0.00    -0.098 C  
HETATM   26  O   UNL     1      -8.495   9.799  70.635  1.00  0.00    -0.200 OA 
HETATM   27  N   UNL     1      -8.312   7.577  70.567  1.00  0.00    -0.129 N  
HETATM   28  C   UNL     1      -6.745   8.063  72.607  1.00  0.00    -0.081 C  
HETATM   29  O   UNL     1      -6.184   7.628  73.608  1.00  0.00    -0.063 OA 
HETATM   30  C   UNL     1      -7.901   6.340  69.934  1.00  0.00    -0.110 C  
HETATM   31  C   UNL     1      -8.163   5.228  70.965  1.00  0.00    -0.116 C  
HETATM   32  O   UNL     1      -6.315   9.193  72.005  1.00  0.00    -0.218 OA 
HETATM   33  C   UNL     1      -8.107   5.961  72.322  1.00  0.00    -0.107 C  
BRANCH  31  34
HETATM   34  C   UNL     1      -9.494   4.432  70.795  1.00  0.00    -0.243 C  
HETATM   35  C   UNL     1      -8.454   2.176  70.269  1.00  0.00    -0.081 C  
HETATM   36  C   UNL     1      -8.921   1.587  71.595  1.00  0.00    -0.109 C  
HETATM   37  C   UNL     1      -9.208   2.651  72.652  1.00  0.00    -0.126 C  
HETATM   38  C   UNL     1      -9.411   3.264  69.797  1.00  0.00    -0.212 C  
HETATM   39  C   UNL     1     -10.017   3.845  72.130  1.00  0.00    -0.243 C  
ENDBRANCH  31  34
ENDBRANCH  23  24
ENDBRANCH  11  23
ENDBRANCH  10  11
ENDBRANCH   6  10
ENDBRANCH   5   6
ENDBRANCH   3   5
ENDBRANCH   2   3
TORSDOF 13
ENDMDL
MODEL      194
REMARK 921   NORMALIZED FREE ENERGY PREDICTED BY IDOCK:   -3.81 KCAL/MOL
REMARK 922        TOTAL FREE ENERGY PREDICTED BY IDOCK:   -9.17 KCAL/MOL
REMARK 923 INTER-LIGAND FREE ENERGY PREDICTED BY IDOCK:   -8.32 KCAL/MOL
REMARK 924 INTRA-LIGAND FREE ENERGY PREDICTED BY IDOCK:   -0.85 KCAL/MOL
REMARK 927      BINDING AFFINITY PREDICTED BY RF-SCORE:    0.00 PKD
ROOT
HETATM    1  C   UNL     1     -12.411  14.651  64.476  1.00  0.00    -0.416 C  
HETATM    2  C   UNL     1     -12.641  13.407  65.315  1.00  0.00    -0.518 C  
ENDROOT
BRANCH   2   3
HETATM    3  C   UNL     1     -11.425  12.562  65.685  1.00  0.00    -0.359 C  
HETATM    4  O   UNL     1     -10.758  11.965  64.846  1.00  0.00    -0.279 OA 
BRANCH   3   5
HETATM    5  O   UNL     1     -11.111  12.644  67.001  1.00  0.00    -0.259 OA 
BRANCH   5   6
HETATM    6  C   UNL     1     -11.793  11.748  67.934  1.00  0.00    -0.219 C  
HETATM    7  C   UNL     1     -11.653  12.374  69.369  1.00  0.00    -0.371 C  
HETATM    8  C   UNL     1     -12.299  11.542  70.476  1.00  0.00    -0.432 C  
HETATM    9  C   UNL     1     -12.182  13.807  69.453  1.00  0.00    -0.325 C  
BRANCH   6  10
HETATM   10  O   UNL     1     -11.349  10.357  67.917  1.00  0.00    -0.324 OA 
BRANCH  10  11
HETATM   11  P   UNL     1      -9.859  10.017  68.579  1.00  0.00    -0.171 P  
HETATM   12  O   UNL     1      -9.469  11.515  68.592  1.00  0.00    -0.188 OA 
BRANCH  11  13
HETATM   13  C   UNL     1      -8.701   9.704  67.021  1.00  0.00    -0.128 C  
BRANCH  13  14
HETATM   14  C   UNL     1      -7.457   8.882  67.376  1.00  0.00    -0.085 C  
BRANCH  14  15
HETATM   15  C   UNL     1      -7.071   7.856  66.325  1.00  0.00    -0.063 C  
BRANCH  15  16
HETATM   16  C   UNL     1      -7.246   6.444  66.907  1.00  0.00    -0.074 C  
BRANCH  16  17
HETATM   17  C   UNL     1      -8.351   5.714  66.196  1.00  0.00    -0.120 A  
HETATM   18  C   UNL     1      -8.108   5.067  64.977  1.00  0.00    -0.113 A  
HETATM   19  C   UNL     1      -9.618   5.625  66.783  1.00  0.00    -0.159 A  
HETATM   20  C   UNL     1     -10.384   4.254  64.945  1.00  0.00    -0.186 A  
HETATM   21  C   UNL     1      -9.130   4.344  64.352  1.00  0.00    -0.152 A  
HETATM   22  C   UNL     1     -10.627   4.893  66.158  1.00  0.00    -0.322 A  
ENDBRANCH  16  17
ENDBRANCH  15  16
ENDBRANCH  14  15
ENDBRANCH  13  14
ENDBRANCH  11  13
BRANCH  11  23
HETATM   23  C   UNL     1     -10.319   8.246  68.564  1.00  0.00    -0.199 C  
BRANCH  23  24
HETATM   24  C   UNL     1     -10.696   7.678  69.945  1.00  0.00    -0.249 C  
HETATM   25  C   UNL     1     -10.578   5.940  71.746  1.00  0.00    -0.234 C  
HETATM   26  O   UNL     1     -11.583   8.227  70.610  1.00  0.00    -0.271 OA 
HETATM   27  N   UNL     1     -10.059   6.601  70.522  1.00  0.00    -0.187 N  
HETATM   28  C   UNL     1     -10.445   6.672  73.110  1.00  0.00    -0.253 C  
HETATM   29  O   UNL     1     -10.341   6.096  74.188  1.00  0.00    -0.282 OA 
HETATM   30  C   UNL     1      -8.725   6.103  70.252  1.00  0.00    -0.145 C  
HETATM   31  C   UNL     1      -8.711   4.643  70.739  1.00  0.00    -0.133 C  
HETATM   32  O   UNL     1     -10.585   8.014  73.051  1.00  0.00    -0.353 OA 
HETATM   33  C   UNL     1      -9.816   4.602  71.817  1.00  0.00    -0.247 C  
BRANCH  31  34
HETATM   34  C   UNL     1      -8.931   3.551  69.647  1.00  0.00    -0.174 C  
HETATM   35  C   UNL     1      -6.490   2.947  69.300  1.00  0.00    -0.029 C  
HETATM   36  C   UNL     1      -6.682   1.570  69.924  1.00  0.00    -0.029 C  
HETATM   37  C   UNL     1      -7.904   1.494  70.837  1.00  0.00    -0.035 C  
HETATM   38  C   UNL     1      -7.778   3.422  68.637  1.00  0.00    -0.055 C  
HETATM   39  C   UNL     1      -9.163   2.141  70.246  1.00  0.00    -0.187 C  
ENDBRANCH  31  34
ENDBRANCH  23  24
ENDBRANCH  11  23
ENDBRANCH  10  11
ENDBRANCH   6  10
ENDBRANCH   5   6
ENDBRANCH   3   5
ENDBRANCH   2   3
TORSDOF 13
ENDMDL
MODEL      195
REMARK 921   NORMALIZED FREE ENERGY PREDICTED BY IDOCK:   -3.78 KCAL/MOL
REMARK 922        TOTAL FREE ENERGY PREDICTED BY IDOCK:   -9.12 KCAL/MOL
REMARK 923 INTER-LIGAND FREE ENERGY PREDICTED BY IDOCK:   -7.33 KCAL/MOL
REMARK 924 INTRA-LIGAND FREE ENERGY PREDICTED BY IDOCK:   -1.79 KCAL/MOL
REMARK 927      BINDING AFFINITY PREDICTED BY RF-SCORE:    0.00 PKD
ROOT
HETATM    1  C   UNL     1      -6.750  14.686  68.431  1.00  0.00    -0.100 C  
HETATM    2  C   UNL     1      -7.096  13.211  68.522  1.00  0.00    -0.105 C  
ENDROOT
BRANCH   2   3
HETATM    3  C   UNL     1      -6.311  12.238  67.646  1.00  0.00    -0.122 C  
HETATM    4  O   UNL     1      -5.510  12.617  66.797  1.00  0.00    -0.278 OA 
BRANCH   3   5
HETATM    5  O   UNL     1      -6.512  10.943  67.991  1.00  0.00    -0.057 OA 
BRANCH   5   6
HETATM    6  C   UNL     1      -7.704  10.267  67.479  1.00  0.00    -0.094 C  
HETATM    7  C   UNL     1      -7.469  10.004  65.946  1.00  0.00    -0.115 C  
HETATM    8  C   UNL     1      -8.641   9.317  65.247  1.00  0.00    -0.188 C  
HETATM    9  C   UNL     1      -6.190   9.213  65.663  1.00  0.00    -0.056 C  
BRANCH   6  10
HETATM   10  O   UNL     1      -8.972  10.954  67.710  1.00  0.00    -0.136 OA 
BRANCH  10  11
HETATM   11  P   UNL     1      -9.998  10.311  68.854  1.00  0.00    -0.225 P  
HETATM   12  O   UNL     1      -8.810   9.902  69.759  1.00  0.00    -0.196 OA 
BRANCH  11  13
HETATM   13  C   UNL     1     -10.240   8.444  68.287  1.00  0.00    -0.205 C  
BRANCH  13  14
HETATM   14  C   UNL     1      -9.321   7.481  69.046  1.00  0.00    -0.146 C  
BRANCH  14  15
HETATM   15  C   UNL     1      -8.175   6.932  68.215  1.00  0.00    -0.123 C  
BRANCH  15  16
HETATM   16  C   UNL     1      -7.877   5.489  68.654  1.00  0.00    -0.091 C  
BRANCH  16  17
HETATM   17  C   UNL     1      -8.014   4.545  67.493  1.00  0.00    -0.100 A  
HETATM   18  C   UNL     1      -8.528   3.255  67.681  1.00  0.00    -0.102 A  
HETATM   19  C   UNL     1      -7.684   4.974  66.203  1.00  0.00    -0.091 A  
HETATM   20  C   UNL     1      -8.378   2.840  65.304  1.00  0.00    -0.094 A  
HETATM   21  C   UNL     1      -8.702   2.403  66.584  1.00  0.00    -0.131 A  
HETATM   22  C   UNL     1      -7.871   4.123  65.114  1.00  0.00    -0.089 A  
ENDBRANCH  16  17
ENDBRANCH  15  16
ENDBRANCH  14  15
ENDBRANCH  13  14
ENDBRANCH  11  13
BRANCH  11  23
HETATM   23  C   UNL     1     -11.402  10.794  67.784  1.00  0.00    -0.279 C  
BRANCH  23  24
HETATM   24  C   UNL     1     -11.322  12.235  67.247  1.00  0.00    -0.328 C  
HETATM   25  C   UNL     1     -11.528  14.720  67.498  1.00  0.00    -0.354 C  
HETATM   26  O   UNL     1     -11.141  12.428  66.038  1.00  0.00    -0.284 OA 
HETATM   27  N   UNL     1     -11.389  13.350  68.054  1.00  0.00    -0.270 N  
HETATM   28  C   UNL     1     -10.304  15.375  66.799  1.00  0.00    -0.279 C  
HETATM   29  O   UNL     1     -10.103  16.585  66.767  1.00  0.00    -0.270 OA 
HETATM   30  C   UNL     1     -11.089  13.448  69.468  1.00  0.00    -0.040 C  
HETATM   31  C   UNL     1     -11.809  14.713  69.968  1.00  0.00    -0.363 C  
HETATM   32  O   UNL     1      -9.526  14.522  66.099  1.00  0.00    -0.294 OA 
HETATM   33  C   UNL     1     -11.943  15.587  68.703  1.00  0.00    -0.231 C  
BRANCH  31  34
HETATM   34  C   UNL     1     -13.188  14.490  70.663  1.00  0.00    -0.228 C  
HETATM   35  C   UNL     1     -12.294  13.723  72.912  1.00  0.00     0.394 C  
HETATM   36  C   UNL     1     -12.779  14.993  73.603  1.00  0.00    -0.650 C  
HETATM   37  C   UNL     1     -12.987  16.155  72.634  1.00  0.00    -0.370 C  
HETATM   38  C   UNL     1     -13.190  13.379  71.727  1.00  0.00    -0.495 C  
HETATM   39  C   UNL     1     -13.729  15.770  71.349  1.00  0.00    -0.147 C  
ENDBRANCH  31  34
ENDBRANCH  23  24
ENDBRANCH  11  23
ENDBRANCH  10  11
ENDBRANCH   6  10
ENDBRANCH   5   6
ENDBRANCH   3   5
ENDBRANCH   2   3
TORSDOF 13
ENDMDL
MODEL      196
REMARK 921   NORMALIZED FREE ENERGY PREDICTED BY IDOCK:   -3.78 KCAL/MOL
REMARK 922        TOTAL FREE ENERGY PREDICTED BY IDOCK:   -9.12 KCAL/MOL
REMARK 923 INTER-LIGAND FREE ENERGY PREDICTED BY IDOCK:   -6.94 KCAL/MOL
REMARK 924 INTRA-LIGAND FREE ENERGY PREDICTED BY IDOCK:   -2.17 KCAL/MOL
REMARK 927      BINDING AFFINITY PREDICTED BY RF-SCORE:    0.00 PKD
ROOT
HETATM    1  C   UNL     1     -11.740  14.462  67.744  1.00  0.00    -0.407 C  
HETATM    2  C   UNL     1     -12.027  13.102  68.353  1.00  0.00    -0.324 C  
ENDROOT
BRANCH   2   3
HETATM    3  C   UNL     1     -10.855  12.140  68.533  1.00  0.00    -0.236 C  
HETATM    4  O   UNL     1     -10.893  11.196  69.316  1.00  0.00    -0.224 OA 
BRANCH   3   5
HETATM    5  O   UNL     1      -9.844  12.378  67.663  1.00  0.00    -0.191 OA 
BRANCH   5   6
HETATM    6  C   UNL     1      -9.601  11.404  66.599  1.00  0.00    -0.191 C  
HETATM    7  C   UNL     1     -10.477  11.833  65.366  1.00  0.00    -0.317 C  
HETATM    8  C   UNL     1     -10.356  10.898  64.163  1.00  0.00    -0.432 C  
HETATM    9  C   UNL     1     -10.207  13.268  64.908  1.00  0.00    -0.313 C  
BRANCH   6  10
HETATM   10  O   UNL     1      -9.832  10.007  66.953  1.00  0.00    -0.180 OA 
BRANCH  10  11
HETATM   11  P   UNL     1      -8.496   9.030  67.145  1.00  0.00    -0.113 P  
HETATM   12  O   UNL     1      -7.883   9.527  65.813  1.00  0.00    -0.101 OA 
BRANCH  11  13
HETATM   13  C   UNL     1      -9.016   7.333  66.299  1.00  0.00    -0.156 C  
BRANCH  13  14
HETATM   14  C   UNL     1     -10.231   6.692  66.980  1.00  0.00    -0.288 C  
BRANCH  14  15
HETATM   15  C   UNL     1     -10.483   5.252  66.570  1.00  0.00    -0.354 C  
BRANCH  15  16
HETATM   16  C   UNL     1      -9.176   4.640  66.040  1.00  0.00    -0.144 C  
BRANCH  16  17
HETATM   17  C   UNL     1      -8.537   3.774  67.088  1.00  0.00    -0.112 A  
HETATM   18  C   UNL     1      -7.153   3.553  67.083  1.00  0.00    -0.059 A  
HETATM   19  C   UNL     1      -9.317   3.231  68.116  1.00  0.00    -0.244 A  
HETATM   20  C   UNL     1      -7.343   2.260  69.116  1.00  0.00    -0.044 A  
HETATM   21  C   UNL     1      -6.561   2.789  68.095  1.00  0.00    -0.036 A  
HETATM   22  C   UNL     1      -8.717   2.481  69.127  1.00  0.00    -0.132 A  
ENDBRANCH  16  17
ENDBRANCH  15  16
ENDBRANCH  14  15
ENDBRANCH  13  14
ENDBRANCH  11  13
BRANCH  11  23
HETATM   23  C   UNL     1      -9.221   8.442  68.719  1.00  0.00    -0.143 C  
BRANCH  23  24
HETATM   24  C   UNL     1      -8.474   8.921  69.978  1.00  0.00    -0.139 C  
HETATM   25  C   UNL     1      -7.761   8.686  72.369  1.00  0.00     0.030 C  
HETATM   26  O   UNL     1      -7.965  10.049  69.995  1.00  0.00    -0.175 OA 
HETATM   27  N   UNL     1      -8.289   8.136  71.094  1.00  0.00    -0.112 N  
HETATM   28  C   UNL     1      -6.256   9.063  72.459  1.00  0.00     0.060 C  
HETATM   29  O   UNL     1      -5.604   9.027  73.497  1.00  0.00    -0.103 OA 
HETATM   30  C   UNL     1      -8.302   6.689  71.181  1.00  0.00    -0.125 C  
HETATM   31  C   UNL     1      -8.574   6.355  72.658  1.00  0.00    -0.122 C  
HETATM   32  O   UNL     1      -5.729   9.572  71.324  1.00  0.00    -0.064 OA 
HETATM   33  C   UNL     1      -8.072   7.602  73.418  1.00  0.00    -0.188 C  
BRANCH  31  34
HETATM   34  C   UNL     1     -10.051   6.012  73.025  1.00  0.00    -0.195 C  
HETATM   35  C   UNL     1     -10.108   3.693  71.994  1.00  0.00    -0.199 C  
HETATM   36  C   UNL     1     -10.200   3.025  73.361  1.00  0.00    -0.205 C  
HETATM   37  C   UNL     1      -9.687   3.912  74.494  1.00  0.00    -0.160 C  
HETATM   38  C   UNL     1     -10.751   5.075  72.027  1.00  0.00    -0.205 C  
HETATM   39  C   UNL     1     -10.186   5.360  74.424  1.00  0.00    -0.299 C  
ENDBRANCH  31  34
ENDBRANCH  23  24
ENDBRANCH  11  23
ENDBRANCH  10  11
ENDBRANCH   6  10
ENDBRANCH   5   6
ENDBRANCH   3   5
ENDBRANCH   2   3
TORSDOF 13
ENDMDL
MODEL      197
REMARK 921   NORMALIZED FREE ENERGY PREDICTED BY IDOCK:   -3.77 KCAL/MOL
REMARK 922        TOTAL FREE ENERGY PREDICTED BY IDOCK:   -9.09 KCAL/MOL
REMARK 923 INTER-LIGAND FREE ENERGY PREDICTED BY IDOCK:   -7.08 KCAL/MOL
REMARK 924 INTRA-LIGAND FREE ENERGY PREDICTED BY IDOCK:   -2.01 KCAL/MOL
REMARK 927      BINDING AFFINITY PREDICTED BY RF-SCORE:    0.00 PKD
ROOT
HETATM    1  C   UNL     1      -5.729   8.262  65.777  1.00  0.00    -0.040 C  
HETATM    2  C   UNL     1      -6.170   7.028  66.542  1.00  0.00    -0.042 C  
ENDROOT
BRANCH   2   3
HETATM    3  C   UNL     1      -7.272   6.166  65.930  1.00  0.00    -0.075 C  
HETATM    4  O   UNL     1      -7.700   6.352  64.796  1.00  0.00    -0.091 OA 
BRANCH   3   5
HETATM    5  O   UNL     1      -7.626   5.126  66.726  1.00  0.00    -0.086 OA 
BRANCH   5   6
HETATM    6  C   UNL     1      -7.682   5.347  68.170  1.00  0.00    -0.085 C  
HETATM    7  C   UNL     1      -7.516   3.946  68.864  1.00  0.00    -0.054 C  
HETATM    8  C   UNL     1      -7.575   3.996  70.390  1.00  0.00    -0.045 C  
HETATM    9  C   UNL     1      -6.240   3.216  68.441  1.00  0.00    -0.029 C  
BRANCH   6  10
HETATM   10  O   UNL     1      -8.870   6.043  68.659  1.00  0.00    -0.110 OA 
BRANCH  10  11
HETATM   11  P   UNL     1     -10.355   5.390  68.279  1.00  0.00    -0.060 P  
HETATM   12  O   UNL     1      -9.742   4.538  67.140  1.00  0.00    -0.175 OA 
BRANCH  11  13
HETATM   13  C   UNL     1     -11.109   6.645  66.966  1.00  0.00    -0.325 C  
BRANCH  13  14
HETATM   14  C   UNL     1     -10.196   7.851  66.722  1.00  0.00    -0.358 C  
BRANCH  14  15
HETATM   15  C   UNL     1     -10.661   9.128  67.398  1.00  0.00    -0.315 C  
BRANCH  15  16
HETATM   16  C   UNL     1     -10.614  10.283  66.385  1.00  0.00    -0.177 C  
BRANCH  16  17
HETATM   17  C   UNL     1     -11.087  11.561  67.018  1.00  0.00    -0.365 A  
HETATM   18  C   UNL     1     -10.958  11.762  68.399  1.00  0.00    -0.274 A  
HETATM   19  C   UNL     1     -11.605  12.586  66.218  1.00  0.00    -0.449 A  
HETATM   20  C   UNL     1     -11.859  13.993  68.167  1.00  0.00    -0.402 A  
HETATM   21  C   UNL     1     -11.352  12.978  68.970  1.00  0.00    -0.340 A  
HETATM   22  C   UNL     1     -11.984  13.798  66.794  1.00  0.00    -0.465 A  
ENDBRANCH  16  17
ENDBRANCH  15  16
ENDBRANCH  14  15
ENDBRANCH  13  14
ENDBRANCH  11  13
BRANCH  11  23
HETATM   23  C   UNL     1     -11.079   6.397  69.624  1.00  0.00    -0.401 C  
BRANCH  23  24
HETATM   24  C   UNL     1     -10.189   6.516  70.875  1.00  0.00    -0.190 C  
HETATM   25  C   UNL     1      -8.325   7.552  72.191  1.00  0.00    -0.110 C  
HETATM   26  O   UNL     1     -10.270   5.662  71.767  1.00  0.00    -0.189 OA 
HETATM   27  N   UNL     1      -9.324   7.566  71.093  1.00  0.00    -0.151 N  
HETATM   28  C   UNL     1      -8.814   7.730  73.655  1.00  0.00    -0.266 C  
HETATM   29  O   UNL     1      -8.136   8.234  74.545  1.00  0.00    -0.252 OA 
HETATM   30  C   UNL     1      -9.381   8.901  70.531  1.00  0.00    -0.202 C  
HETATM   31  C   UNL     1      -7.959   9.476  70.661  1.00  0.00    -0.152 C  
HETATM   32  O   UNL     1     -10.009   7.165  73.928  1.00  0.00    -0.301 OA 
HETATM   33  C   UNL     1      -7.349   8.693  71.844  1.00  0.00    -0.092 C  
BRANCH  31  34
HETATM   34  C   UNL     1      -7.062   9.387  69.388  1.00  0.00    -0.054 C  
HETATM   35  C   UNL     1      -7.327  11.799  68.639  1.00  0.00    -0.115 C  
HETATM   36  C   UNL     1      -5.872  12.119  68.962  1.00  0.00    -0.065 C  
HETATM   37  C   UNL     1      -5.257  11.150  69.970  1.00  0.00    -0.057 C  
HETATM   38  C   UNL     1      -7.481  10.333  68.250  1.00  0.00    -0.086 C  
HETATM   39  C   UNL     1      -5.568   9.675  69.684  1.00  0.00    -0.033 C  
ENDBRANCH  31  34
ENDBRANCH  23  24
ENDBRANCH  11  23
ENDBRANCH  10  11
ENDBRANCH   6  10
ENDBRANCH   5   6
ENDBRANCH   3   5
ENDBRANCH   2   3
TORSDOF 13
ENDMDL
MODEL      198
REMARK 921   NORMALIZED FREE ENERGY PREDICTED BY IDOCK:   -3.77 KCAL/MOL
REMARK 922        TOTAL FREE ENERGY PREDICTED BY IDOCK:   -9.09 KCAL/MOL
REMARK 923 INTER-LIGAND FREE ENERGY PREDICTED BY IDOCK:   -8.02 KCAL/MOL
REMARK 924 INTRA-LIGAND FREE ENERGY PREDICTED BY IDOCK:   -1.07 KCAL/MOL
REMARK 927      BINDING AFFINITY PREDICTED BY RF-SCORE:    0.00 PKD
ROOT
HETATM    1  C   UNL     1     -13.025  10.941  71.562  1.00  0.00    -0.556 C  
HETATM    2  C   UNL     1     -13.448   9.677  72.287  1.00  0.00    -0.488 C  
ENDROOT
BRANCH   2   3
HETATM    3  C   UNL     1     -12.662   8.398  72.008  1.00  0.00    -0.360 C  
HETATM    4  O   UNL     1     -13.207   7.351  71.672  1.00  0.00    -0.356 OA 
BRANCH   3   5
HETATM    5  O   UNL     1     -11.321   8.585  72.060  1.00  0.00    -0.307 OA 
BRANCH   5   6
HETATM    6  C   UNL     1     -10.452   7.516  71.569  1.00  0.00    -0.204 C  
HETATM    7  C   UNL     1      -9.138   7.549  72.431  1.00  0.00    -0.176 C  
HETATM    8  C   UNL     1      -8.103   6.500  72.028  1.00  0.00    -0.107 C  
HETATM    9  C   UNL     1      -9.403   7.434  73.933  1.00  0.00    -0.318 C  
BRANCH   6  10
HETATM   10  O   UNL     1     -10.150   7.550  70.140  1.00  0.00    -0.192 OA 
BRANCH  10  11
HETATM   11  P   UNL     1      -9.187   8.793  69.587  1.00  0.00    -0.157 P  
HETATM   12  O   UNL     1      -9.989   9.839  70.399  1.00  0.00    -0.261 OA 
BRANCH  11  13
HETATM   13  C   UNL     1     -10.062   9.376  67.926  1.00  0.00    -0.194 C  
BRANCH  13  14
HETATM   14  C   UNL     1     -11.280  10.267  68.192  1.00  0.00    -0.294 C  
BRANCH  14  15
HETATM   15  C   UNL     1     -11.265  11.582  67.432  1.00  0.00    -0.367 C  
BRANCH  15  16
HETATM   16  C   UNL     1     -10.120  12.459  67.963  1.00  0.00    -0.214 C  
BRANCH  16  17
HETATM   17  C   UNL     1     -10.664  13.624  68.741  1.00  0.00    -0.265 A  
HETATM   18  C   UNL     1      -9.962  14.835  68.796  1.00  0.00    -0.234 A  
HETATM   19  C   UNL     1     -11.912  13.522  69.367  1.00  0.00    -0.383 A  
HETATM   20  C   UNL     1     -11.749  15.822  70.091  1.00  0.00    -0.367 A  
HETATM   21  C   UNL     1     -10.505  15.930  69.479  1.00  0.00    -0.281 A  
HETATM   22  C   UNL     1     -12.450  14.621  70.035  1.00  0.00    -0.333 A  
ENDBRANCH  16  17
ENDBRANCH  15  16
ENDBRANCH  14  15
ENDBRANCH  13  14
ENDBRANCH  11  13
BRANCH  11  23
HETATM   23  C   UNL     1      -8.240   7.556  68.627  1.00  0.00    -0.129 C  
BRANCH  23  24
HETATM   24  C   UNL     1      -7.501   8.134  67.406  1.00  0.00    -0.093 C  
HETATM   25  C   UNL     1      -6.721   8.040  65.026  1.00  0.00    -0.051 C  
HETATM   26  O   UNL     1      -6.809   9.152  67.534  1.00  0.00    -0.075 OA 
HETATM   27  N   UNL     1      -7.604   7.605  66.137  1.00  0.00    -0.086 N  
HETATM   28  C   UNL     1      -6.944   9.442  64.393  1.00  0.00    -0.101 C  
HETATM   29  O   UNL     1      -6.682   9.715  63.226  1.00  0.00    -0.103 OA 
HETATM   30  C   UNL     1      -8.674   6.792  65.593  1.00  0.00    -0.074 C  
HETATM   31  C   UNL     1      -8.073   6.055  64.383  1.00  0.00    -0.119 C  
HETATM   32  O   UNL     1      -7.329  10.402  65.261  1.00  0.00    -0.144 OA 
HETATM   33  C   UNL     1      -6.905   6.963  63.939  1.00  0.00    -0.054 C  
BRANCH  31  34
HETATM   34  C   UNL     1      -7.599   4.591  64.636  1.00  0.00    -0.073 C  
HETATM   35  C   UNL     1      -9.842   3.460  64.267  1.00  0.00    -0.173 C  
HETATM   36  C   UNL     1      -9.363   2.801  62.978  1.00  0.00    -0.093 C  
HETATM   37  C   UNL     1      -8.170   3.519  62.350  1.00  0.00    -0.072 C  
HETATM   38  C   UNL     1      -8.678   3.669  65.229  1.00  0.00    -0.117 C  
HETATM   39  C   UNL     1      -7.074   3.899  63.352  1.00  0.00    -0.049 C  
ENDBRANCH  31  34
ENDBRANCH  23  24
ENDBRANCH  11  23
ENDBRANCH  10  11
ENDBRANCH   6  10
ENDBRANCH   5   6
ENDBRANCH   3   5
ENDBRANCH   2   3
TORSDOF 13
ENDMDL
MODEL      199
REMARK 921   NORMALIZED FREE ENERGY PREDICTED BY IDOCK:   -3.75 KCAL/MOL
REMARK 922        TOTAL FREE ENERGY PREDICTED BY IDOCK:   -9.07 KCAL/MOL
REMARK 923 INTER-LIGAND FREE ENERGY PREDICTED BY IDOCK:   -7.70 KCAL/MOL
REMARK 924 INTRA-LIGAND FREE ENERGY PREDICTED BY IDOCK:   -1.37 KCAL/MOL
REMARK 927      BINDING AFFINITY PREDICTED BY RF-SCORE:    0.00 PKD
ROOT
HETATM    1  C   UNL     1      -9.246  19.966  67.633  1.00  0.00    -0.447 C  
HETATM    2  C   UNL     1     -10.517  19.149  67.778  1.00  0.00    -0.512 C  
ENDROOT
BRANCH   2   3
HETATM    3  C   UNL     1     -10.391  17.627  67.770  1.00  0.00    -0.365 C  
HETATM    4  O   UNL     1     -11.063  16.908  68.501  1.00  0.00    -0.327 OA 
BRANCH   3   5
HETATM    5  O   UNL     1      -9.556  17.176  66.801  1.00  0.00    -0.250 OA 
BRANCH   5   6
HETATM    6  C   UNL     1      -8.979  15.841  66.951  1.00  0.00    -0.240 C  
HETATM    7  C   UNL     1      -7.427  16.020  67.123  1.00  0.00    -0.253 C  
HETATM    8  C   UNL     1      -6.661  14.706  67.271  1.00  0.00     0.137 C  
HETATM    9  C   UNL     1      -7.055  16.944  68.285  1.00  0.00    -0.179 C  
BRANCH   6  10
HETATM   10  O   UNL     1      -9.288  14.893  65.883  1.00  0.00    -0.286 OA 
BRANCH  10  11
HETATM   11  P   UNL     1     -10.397  13.695  66.214  1.00  0.00    -0.304 P  
HETATM   12  O   UNL     1     -11.535  14.731  66.386  1.00  0.00    -0.350 OA 
BRANCH  11  13
HETATM   13  C   UNL     1     -10.284  13.461  68.163  1.00  0.00    -0.246 C  
BRANCH  13  14
HETATM   14  C   UNL     1     -11.665  13.439  68.827  1.00  0.00    -0.377 C  
BRANCH  14  15
HETATM   15  C   UNL     1     -12.118  12.059  69.271  1.00  0.00    -0.249 C  
BRANCH  15  16
HETATM   16  C   UNL     1     -10.912  11.286  69.829  1.00  0.00    -0.170 C  
BRANCH  16  17
HETATM   17  C   UNL     1     -11.363  10.241  70.810  1.00  0.00    -0.421 A  
HETATM   18  C   UNL     1     -12.690  10.212  71.261  1.00  0.00    -0.509 A  
HETATM   19  C   UNL     1     -10.470   9.250  71.234  1.00  0.00    -0.408 A  
HETATM   20  C   UNL     1     -12.220   8.217  72.543  1.00  0.00    -0.335 A  
HETATM   21  C   UNL     1     -13.112   9.202  72.133  1.00  0.00    -0.516 A  
HETATM   22  C   UNL     1     -10.903   8.241  72.094  1.00  0.00    -0.390 A  
ENDBRANCH  16  17
ENDBRANCH  15  16
ENDBRANCH  14  15
ENDBRANCH  13  14
ENDBRANCH  11  13
BRANCH  11  23
HETATM   23  C   UNL     1      -9.052  12.471  66.012  1.00  0.00     0.071 C  
BRANCH  23  24
HETATM   24  C   UNL     1      -9.507  11.005  66.130  1.00  0.00    -0.203 C  
HETATM   25  C   UNL     1      -9.201   8.630  66.870  1.00  0.00    -0.159 C  
HETATM   26  O   UNL     1     -10.511  10.625  65.514  1.00  0.00    -0.248 OA 
HETATM   27  N   UNL     1      -8.883  10.079  66.936  1.00  0.00    -0.131 N  
HETATM   28  C   UNL     1     -10.554   8.130  67.448  1.00  0.00    -0.255 C  
HETATM   29  O   UNL     1     -10.724   7.009  67.916  1.00  0.00    -0.215 OA 
HETATM   30  C   UNL     1      -8.062  10.323  68.106  1.00  0.00    -0.110 C  
HETATM   31  C   UNL     1      -7.212   9.054  68.300  1.00  0.00    -0.078 C  
HETATM   32  O   UNL     1     -11.591   8.978  67.280  1.00  0.00     1.146 OA 
HETATM   33  C   UNL     1      -8.046   7.944  67.626  1.00  0.00    -0.124 C  
BRANCH  31  34
HETATM   34  C   UNL     1      -5.759   9.107  67.736  1.00  0.00    -0.038 C  
HETATM   35  C   UNL     1      -6.362   8.925  65.277  1.00  0.00    -0.063 C  
HETATM   36  C   UNL     1      -5.925  10.360  65.004  1.00  0.00    -0.128 C  
HETATM   37  C   UNL     1      -5.913  11.228  66.261  1.00  0.00    -0.100 C  
HETATM   38  C   UNL     1      -5.558   8.327  66.426  1.00  0.00    -0.032 C  
HETATM   39  C   UNL     1      -5.267  10.554  67.478  1.00  0.00    -0.040 C  
ENDBRANCH  31  34
ENDBRANCH  23  24
ENDBRANCH  11  23
ENDBRANCH  10  11
ENDBRANCH   6  10
ENDBRANCH   5   6
ENDBRANCH   3   5
ENDBRANCH   2   3
TORSDOF 13
ENDMDL
MODEL      200
REMARK 921   NORMALIZED FREE ENERGY PREDICTED BY IDOCK:   -3.75 KCAL/MOL
REMARK 922        TOTAL FREE ENERGY PREDICTED BY IDOCK:   -9.06 KCAL/MOL
REMARK 923 INTER-LIGAND FREE ENERGY PREDICTED BY IDOCK:  -10.11 KCAL/MOL
REMARK 924 INTRA-LIGAND FREE ENERGY PREDICTED BY IDOCK:    1.05 KCAL/MOL
REMARK 927      BINDING AFFINITY PREDICTED BY RF-SCORE:    0.00 PKD
ROOT
HETATM    1  C   UNL     1      -9.476  19.841  67.266  1.00  0.00    -0.471 C  
HETATM    2  C   UNL     1      -8.769  18.572  66.828  1.00  0.00    -0.283 C  
ENDROOT
BRANCH   2   3
HETATM    3  C   UNL     1      -9.340  17.237  67.301  1.00  0.00    -0.237 C  
HETATM    4  O   UNL     1      -9.387  16.248  66.578  1.00  0.00    -0.233 OA 
BRANCH   3   5
HETATM    5  O   UNL     1      -9.670  17.246  68.616  1.00  0.00    -0.277 OA 
BRANCH   5   6
HETATM    6  C   UNL     1      -9.274  16.103  69.438  1.00  0.00    -0.170 C  
HETATM    7  C   UNL     1      -7.800  15.729  69.038  1.00  0.00    -0.206 C  
HETATM    8  C   UNL     1      -7.236  14.528  69.795  1.00  0.00    -0.005 C  
HETATM    9  C   UNL     1      -6.826  16.902  69.172  1.00  0.00    -0.238 C  
BRANCH   6  10
HETATM   10  O   UNL     1     -10.153  14.939  69.370  1.00  0.00    -0.214 OA 
BRANCH  10  11
HETATM   11  P   UNL     1     -11.759  15.164  69.752  1.00  0.00    -0.367 P  
HETATM   12  O   UNL     1     -11.439  16.456  70.543  1.00  0.00    -0.328 OA 
BRANCH  11  13
HETATM   13  C   UNL     1     -11.998  14.168  71.430  1.00  0.00    -0.125 C  
BRANCH  13  14
HETATM   14  C   UNL     1     -13.265  13.306  71.420  1.00  0.00    -0.304 C  
BRANCH  14  15
HETATM   15  C   UNL     1     -13.055  11.888  71.920  1.00  0.00    -0.474 C  
BRANCH  15  16
HETATM   16  C   UNL     1     -12.386  11.056  70.814  1.00  0.00    -0.496 C  
BRANCH  16  17
HETATM   17  C   UNL     1     -12.330   9.606  71.205  1.00  0.00    -0.449 A  
HETATM   18  C   UNL     1     -11.143   9.045  71.695  1.00  0.00    -0.433 A  
HETATM   19  C   UNL     1     -13.487   8.821  71.138  1.00  0.00    -0.081 A  
HETATM   20  C   UNL     1     -12.273   6.937  72.045  1.00  0.00    -0.318 A  
HETATM   21  C   UNL     1     -11.118   7.707  72.107  1.00  0.00    -0.314 A  
HETATM   22  C   UNL     1     -13.455   7.492  71.562  1.00  0.00    -0.426 A  
ENDBRANCH  16  17
ENDBRANCH  15  16
ENDBRANCH  14  15
ENDBRANCH  13  14
ENDBRANCH  11  13
BRANCH  11  23
HETATM   23  C   UNL     1     -12.137  13.637  68.818  1.00  0.00    -0.297 C  
BRANCH  23  24
HETATM   24  C   UNL     1     -11.748  13.693  67.329  1.00  0.00    -0.380 C  
HETATM   25  C   UNL     1     -10.736  12.719  65.253  1.00  0.00    -0.294 C  
HETATM   26  O   UNL     1     -11.871  14.754  66.704  1.00  0.00    -0.342 OA 
HETATM   27  N   UNL     1     -11.308  12.598  66.618  1.00  0.00    -0.308 N  
HETATM   28  C   UNL     1     -11.687  13.032  64.064  1.00  0.00    -0.436 C  
HETATM   29  O   UNL     1     -11.482  12.668  62.911  1.00  0.00    -0.096 OA 
HETATM   30  C   UNL     1     -11.541  11.196  66.903  1.00  0.00     0.192 C  
HETATM   31  C   UNL     1     -10.440  10.422  66.157  1.00  0.00    -0.224 C  
HETATM   32  O   UNL     1     -12.711  13.862  64.359  1.00  0.00    -0.656 OA 
HETATM   33  C   UNL     1     -10.044  11.366  65.000  1.00  0.00    -0.323 C  
BRANCH  31  34
HETATM   34  C   UNL     1      -9.201   9.999  67.005  1.00  0.00    -0.167 C  
HETATM   35  C   UNL     1      -7.775  12.046  66.534  1.00  0.00     0.161 C  
HETATM   36  C   UNL     1      -7.896  12.534  67.973  1.00  0.00    -0.147 C  
HETATM   37  C   UNL     1      -9.111  11.956  68.697  1.00  0.00    -0.047 C  
HETATM   38  C   UNL     1      -7.857  10.525  66.472  1.00  0.00    -0.134 C  
HETATM   39  C   UNL     1      -9.304  10.450  68.484  1.00  0.00    -0.160 C  
ENDBRANCH  31  34
ENDBRANCH  23  24
ENDBRANCH  11  23
ENDBRANCH  10  11
ENDBRANCH   6  10
ENDBRANCH   5   6
ENDBRANCH   3   5
ENDBRANCH   2   3
TORSDOF 13
ENDMDL
MODEL      201
REMARK 921   NORMALIZED FREE ENERGY PREDICTED BY IDOCK:   -3.73 KCAL/MOL
REMARK 922        TOTAL FREE ENERGY PREDICTED BY IDOCK:   -9.03 KCAL/MOL
REMARK 923 INTER-LIGAND FREE ENERGY PREDICTED BY IDOCK:   -7.77 KCAL/MOL
REMARK 924 INTRA-LIGAND FREE ENERGY PREDICTED BY IDOCK:   -1.26 KCAL/MOL
REMARK 927      BINDING AFFINITY PREDICTED BY RF-SCORE:    0.00 PKD
ROOT
HETATM    1  C   UNL     1     -11.082  16.453  68.829  1.00  0.00    -0.337 C  
HETATM    2  C   UNL     1     -10.228  15.227  69.096  1.00  0.00    -0.242 C  
ENDROOT
BRANCH   2   3
HETATM    3  C   UNL     1     -10.907  13.861  69.055  1.00  0.00    -0.225 C  
HETATM    4  O   UNL     1     -12.094  13.709  69.323  1.00  0.00    -0.334 OA 
BRANCH   3   5
HETATM    5  O   UNL     1     -10.092  12.885  68.586  1.00  0.00    -0.212 OA 
BRANCH   5   6
HETATM    6  C   UNL     1     -10.606  11.994  67.545  1.00  0.00    -0.221 C  
HETATM    7  C   UNL     1     -11.131  12.901  66.373  1.00  0.00    -0.316 C  
HETATM    8  C   UNL     1     -11.727  12.120  65.202  1.00  0.00    -0.366 C  
HETATM    9  C   UNL     1     -10.070  13.864  65.837  1.00  0.00    -0.331 C  
BRANCH   6  10
HETATM   10  O   UNL     1     -11.623  11.039  67.973  1.00  0.00    -0.452 OA 
BRANCH  10  11
HETATM   11  P   UNL     1     -11.101   9.619  68.670  1.00  0.00     0.141 P  
HETATM   12  O   UNL     1     -11.422  10.142  70.091  1.00  0.00    -0.261 OA 
BRANCH  11  13
HETATM   13  C   UNL     1      -9.180   9.909  68.972  1.00  0.00    -0.168 C  
BRANCH  13  14
HETATM   14  C   UNL     1      -8.735   9.458  70.367  1.00  0.00    -0.278 C  
BRANCH  14  15
HETATM   15  C   UNL     1      -9.022   7.998  70.668  1.00  0.00    -0.148 C  
BRANCH  15  16
HETATM   16  C   UNL     1      -9.326   7.840  72.167  1.00  0.00    -0.204 C  
BRANCH  16  17
HETATM   17  C   UNL     1      -9.727   6.426  72.478  1.00  0.00    -0.168 A  
HETATM   18  C   UNL     1     -10.627   6.152  73.515  1.00  0.00    -0.283 A  
HETATM   19  C   UNL     1      -9.247   5.375  71.688  1.00  0.00    -0.166 A  
HETATM   20  C   UNL     1     -10.560   3.799  72.967  1.00  0.00    -0.253 A  
HETATM   21  C   UNL     1     -11.035   4.836  73.761  1.00  0.00    -0.371 A  
HETATM   22  C   UNL     1      -9.668   4.068  71.932  1.00  0.00    -0.236 A  
ENDBRANCH  16  17
ENDBRANCH  15  16
ENDBRANCH  14  15
ENDBRANCH  13  14
ENDBRANCH  11  13
BRANCH  11  23
HETATM   23  C   UNL     1     -10.721   9.000  66.991  1.00  0.00    -0.114 C  
BRANCH  23  24
HETATM   24  C   UNL     1     -10.473   7.482  66.917  1.00  0.00    -0.315 C  
HETATM   25  C   UNL     1      -9.206   5.467  66.129  1.00  0.00    -0.158 C  
HETATM   26  O   UNL     1     -11.308   6.701  67.391  1.00  0.00    -0.299 OA 
HETATM   27  N   UNL     1      -9.329   6.924  66.388  1.00  0.00    -0.164 N  
HETATM   28  C   UNL     1      -9.046   4.501  67.335  1.00  0.00    -0.128 C  
HETATM   29  O   UNL     1      -8.449   3.431  67.279  1.00  0.00    -0.093 OA 
HETATM   30  C   UNL     1      -8.023   7.536  66.242  1.00  0.00    -0.109 C  
HETATM   31  C   UNL     1      -7.292   6.722  65.159  1.00  0.00    -0.085 C  
HETATM   32  O   UNL     1      -9.732   4.855  68.443  1.00  0.00    -0.142 OA 
HETATM   33  C   UNL     1      -7.974   5.338  65.213  1.00  0.00    -0.106 C  
BRANCH  31  34
HETATM   34  C   UNL     1      -7.314   7.320  63.719  1.00  0.00    -0.089 C  
HETATM   35  C   UNL     1      -7.461   9.764  64.387  1.00  0.00    -0.132 C  
HETATM   36  C   UNL     1      -6.050  10.047  63.882  1.00  0.00    -0.132 C  
HETATM   37  C   UNL     1      -5.185   8.791  63.796  1.00  0.00    -0.061 C  
HETATM   38  C   UNL     1      -8.101   8.634  63.589  1.00  0.00    -0.163 C  
HETATM   39  C   UNL     1      -5.894   7.589  63.159  1.00  0.00    -0.050 C  
ENDBRANCH  31  34
ENDBRANCH  23  24
ENDBRANCH  11  23
ENDBRANCH  10  11
ENDBRANCH   6  10
ENDBRANCH   5   6
ENDBRANCH   3   5
ENDBRANCH   2   3
TORSDOF 13
ENDMDL
MODEL      202
REMARK 921   NORMALIZED FREE ENERGY PREDICTED BY IDOCK:   -3.73 KCAL/MOL
REMARK 922        TOTAL FREE ENERGY PREDICTED BY IDOCK:   -9.03 KCAL/MOL
REMARK 923 INTER-LIGAND FREE ENERGY PREDICTED BY IDOCK:   -8.40 KCAL/MOL
REMARK 924 INTRA-LIGAND FREE ENERGY PREDICTED BY IDOCK:   -0.63 KCAL/MOL
REMARK 927      BINDING AFFINITY PREDICTED BY RF-SCORE:    0.00 PKD
ROOT
HETATM    1  C   UNL     1      -8.374   3.123  67.203  1.00  0.00    -0.092 C  
HETATM    2  C   UNL     1      -8.408   4.632  67.046  1.00  0.00    -0.105 C  
ENDROOT
BRANCH   2   3
HETATM    3  C   UNL     1      -8.474   5.201  65.632  1.00  0.00    -0.134 C  
HETATM    4  O   UNL     1      -9.496   5.161  64.954  1.00  0.00    -0.009 OA 
BRANCH   3   5
HETATM    5  O   UNL     1      -7.336   5.844  65.271  1.00  0.00    -0.071 OA 
BRANCH   5   6
HETATM    6  C   UNL     1      -7.415   7.269  64.956  1.00  0.00    -0.089 C  
HETATM    7  C   UNL     1      -6.843   7.458  63.503  1.00  0.00    -0.054 C  
HETATM    8  C   UNL     1      -6.833   8.908  63.023  1.00  0.00    -0.089 C  
HETATM    9  C   UNL     1      -7.557   6.595  62.461  1.00  0.00    -0.088 C  
BRANCH   6  10
HETATM   10  O   UNL     1      -6.759   8.166  65.904  1.00  0.00    -0.048 OA 
BRANCH  10  11
HETATM   11  P   UNL     1      -7.710   8.881  67.070  1.00  0.00    -0.099 P  
HETATM   12  O   UNL     1      -7.549   7.666  68.015  1.00  0.00    -0.105 OA 
BRANCH  11  13
HETATM   13  C   UNL     1      -9.537   8.315  66.615  1.00  0.00    -0.233 C  
BRANCH  13  14
HETATM   14  C   UNL     1     -10.542   8.644  67.724  1.00  0.00    -0.249 C  
BRANCH  14  15
HETATM   15  C   UNL     1     -10.445   7.736  68.937  1.00  0.00    -0.208 C  
BRANCH  15  16
HETATM   16  C   UNL     1     -10.040   8.571  70.163  1.00  0.00    -0.197 C  
BRANCH  16  17
HETATM   17  C   UNL     1     -11.235   9.275  70.740  1.00  0.00    -0.351 A  
HETATM   18  C   UNL     1     -12.095   8.612  71.626  1.00  0.00    -0.385 A  
HETATM   19  C   UNL     1     -11.462  10.624  70.441  1.00  0.00    -0.422 A  
HETATM   20  C   UNL     1     -13.387  10.636  71.902  1.00  0.00    -0.454 A  
HETATM   21  C   UNL     1     -13.174   9.294  72.199  1.00  0.00    -0.535 A  
HETATM   22  C   UNL     1     -12.533  11.299  71.025  1.00  0.00    -0.503 A  
ENDBRANCH  16  17
ENDBRANCH  15  16
ENDBRANCH  14  15
ENDBRANCH  13  14
ENDBRANCH  11  13
BRANCH  11  23
HETATM   23  C   UNL     1      -7.901  10.318  65.952  1.00  0.00    -0.139 C  
BRANCH  23  24
HETATM   24  C   UNL     1      -7.533  11.670  66.591  1.00  0.00    -0.037 C  
HETATM   25  C   UNL     1      -8.112  13.826  67.731  1.00  0.00    -0.176 C  
HETATM   26  O   UNL     1      -6.372  12.092  66.506  1.00  0.00    -0.066 OA 
HETATM   27  N   UNL     1      -8.423  12.436  67.313  1.00  0.00    -0.176 N  
HETATM   28  C   UNL     1      -7.084  14.055  68.873  1.00  0.00    -0.111 C  
HETATM   29  O   UNL     1      -7.111  15.016  69.634  1.00  0.00    -0.176 OA 
HETATM   30  C   UNL     1      -9.626  12.001  67.995  1.00  0.00    -0.199 C  
HETATM   31  C   UNL     1     -10.493  13.261  68.170  1.00  0.00    -0.251 C  
HETATM   32  O   UNL     1      -6.056  13.180  68.897  1.00  0.00    -0.074 OA 
HETATM   33  C   UNL     1      -9.471  14.418  68.151  1.00  0.00    -0.204 C  
BRANCH  31  34
HETATM   34  C   UNL     1     -11.622  13.471  67.115  1.00  0.00    -0.393 C  
HETATM   35  C   UNL     1     -10.166  14.447  65.278  1.00  0.00    -0.416 C  
HETATM   36  C   UNL     1     -10.343  13.212  64.402  1.00  0.00    -0.390 C  
HETATM   37  C   UNL     1     -10.745  11.971  65.196  1.00  0.00    -0.332 C  
HETATM   38  C   UNL     1     -11.388  14.658  66.164  1.00  0.00    -0.350 C  
HETATM   39  C   UNL     1     -11.853  12.223  66.226  1.00  0.00    -0.387 C  
ENDBRANCH  31  34
ENDBRANCH  23  24
ENDBRANCH  11  23
ENDBRANCH  10  11
ENDBRANCH   6  10
ENDBRANCH   5   6
ENDBRANCH   3   5
ENDBRANCH   2   3
TORSDOF 13
ENDMDL
MODEL      203
REMARK 921   NORMALIZED FREE ENERGY PREDICTED BY IDOCK:   -3.73 KCAL/MOL
REMARK 922        TOTAL FREE ENERGY PREDICTED BY IDOCK:   -9.02 KCAL/MOL
REMARK 923 INTER-LIGAND FREE ENERGY PREDICTED BY IDOCK:   -8.06 KCAL/MOL
REMARK 924 INTRA-LIGAND FREE ENERGY PREDICTED BY IDOCK:   -0.96 KCAL/MOL
REMARK 927      BINDING AFFINITY PREDICTED BY RF-SCORE:    0.00 PKD
ROOT
HETATM    1  C   UNL     1      -9.552   7.705  66.509  1.00  0.00    -0.254 C  
HETATM    2  C   UNL     1      -9.374   9.020  65.772  1.00  0.00    -0.302 C  
ENDROOT
BRANCH   2   3
HETATM    3  C   UNL     1      -8.159   9.876  66.122  1.00  0.00    -0.119 C  
HETATM    4  O   UNL     1      -7.020   9.423  66.147  1.00  0.00    -0.087 OA 
BRANCH   3   5
HETATM    5  O   UNL     1      -8.471  11.186  66.283  1.00  0.00    -0.166 OA 
BRANCH   5   6
HETATM    6  C   UNL     1      -9.848  11.533  66.631  1.00  0.00    -0.202 C  
HETATM    7  C   UNL     1     -10.244  12.788  65.770  1.00  0.00    -0.302 C  
HETATM    8  C   UNL     1     -11.660  13.299  66.032  1.00  0.00    -0.384 C  
HETATM    9  C   UNL     1     -10.067  12.564  64.267  1.00  0.00    -0.298 C  
BRANCH   6  10
HETATM   10  O   UNL     1     -10.105  11.762  68.050  1.00  0.00    -0.181 OA 
BRANCH  10  11
HETATM   11  P   UNL     1     -11.269  10.821  68.783  1.00  0.00    -0.300 P  
HETATM   12  O   UNL     1     -12.406  11.577  68.054  1.00  0.00    -0.445 OA 
BRANCH  11  13
HETATM   13  C   UNL     1     -11.674  11.773  70.454  1.00  0.00    -0.160 C  
BRANCH  13  14
HETATM   14  C   UNL     1     -12.222  13.182  70.204  1.00  0.00    -0.360 C  
BRANCH  14  15
HETATM   15  C   UNL     1     -11.150  14.241  70.019  1.00  0.00    -0.075 C  
BRANCH  15  16
HETATM   16  C   UNL     1     -11.716  15.392  69.172  1.00  0.00    -0.364 C  
BRANCH  16  17
HETATM   17  C   UNL     1     -10.611  16.108  68.448  1.00  0.00    -0.286 A  
HETATM   18  C   UNL     1     -10.758  16.470  67.103  1.00  0.00    -0.220 A  
HETATM   19  C   UNL     1      -9.448  16.471  69.137  1.00  0.00    -0.212 A  
HETATM   20  C   UNL     1      -8.594  17.548  67.148  1.00  0.00    -0.238 A  
HETATM   21  C   UNL     1      -9.743  17.184  66.454  1.00  0.00    -0.307 A  
HETATM   22  C   UNL     1      -8.447  17.193  68.486  1.00  0.00    -0.262 A  
ENDBRANCH  16  17
ENDBRANCH  15  16
ENDBRANCH  14  15
ENDBRANCH  13  14
ENDBRANCH  11  13
BRANCH  11  23
HETATM   23  C   UNL     1      -9.924   9.927  69.644  1.00  0.00    -0.231 C  
BRANCH  23  24
HETATM   24  C   UNL     1     -10.329   8.542  70.183  1.00  0.00    -0.207 C  
HETATM   25  C   UNL     1      -9.952   6.503  71.590  1.00  0.00    -0.177 C  
HETATM   26  O   UNL     1     -11.305   7.957  69.695  1.00  0.00    -0.019 OA 
HETATM   27  N   UNL     1      -9.689   7.920  71.232  1.00  0.00    -0.157 N  
HETATM   28  C   UNL     1     -11.298   6.139  72.276  1.00  0.00    -0.300 C  
HETATM   29  O   UNL     1     -11.438   5.199  73.051  1.00  0.00    -0.316 OA 
HETATM   30  C   UNL     1      -8.903   8.529  72.286  1.00  0.00    -0.208 C  
HETATM   31  C   UNL     1      -8.012   7.409  72.853  1.00  0.00    -0.120 C  
HETATM   32  O   UNL     1     -12.362   6.857  71.857  1.00  0.00    -0.331 OA 
HETATM   33  C   UNL     1      -8.790   6.116  72.526  1.00  0.00    -0.124 C  
BRANCH  31  34
HETATM   34  C   UNL     1      -6.550   7.353  72.313  1.00  0.00    -0.051 C  
HETATM   35  C   UNL     1      -7.121   6.873  69.886  1.00  0.00    -0.071 C  
HETATM   36  C   UNL     1      -6.642   8.250  69.441  1.00  0.00    -0.042 C  
HETATM   37  C   UNL     1      -6.626   9.271  70.576  1.00  0.00    -0.072 C  
HETATM   38  C   UNL     1      -6.351   6.407  71.117  1.00  0.00    -0.048 C  
HETATM   39  C   UNL     1      -6.016   8.743  71.880  1.00  0.00    -0.063 C  
ENDBRANCH  31  34
ENDBRANCH  23  24
ENDBRANCH  11  23
ENDBRANCH  10  11
ENDBRANCH   6  10
ENDBRANCH   5   6
ENDBRANCH   3   5
ENDBRANCH   2   3
TORSDOF 13
ENDMDL
MODEL      204
REMARK 921   NORMALIZED FREE ENERGY PREDICTED BY IDOCK:   -3.72 KCAL/MOL
REMARK 922        TOTAL FREE ENERGY PREDICTED BY IDOCK:   -9.01 KCAL/MOL
REMARK 923 INTER-LIGAND FREE ENERGY PREDICTED BY IDOCK:   -8.30 KCAL/MOL
REMARK 924 INTRA-LIGAND FREE ENERGY PREDICTED BY IDOCK:   -0.71 KCAL/MOL
REMARK 927      BINDING AFFINITY PREDICTED BY RF-SCORE:    0.00 PKD
ROOT
HETATM    1  C   UNL     1      -8.751  17.698  68.228  1.00  0.00    -0.276 C  
HETATM    2  C   UNL     1      -9.223  17.245  66.859  1.00  0.00    -0.265 C  
ENDROOT
BRANCH   2   3
HETATM    3  C   UNL     1     -10.115  16.009  66.785  1.00  0.00    -0.268 C  
HETATM    4  O   UNL     1     -11.048  15.823  67.560  1.00  0.00    -0.317 OA 
BRANCH   3   5
HETATM    5  O   UNL     1      -9.834  15.223  65.717  1.00  0.00    -0.319 OA 
BRANCH   5   6
HETATM    6  C   UNL     1     -10.638  14.019  65.511  1.00  0.00    -0.318 C  
HETATM    7  C   UNL     1     -12.097  14.488  65.160  1.00  0.00    -0.363 C  
HETATM    8  C   UNL     1     -13.081  13.341  64.934  1.00  0.00    -0.030 C  
HETATM    9  C   UNL     1     -12.151  15.432  63.957  1.00  0.00     0.017 C  
BRANCH   6  10
HETATM   10  O   UNL     1     -10.640  13.061  66.613  1.00  0.00    -0.263 OA 
BRANCH  10  11
HETATM   11  P   UNL     1     -10.119  11.512  66.287  1.00  0.00    -0.245 P  
HETATM   12  O   UNL     1     -11.567  11.027  66.034  1.00  0.00     0.017 OA 
BRANCH  11  13
HETATM   13  C   UNL     1     -10.105  10.630  68.043  1.00  0.00    -0.157 C  
BRANCH  13  14
HETATM   14  C   UNL     1     -11.456  10.735  68.759  1.00  0.00    -0.364 C  
BRANCH  14  15
HETATM   15  C   UNL     1     -11.368  11.281  70.173  1.00  0.00    -0.251 C  
BRANCH  15  16
HETATM   16  C   UNL     1     -12.785  11.579  70.689  1.00  0.00    -0.259 C  
BRANCH  16  17
HETATM   17  C   UNL     1     -12.900  13.016  71.115  1.00  0.00    -0.331 A  
HETATM   18  C   UNL     1     -13.326  13.344  72.409  1.00  0.00    -0.629 A  
HETATM   19  C   UNL     1     -12.520  14.037  70.236  1.00  0.00    -0.403 A  
HETATM   20  C   UNL     1     -12.991  15.690  71.935  1.00  0.00    -0.541 A  
HETATM   21  C   UNL     1     -13.378  14.683  72.812  1.00  0.00    -0.593 A  
HETATM   22  C   UNL     1     -12.563  15.368  70.650  1.00  0.00    -0.491 A  
ENDBRANCH  16  17
ENDBRANCH  15  16
ENDBRANCH  14  15
ENDBRANCH  13  14
ENDBRANCH  11  13
BRANCH  11  23
HETATM   23  C   UNL     1      -8.407  12.086  66.586  1.00  0.00    -0.085 C  
BRANCH  23  24
HETATM   24  C   UNL     1      -7.926  11.913  68.039  1.00  0.00    -0.147 C  
HETATM   25  C   UNL     1      -7.116  10.532  69.967  1.00  0.00    -0.127 C  
HETATM   26  O   UNL     1      -7.990  12.869  68.822  1.00  0.00    -0.063 OA 
HETATM   27  N   UNL     1      -7.370  10.748  68.520  1.00  0.00    -0.090 N  
HETATM   28  C   UNL     1      -5.949  11.300  70.648  1.00  0.00    -0.059 C  
HETATM   29  O   UNL     1      -5.322  10.874  71.613  1.00  0.00    -0.290 OA 
HETATM   30  C   UNL     1      -6.716   9.694  67.769  1.00  0.00    -0.066 C  
HETATM   31  C   UNL     1      -6.762   8.444  68.666  1.00  0.00    -0.059 C  
HETATM   32  O   UNL     1      -5.746  12.552  70.186  1.00  0.00    -0.126 OA 
HETATM   33  C   UNL     1      -6.865   9.018  70.095  1.00  0.00    -0.045 C  
BRANCH  31  34
HETATM   34  C   UNL     1      -7.907   7.427  68.369  1.00  0.00    -0.122 C  
HETATM   35  C   UNL     1      -6.607   5.935  66.779  1.00  0.00    -0.056 C  
HETATM   36  C   UNL     1      -6.597   4.782  67.776  1.00  0.00    -0.047 C  
HETATM   37  C   UNL     1      -6.813   5.240  69.217  1.00  0.00    -0.054 C  
HETATM   38  C   UNL     1      -7.849   6.799  66.967  1.00  0.00    -0.104 C  
HETATM   39  C   UNL     1      -7.948   6.257  69.384  1.00  0.00    -0.109 C  
ENDBRANCH  31  34
ENDBRANCH  23  24
ENDBRANCH  11  23
ENDBRANCH  10  11
ENDBRANCH   6  10
ENDBRANCH   5   6
ENDBRANCH   3   5
ENDBRANCH   2   3
TORSDOF 13
ENDMDL
MODEL      205
REMARK 921   NORMALIZED FREE ENERGY PREDICTED BY IDOCK:   -3.72 KCAL/MOL
REMARK 922        TOTAL FREE ENERGY PREDICTED BY IDOCK:   -9.01 KCAL/MOL
REMARK 923 INTER-LIGAND FREE ENERGY PREDICTED BY IDOCK:   -8.09 KCAL/MOL
REMARK 924 INTRA-LIGAND FREE ENERGY PREDICTED BY IDOCK:   -0.91 KCAL/MOL
REMARK 927      BINDING AFFINITY PREDICTED BY RF-SCORE:    0.00 PKD
ROOT
HETATM    1  C   UNL     1      -8.329  19.814  67.962  1.00  0.00    -0.332 C  
HETATM    2  C   UNL     1      -9.649  19.179  68.362  1.00  0.00    -0.437 C  
ENDROOT
BRANCH   2   3
HETATM    3  C   UNL     1      -9.728  17.655  68.388  1.00  0.00    -0.321 C  
HETATM    4  O   UNL     1     -10.383  17.045  69.226  1.00  0.00    -0.308 OA 
BRANCH   3   5
HETATM    5  O   UNL     1      -9.101  17.080  67.332  1.00  0.00    -0.219 OA 
BRANCH   5   6
HETATM    6  C   UNL     1      -8.584  15.721  67.490  1.00  0.00    -0.166 C  
HETATM    7  C   UNL     1      -7.049  15.840  67.808  1.00  0.00    -0.171 C  
HETATM    8  C   UNL     1      -6.344  14.496  67.982  1.00  0.00    -0.162 C  
HETATM    9  C   UNL     1      -6.756  16.715  69.029  1.00  0.00    -0.202 C  
BRANCH   6  10
HETATM   10  O   UNL     1      -8.824  14.817  66.369  1.00  0.00    -0.233 OA 
BRANCH  10  11
HETATM   11  P   UNL     1     -10.131  13.789  66.475  1.00  0.00    -0.299 P  
HETATM   12  O   UNL     1     -11.106  14.973  66.683  1.00  0.00    -0.327 OA 
BRANCH  11  13
HETATM   13  C   UNL     1     -10.233  13.338  68.386  1.00  0.00    -0.249 C  
BRANCH  13  14
HETATM   14  C   UNL     1     -11.656  13.470  68.940  1.00  0.00    -0.364 C  
BRANCH  14  15
HETATM   15  C   UNL     1     -12.282  12.153  69.361  1.00  0.00    -0.135 C  
BRANCH  15  16
HETATM   16  C   UNL     1     -11.258  11.342  70.172  1.00  0.00    -0.076 C  
BRANCH  16  17
HETATM   17  C   UNL     1     -11.948  10.283  70.985  1.00  0.00    -0.483 A  
HETATM   18  C   UNL     1     -13.030  10.611  71.813  1.00  0.00    -0.577 A  
HETATM   19  C   UNL     1     -11.550   8.946  70.870  1.00  0.00    -0.331 A  
HETATM   20  C   UNL     1     -13.301   8.281  72.398  1.00  0.00    -0.170 A  
HETATM   21  C   UNL     1     -13.699   9.608  72.523  1.00  0.00    -0.272 A  
HETATM   22  C   UNL     1     -12.229   7.952  71.573  1.00  0.00    -0.338 A  
ENDBRANCH  16  17
ENDBRANCH  15  16
ENDBRANCH  14  15
ENDBRANCH  13  14
ENDBRANCH  11  13
BRANCH  11  23
HETATM   23  C   UNL     1      -8.978  12.389  66.230  1.00  0.00    -0.037 C  
BRANCH  23  24
HETATM   24  C   UNL     1      -9.649  11.003  66.263  1.00  0.00    -0.201 C  
HETATM   25  C   UNL     1      -9.684   8.534  65.831  1.00  0.00    -0.031 C  
HETATM   26  O   UNL     1     -10.841  10.908  66.580  1.00  0.00    -0.252 OA 
HETATM   27  N   UNL     1      -8.976   9.828  66.006  1.00  0.00    -0.149 N  
HETATM   28  C   UNL     1     -10.297   7.839  67.077  1.00  0.00    -0.334 C  
HETATM   29  O   UNL     1     -10.430   6.624  67.185  1.00  0.00    -0.215 OA 
HETATM   30  C   UNL     1      -7.554   9.571  66.115  1.00  0.00    -0.100 C  
HETATM   31  C   UNL     1      -7.277   8.336  65.239  1.00  0.00    -0.079 C  
HETATM   32  O   UNL     1     -10.807   8.678  68.004  1.00  0.00    -0.122 OA 
HETATM   33  C   UNL     1      -8.634   7.601  65.198  1.00  0.00     0.000 C  
BRANCH  31  34
HETATM   34  C   UNL     1      -6.732   8.619  63.805  1.00  0.00    -0.087 C  
HETATM   35  C   UNL     1      -5.331   6.515  63.573  1.00  0.00    -0.026 C  
HETATM   36  C   UNL     1      -6.258   5.945  62.505  1.00  0.00    -0.025 C  
HETATM   37  C   UNL     1      -7.657   6.556  62.544  1.00  0.00    -0.080 C  
HETATM   38  C   UNL     1      -5.334   8.039  63.532  1.00  0.00    -0.049 C  
HETATM   39  C   UNL     1      -7.666   8.083  62.691  1.00  0.00    -0.132 C  
ENDBRANCH  31  34
ENDBRANCH  23  24
ENDBRANCH  11  23
ENDBRANCH  10  11
ENDBRANCH   6  10
ENDBRANCH   5   6
ENDBRANCH   3   5
ENDBRANCH   2   3
TORSDOF 13
ENDMDL
MODEL      206
REMARK 921   NORMALIZED FREE ENERGY PREDICTED BY IDOCK:   -3.72 KCAL/MOL
REMARK 922        TOTAL FREE ENERGY PREDICTED BY IDOCK:   -9.01 KCAL/MOL
REMARK 923 INTER-LIGAND FREE ENERGY PREDICTED BY IDOCK:   -8.47 KCAL/MOL
REMARK 924 INTRA-LIGAND FREE ENERGY PREDICTED BY IDOCK:   -0.53 KCAL/MOL
REMARK 927      BINDING AFFINITY PREDICTED BY RF-SCORE:    0.00 PKD
ROOT
HETATM    1  C   UNL     1      -9.574   6.804  67.258  1.00  0.00    -0.165 C  
HETATM    2  C   UNL     1      -8.158   6.843  66.712  1.00  0.00    -0.109 C  
ENDROOT
BRANCH   2   3
HETATM    3  C   UNL     1      -7.390   8.158  66.814  1.00  0.00    -0.083 C  
HETATM    4  O   UNL     1      -6.971   8.594  67.881  1.00  0.00    -0.075 OA 
BRANCH   3   5
HETATM    5  O   UNL     1      -7.132   8.709  65.602  1.00  0.00    -0.080 OA 
BRANCH   5   6
HETATM    6  C   UNL     1      -8.262   9.165  64.793  1.00  0.00    -0.149 C  
HETATM    7  C   UNL     1      -8.035   8.632  63.332  1.00  0.00    -0.160 C  
HETATM    8  C   UNL     1      -9.125   9.043  62.344  1.00  0.00     0.034 C  
HETATM    9  C   UNL     1      -7.854   7.114  63.269  1.00  0.00    -0.114 C  
BRANCH   6  10
HETATM   10  O   UNL     1      -8.507  10.605  64.800  1.00  0.00    -0.168 OA 
BRANCH  10  11
HETATM   11  P   UNL     1     -10.035  11.123  65.216  1.00  0.00    -0.294 P  
HETATM   12  O   UNL     1     -10.317  11.602  63.771  1.00  0.00    -0.317 OA 
BRANCH  11  13
HETATM   13  C   UNL     1      -9.769  12.980  65.805  1.00  0.00    -0.145 C  
BRANCH  13  14
HETATM   14  C   UNL     1     -10.966  13.875  65.468  1.00  0.00    -0.302 C  
BRANCH  14  15
HETATM   15  C   UNL     1     -10.588  15.220  64.875  1.00  0.00    -0.379 C  
BRANCH  15  16
HETATM   16  C   UNL     1      -9.592  15.923  65.811  1.00  0.00    -0.339 C  
BRANCH  16  17
HETATM   17  C   UNL     1      -9.991  15.732  67.247  1.00  0.00    -0.238 A  
HETATM   18  C   UNL     1      -9.018  15.597  68.246  1.00  0.00    -0.181 A  
HETATM   19  C   UNL     1     -11.345  15.748  67.602  1.00  0.00    -0.194 A  
HETATM   20  C   UNL     1     -10.749  15.498  69.931  1.00  0.00    -0.321 A  
HETATM   21  C   UNL     1      -9.402  15.473  69.587  1.00  0.00    -0.224 A  
HETATM   22  C   UNL     1     -11.718  15.635  68.942  1.00  0.00    -0.396 A  
ENDBRANCH  16  17
ENDBRANCH  15  16
ENDBRANCH  14  15
ENDBRANCH  13  14
ENDBRANCH  11  13
BRANCH  11  23
HETATM   23  C   UNL     1      -9.701  10.557  66.924  1.00  0.00    -0.180 C  
BRANCH  23  24
HETATM   24  C   UNL     1     -10.891  10.720  67.888  1.00  0.00    -0.264 C  
HETATM   25  C   UNL     1     -12.213  10.087  69.921  1.00  0.00     0.107 C  
HETATM   26  O   UNL     1     -11.815  11.490  67.595  1.00  0.00    -0.595 OA 
HETATM   27  N   UNL     1     -10.969  10.088  69.110  1.00  0.00    -0.228 N  
HETATM   28  C   UNL     1     -12.642  11.396  70.640  1.00  0.00    -0.271 C  
HETATM   29  O   UNL     1     -13.285  11.423  71.684  1.00  0.00    -0.419 OA 
HETATM   30  C   UNL     1      -9.883   9.573  69.920  1.00  0.00    -0.226 C  
HETATM   31  C   UNL     1     -10.515   8.538  70.868  1.00  0.00    -0.248 C  
HETATM   32  O   UNL     1     -12.371  12.532  69.962  1.00  0.00    -0.200 OA 
HETATM   33  C   UNL     1     -11.989   8.985  70.974  1.00  0.00    -0.323 C  
BRANCH  31  34
HETATM   34  C   UNL     1     -10.395   7.045  70.434  1.00  0.00    -0.219 C  
HETATM   35  C   UNL     1      -9.629   6.120  72.670  1.00  0.00    -0.160 C  
HETATM   36  C   UNL     1     -10.943   5.375  72.878  1.00  0.00    -0.338 C  
HETATM   37  C   UNL     1     -12.092   5.954  72.056  1.00  0.00    -0.058 C  
HETATM   38  C   UNL     1      -9.313   6.250  71.184  1.00  0.00    -0.169 C  
HETATM   39  C   UNL     1     -11.723   6.263  70.600  1.00  0.00    -0.285 C  
ENDBRANCH  31  34
ENDBRANCH  23  24
ENDBRANCH  11  23
ENDBRANCH  10  11
ENDBRANCH   6  10
ENDBRANCH   5   6
ENDBRANCH   3   5
ENDBRANCH   2   3
TORSDOF 13
ENDMDL
MODEL      207
REMARK 921   NORMALIZED FREE ENERGY PREDICTED BY IDOCK:   -3.70 KCAL/MOL
REMARK 922        TOTAL FREE ENERGY PREDICTED BY IDOCK:   -8.97 KCAL/MOL
REMARK 923 INTER-LIGAND FREE ENERGY PREDICTED BY IDOCK:   -8.56 KCAL/MOL
REMARK 924 INTRA-LIGAND FREE ENERGY PREDICTED BY IDOCK:   -0.41 KCAL/MOL
REMARK 927      BINDING AFFINITY PREDICTED BY RF-SCORE:    0.00 PKD
ROOT
HETATM    1  C   UNL     1      -6.618   6.623  65.387  1.00  0.00    -0.050 C  
HETATM    2  C   UNL     1      -7.430   7.750  66.001  1.00  0.00    -0.078 C  
ENDROOT
BRANCH   2   3
HETATM    3  C   UNL     1      -8.351   8.547  65.082  1.00  0.00    -0.169 C  
HETATM    4  O   UNL     1      -7.949   9.096  64.061  1.00  0.00    -0.126 OA 
BRANCH   3   5
HETATM    5  O   UNL     1      -9.652   8.478  65.457  1.00  0.00    -0.024 OA 
BRANCH   5   6
HETATM    6  C   UNL     1      -9.955   8.238  66.867  1.00  0.00    -0.273 C  
HETATM    7  C   UNL     1     -10.720   6.867  66.954  1.00  0.00    -0.386 C  
HETATM    8  C   UNL     1     -11.134   6.475  68.371  1.00  0.00    -0.340 C  
HETATM    9  C   UNL     1      -9.946   5.708  66.324  1.00  0.00    -0.154 C  
BRANCH   6  10
HETATM   10  O   UNL     1     -10.692   9.300  67.547  1.00  0.00    -0.277 OA 
BRANCH  10  11
HETATM   11  P   UNL     1     -10.058  10.839  67.483  1.00  0.00    -0.203 P  
HETATM   12  O   UNL     1     -10.034  10.816  65.935  1.00  0.00    -0.229 OA 
BRANCH  11  13
HETATM   13  C   UNL     1      -8.113  10.561  67.541  1.00  0.00    -0.107 C  
BRANCH  13  14
HETATM   14  C   UNL     1      -7.335  11.780  67.035  1.00  0.00    -0.133 C  
BRANCH  14  15
HETATM   15  C   UNL     1      -7.111  12.853  68.086  1.00  0.00    -0.108 C  
BRANCH  15  16
HETATM   16  C   UNL     1      -6.932  14.213  67.391  1.00  0.00    -0.070 C  
BRANCH  16  17
HETATM   17  C   UNL     1      -8.188  15.031  67.504  1.00  0.00    -0.199 A  
HETATM   18  C   UNL     1      -8.876  15.441  66.355  1.00  0.00    -0.340 A  
HETATM   19  C   UNL     1      -8.710  15.337  68.766  1.00  0.00    -0.195 A  
HETATM   20  C   UNL     1     -10.589  16.450  67.731  1.00  0.00    -0.321 A  
HETATM   21  C   UNL     1     -10.074  16.157  66.473  1.00  0.00    -0.301 A  
HETATM   22  C   UNL     1      -9.909  16.041  68.874  1.00  0.00    -0.232 A  
ENDBRANCH  16  17
ENDBRANCH  15  16
ENDBRANCH  14  15
ENDBRANCH  13  14
ENDBRANCH  11  13
BRANCH  11  23
HETATM   23  C   UNL     1     -10.086  10.867  69.312  1.00  0.00    -0.140 C  
BRANCH  23  24
HETATM   24  C   UNL     1     -11.348  10.240  69.935  1.00  0.00    -0.290 C  
HETATM   25  C   UNL     1     -12.522   8.545  71.360  1.00  0.00    -0.297 C  
HETATM   26  O   UNL     1     -12.466  10.628  69.574  1.00  0.00    -0.261 OA 
HETATM   27  N   UNL     1     -11.310   9.288  70.930  1.00  0.00    -0.285 N  
HETATM   28  C   UNL     1     -13.601   9.287  72.196  1.00  0.00    -0.471 C  
HETATM   29  O   UNL     1     -14.332   8.735  73.012  1.00  0.00    -0.438 OA 
HETATM   30  C   UNL     1     -10.242   9.026  71.875  1.00  0.00    -0.272 C  
HETATM   31  C   UNL     1     -10.466   7.589  72.380  1.00  0.00    -0.291 C  
HETATM   32  O   UNL     1     -13.780  10.585  71.869  1.00  0.00    -0.189 OA 
HETATM   33  C   UNL     1     -11.979   7.358  72.179  1.00  0.00    -0.307 C  
BRANCH  31  34
HETATM   34  C   UNL     1      -9.616   6.478  71.690  1.00  0.00    -0.167 C  
HETATM   35  C   UNL     1      -8.316   5.745  73.743  1.00  0.00    -0.113 C  
HETATM   36  C   UNL     1      -9.027   4.398  73.785  1.00  0.00    -0.102 C  
HETATM   37  C   UNL     1     -10.368   4.409  73.052  1.00  0.00    -0.241 C  
HETATM   38  C   UNL     1      -8.226   6.263  72.312  1.00  0.00    -0.108 C  
HETATM   39  C   UNL     1     -10.323   5.099  71.683  1.00  0.00    -0.274 C  
ENDBRANCH  31  34
ENDBRANCH  23  24
ENDBRANCH  11  23
ENDBRANCH  10  11
ENDBRANCH   6  10
ENDBRANCH   5   6
ENDBRANCH   3   5
ENDBRANCH   2   3
TORSDOF 13
ENDMDL
MODEL      208
REMARK 921   NORMALIZED FREE ENERGY PREDICTED BY IDOCK:   -3.69 KCAL/MOL
REMARK 922        TOTAL FREE ENERGY PREDICTED BY IDOCK:   -8.96 KCAL/MOL
REMARK 923 INTER-LIGAND FREE ENERGY PREDICTED BY IDOCK:   -8.86 KCAL/MOL
REMARK 924 INTRA-LIGAND FREE ENERGY PREDICTED BY IDOCK:   -0.09 KCAL/MOL
REMARK 927      BINDING AFFINITY PREDICTED BY RF-SCORE:    0.00 PKD
ROOT
HETATM    1  C   UNL     1      -9.485  10.500  63.212  1.00  0.00    -0.360 C  
HETATM    2  C   UNL     1      -9.862  10.233  64.658  1.00  0.00    -0.396 C  
ENDROOT
BRANCH   2   3
HETATM    3  C   UNL     1      -9.009   9.242  65.446  1.00  0.00    -0.207 C  
HETATM    4  O   UNL     1      -8.396   8.327  64.907  1.00  0.00    -0.159 OA 
BRANCH   3   5
HETATM    5  O   UNL     1      -8.920   9.559  66.761  1.00  0.00    -0.135 OA 
BRANCH   5   6
HETATM    6  C   UNL     1      -8.848  10.972  67.131  1.00  0.00    -0.140 C  
HETATM    7  C   UNL     1      -7.426  11.219  67.755  1.00  0.00    -0.095 C  
HETATM    8  C   UNL     1      -7.192  12.656  68.219  1.00  0.00    -0.113 C  
HETATM    9  C   UNL     1      -6.283  10.806  66.826  1.00  0.00    -0.083 C  
BRANCH   6  10
HETATM   10  O   UNL     1      -9.906  11.451  68.016  1.00  0.00    -0.174 OA 
BRANCH  10  11
HETATM   11  P   UNL     1     -10.265  10.527  69.355  1.00  0.00    -0.151 P  
HETATM   12  O   UNL     1      -8.842   9.919  69.377  1.00  0.00    -0.160 OA 
BRANCH  11  13
HETATM   13  C   UNL     1     -10.992   8.860  68.609  1.00  0.00     0.114 C  
BRANCH  13  14
HETATM   14  C   UNL     1     -10.830   7.675  69.567  1.00  0.00    -0.171 C  
BRANCH  14  15
HETATM   15  C   UNL     1     -10.107   6.484  68.964  1.00  0.00    -0.186 C  
BRANCH  15  16
HETATM   16  C   UNL     1      -8.958   6.987  68.075  1.00  0.00    -0.126 C  
BRANCH  16  17
HETATM   17  C   UNL     1      -7.631   6.562  68.637  1.00  0.00    -0.097 A  
HETATM   18  C   UNL     1      -6.436   6.981  68.039  1.00  0.00    -0.047 A  
HETATM   19  C   UNL     1      -7.583   5.790  69.804  1.00  0.00    -0.080 A  
HETATM   20  C   UNL     1      -5.167   5.864  69.766  1.00  0.00    -0.005 A  
HETATM   21  C   UNL     1      -5.206   6.624  68.603  1.00  0.00    -0.015 A  
HETATM   22  C   UNL     1      -6.353   5.449  70.366  1.00  0.00    -0.030 A  
ENDBRANCH  16  17
ENDBRANCH  15  16
ENDBRANCH  14  15
ENDBRANCH  13  14
ENDBRANCH  11  13
BRANCH  11  23
HETATM   23  C   UNL     1     -11.948  11.246  69.330  1.00  0.00    -0.342 C  
BRANCH  23  24
HETATM   24  C   UNL     1     -12.228  12.244  70.469  1.00  0.00    -0.300 C  
HETATM   25  C   UNL     1     -12.217  14.543  71.468  1.00  0.00    -0.347 C  
HETATM   26  O   UNL     1     -12.579  11.823  71.578  1.00  0.00    -0.304 OA 
HETATM   27  N   UNL     1     -12.158  13.611  70.313  1.00  0.00    -0.346 N  
HETATM   28  C   UNL     1     -13.575  14.755  72.193  1.00  0.00    -0.415 C  
HETATM   29  O   UNL     1     -13.889  15.794  72.766  1.00  0.00    -0.581 OA 
HETATM   30  C   UNL     1     -12.281  14.378  69.089  1.00  0.00    -0.220 C  
HETATM   31  C   UNL     1     -11.620  15.739  69.372  1.00  0.00    -0.371 C  
HETATM   32  O   UNL     1     -14.357  13.657  72.270  1.00  0.00    -0.566 OA 
HETATM   33  C   UNL     1     -11.731  15.892  70.905  1.00  0.00    -0.456 C  
BRANCH  31  34
HETATM   34  C   UNL     1     -10.149  15.904  68.882  1.00  0.00    -0.225 C  
HETATM   35  C   UNL     1     -10.585  15.494  66.414  1.00  0.00    -0.312 C  
HETATM   36  C   UNL     1     -10.279  16.945  66.060  1.00  0.00    -0.350 C  
HETATM   37  C   UNL     1     -10.427  17.893  67.248  1.00  0.00    -0.373 C  
HETATM   38  C   UNL     1      -9.795  15.062  67.644  1.00  0.00    -0.220 C  
HETATM   39  C   UNL     1      -9.790  17.373  68.543  1.00  0.00    -0.320 C  
ENDBRANCH  31  34
ENDBRANCH  23  24
ENDBRANCH  11  23
ENDBRANCH  10  11
ENDBRANCH   6  10
ENDBRANCH   5   6
ENDBRANCH   3   5
ENDBRANCH   2   3
TORSDOF 13
ENDMDL
MODEL      209
REMARK 921   NORMALIZED FREE ENERGY PREDICTED BY IDOCK:   -3.67 KCAL/MOL
REMARK 922        TOTAL FREE ENERGY PREDICTED BY IDOCK:   -8.92 KCAL/MOL
REMARK 923 INTER-LIGAND FREE ENERGY PREDICTED BY IDOCK:   -8.04 KCAL/MOL
REMARK 924 INTRA-LIGAND FREE ENERGY PREDICTED BY IDOCK:   -0.88 KCAL/MOL
REMARK 927      BINDING AFFINITY PREDICTED BY RF-SCORE:    0.00 PKD
ROOT
HETATM    1  C   UNL     1     -10.648  16.287  69.558  1.00  0.00    -0.314 C  
HETATM    2  C   UNL     1     -11.097  15.395  68.416  1.00  0.00    -0.301 C  
ENDROOT
BRANCH   2   3
HETATM    3  C   UNL     1     -10.473  15.626  67.042  1.00  0.00    -0.303 C  
HETATM    4  O   UNL     1     -10.771  16.583  66.336  1.00  0.00    -0.261 OA 
BRANCH   3   5
HETATM    5  O   UNL     1      -9.490  14.736  66.757  1.00  0.00    -0.230 OA 
BRANCH   5   6
HETATM    6  C   UNL     1      -9.853  13.327  66.607  1.00  0.00    -0.276 C  
HETATM    7  C   UNL     1     -11.131  13.269  65.693  1.00  0.00    -0.299 C  
HETATM    8  C   UNL     1     -11.660  11.856  65.452  1.00  0.00    -0.284 C  
HETATM    9  C   UNL     1     -10.934  13.962  64.344  1.00  0.00    -0.322 C  
BRANCH   6  10
HETATM   10  O   UNL     1     -10.057  12.589  67.851  1.00  0.00    -0.202 OA 
BRANCH  10  11
HETATM   11  P   UNL     1      -8.801  11.642  68.398  1.00  0.00    -0.097 P  
HETATM   12  O   UNL     1      -7.947  12.887  68.740  1.00  0.00    -0.063 OA 
BRANCH  11  13
HETATM   13  C   UNL     1      -7.715  11.308  66.794  1.00  0.00    -0.155 C  
BRANCH  13  14
HETATM   14  C   UNL     1      -7.764   9.841  66.352  1.00  0.00    -0.102 C  
BRANCH  14  15
HETATM   15  C   UNL     1      -7.684   9.642  64.849  1.00  0.00    -0.120 C  
BRANCH  15  16
HETATM   16  C   UNL     1      -6.495   8.724  64.523  1.00  0.00    -0.067 C  
BRANCH  16  17
HETATM   17  C   UNL     1      -6.703   7.360  65.118  1.00  0.00    -0.044 A  
HETATM   18  C   UNL     1      -7.907   6.672  64.920  1.00  0.00    -0.115 A  
HETATM   19  C   UNL     1      -5.665   6.743  65.826  1.00  0.00    -0.030 A  
HETATM   20  C   UNL     1      -7.030   4.771  66.129  1.00  0.00    -0.070 A  
HETATM   21  C   UNL     1      -8.069   5.380  65.434  1.00  0.00    -0.120 A  
HETATM   22  C   UNL     1      -5.831   5.451  66.324  1.00  0.00    -0.018 A  
ENDBRANCH  16  17
ENDBRANCH  15  16
ENDBRANCH  14  15
ENDBRANCH  13  14
ENDBRANCH  11  13
BRANCH  11  23
HETATM   23  C   UNL     1      -9.809  10.169  67.995  1.00  0.00    -0.148 C  
BRANCH  23  24
HETATM   24  C   UNL     1     -11.029   9.966  68.913  1.00  0.00    -0.179 C  
HETATM   25  C   UNL     1     -12.211   8.884  70.840  1.00  0.00    -0.137 C  
HETATM   26  O   UNL     1     -12.106  10.505  68.627  1.00  0.00    -0.324 OA 
HETATM   27  N   UNL     1     -10.983   9.248  70.088  1.00  0.00    -0.241 N  
HETATM   28  C   UNL     1     -12.971   9.993  71.620  1.00  0.00    -0.449 C  
HETATM   29  O   UNL     1     -13.630   9.787  72.633  1.00  0.00    -0.272 OA 
HETATM   30  C   UNL     1      -9.827   8.958  70.913  1.00  0.00    -0.242 C  
HETATM   31  C   UNL     1     -10.210   7.734  71.764  1.00  0.00    -0.235 C  
HETATM   32  O   UNL     1     -12.970  11.207  71.027  1.00  0.00    -0.335 OA 
HETATM   33  C   UNL     1     -11.751   7.798  71.831  1.00  0.00    -0.335 C  
BRANCH  31  34
HETATM   34  C   UNL     1      -9.713   6.351  71.243  1.00  0.00    -0.189 C  
HETATM   35  C   UNL     1     -10.930   6.390  69.015  1.00  0.00    -0.410 C  
HETATM   36  C   UNL     1      -9.625   6.527  68.239  1.00  0.00    -0.131 C  
HETATM   37  C   UNL     1      -8.484   7.085  69.086  1.00  0.00    -0.129 C  
HETATM   38  C   UNL     1     -10.705   5.628  70.316  1.00  0.00    -0.364 C  
HETATM   39  C   UNL     1      -8.370   6.446  70.475  1.00  0.00    -0.129 C  
ENDBRANCH  31  34
ENDBRANCH  23  24
ENDBRANCH  11  23
ENDBRANCH  10  11
ENDBRANCH   6  10
ENDBRANCH   5   6
ENDBRANCH   3   5
ENDBRANCH   2   3
TORSDOF 13
ENDMDL
MODEL      210
REMARK 921   NORMALIZED FREE ENERGY PREDICTED BY IDOCK:   -3.67 KCAL/MOL
REMARK 922        TOTAL FREE ENERGY PREDICTED BY IDOCK:   -8.92 KCAL/MOL
REMARK 923 INTER-LIGAND FREE ENERGY PREDICTED BY IDOCK:   -8.22 KCAL/MOL
REMARK 924 INTRA-LIGAND FREE ENERGY PREDICTED BY IDOCK:   -0.70 KCAL/MOL
REMARK 927      BINDING AFFINITY PREDICTED BY RF-SCORE:    0.00 PKD
ROOT
HETATM    1  C   UNL     1      -9.607   4.246  64.857  1.00  0.00    -0.176 C  
HETATM    2  C   UNL     1      -8.100   4.384  64.973  1.00  0.00    -0.099 C  
ENDROOT
BRANCH   2   3
HETATM    3  C   UNL     1      -7.474   5.719  64.575  1.00  0.00    -0.074 C  
HETATM    4  O   UNL     1      -7.060   5.940  63.442  1.00  0.00    -0.043 OA 
BRANCH   3   5
HETATM    5  O   UNL     1      -7.538   6.643  65.565  1.00  0.00    -0.079 OA 
BRANCH   5   6
HETATM    6  C   UNL     1      -8.622   7.624  65.529  1.00  0.00    -0.092 C  
HETATM    7  C   UNL     1      -7.960   9.050  65.509  1.00  0.00    -0.106 C  
HETATM    8  C   UNL     1      -8.964  10.201  65.492  1.00  0.00    -0.202 C  
HETATM    9  C   UNL     1      -6.973   9.236  64.355  1.00  0.00    -0.093 C  
BRANCH   6  10
HETATM   10  O   UNL     1      -9.613   7.515  66.596  1.00  0.00    -0.187 OA 
BRANCH  10  11
HETATM   11  P   UNL     1      -9.262   8.248  68.050  1.00  0.00    -0.136 P  
HETATM   12  O   UNL     1      -7.932   7.466  68.178  1.00  0.00    -0.119 OA 
BRANCH  11  13
HETATM   13  C   UNL     1     -10.104   7.085  69.391  1.00  0.00    -0.169 C  
BRANCH  13  14
HETATM   14  C   UNL     1     -10.590   5.761  68.791  1.00  0.00    -0.321 C  
BRANCH  14  15
HETATM   15  C   UNL     1      -9.806   4.545  69.252  1.00  0.00    -0.241 C  
BRANCH  15  16
HETATM   16  C   UNL     1      -9.162   4.846  70.615  1.00  0.00    -0.189 C  
BRANCH  16  17
HETATM   17  C   UNL     1      -9.816   4.035  71.698  1.00  0.00    -0.253 A  
HETATM   18  C   UNL     1      -9.776   2.635  71.662  1.00  0.00    -0.226 A  
HETATM   19  C   UNL     1     -10.418   4.679  72.784  1.00  0.00    -0.261 A  
HETATM   20  C   UNL     1     -10.932   2.539  73.783  1.00  0.00    -0.300 A  
HETATM   21  C   UNL     1     -10.342   1.890  72.704  1.00  0.00    -0.226 A  
HETATM   22  C   UNL     1     -10.969   3.930  73.823  1.00  0.00    -0.321 A  
ENDBRANCH  16  17
ENDBRANCH  15  16
ENDBRANCH  14  15
ENDBRANCH  13  14
ENDBRANCH  11  13
BRANCH  11  23
HETATM   23  C   UNL     1     -10.833   9.173  67.898  1.00  0.00    -0.083 C  
BRANCH  23  24
HETATM   24  C   UNL     1     -10.931  10.410  68.811  1.00  0.00    -0.245 C  
HETATM   25  C   UNL     1     -11.120  12.878  69.206  1.00  0.00    -0.133 C  
HETATM   26  O   UNL     1     -10.769  10.283  70.032  1.00  0.00    -0.272 OA 
HETATM   27  N   UNL     1     -11.244  11.670  68.351  1.00  0.00    -0.226 N  
HETATM   28  C   UNL     1     -12.155  13.103  70.343  1.00  0.00    -0.317 C  
HETATM   29  O   UNL     1     -12.487  14.209  70.755  1.00  0.00    -0.321 OA 
HETATM   30  C   UNL     1     -11.959  12.026  67.141  1.00  0.00    -0.030 C  
HETATM   31  C   UNL     1     -11.581  13.488  66.840  1.00  0.00    -0.398 C  
HETATM   32  O   UNL     1     -12.579  11.977  70.956  1.00  0.00    -0.364 OA 
HETATM   33  C   UNL     1     -11.190  14.060  68.220  1.00  0.00    -0.293 C  
BRANCH  31  34
HETATM   34  C   UNL     1     -10.452  13.704  65.786  1.00  0.00    -0.296 C  
HETATM   35  C   UNL     1     -11.744  15.254  64.245  1.00  0.00    -0.223 C  
HETATM   36  C   UNL     1     -10.865  16.445  64.610  1.00  0.00    -0.068 C  
HETATM   37  C   UNL     1     -10.152  16.270  65.950  1.00  0.00    -0.381 C  
HETATM   38  C   UNL     1     -10.959  13.952  64.355  1.00  0.00    -0.322 C  
HETATM   39  C   UNL     1      -9.517  14.888  66.142  1.00  0.00    -0.328 C  
ENDBRANCH  31  34
ENDBRANCH  23  24
ENDBRANCH  11  23
ENDBRANCH  10  11
ENDBRANCH   6  10
ENDBRANCH   5   6
ENDBRANCH   3   5
ENDBRANCH   2   3
TORSDOF 13
ENDMDL
MODEL      211
REMARK 921   NORMALIZED FREE ENERGY PREDICTED BY IDOCK:   -3.66 KCAL/MOL
REMARK 922        TOTAL FREE ENERGY PREDICTED BY IDOCK:   -8.91 KCAL/MOL
REMARK 923 INTER-LIGAND FREE ENERGY PREDICTED BY IDOCK:   -8.40 KCAL/MOL
REMARK 924 INTRA-LIGAND FREE ENERGY PREDICTED BY IDOCK:   -0.51 KCAL/MOL
REMARK 927      BINDING AFFINITY PREDICTED BY RF-SCORE:    0.00 PKD
ROOT
HETATM    1  C   UNL     1      -7.945  11.342  68.955  1.00  0.00    -0.085 C  
HETATM    2  C   UNL     1      -7.702  11.997  67.607  1.00  0.00    -0.144 C  
ENDROOT
BRANCH   2   3
HETATM    3  C   UNL     1      -6.735  11.312  66.645  1.00  0.00    -0.132 C  
HETATM    4  O   UNL     1      -5.569  11.671  66.517  1.00  0.00    -0.188 OA 
BRANCH   3   5
HETATM    5  O   UNL     1      -7.273  10.218  66.053  1.00  0.00    -0.114 OA 
BRANCH   5   6
HETATM    6  C   UNL     1      -6.387   9.102  65.724  1.00  0.00    -0.060 C  
HETATM    7  C   UNL     1      -6.358   8.974  64.158  1.00  0.00    -0.079 C  
HETATM    8  C   UNL     1      -5.487   7.830  63.643  1.00  0.00    -0.048 C  
HETATM    9  C   UNL     1      -5.940  10.269  63.458  1.00  0.00    -0.142 C  
BRANCH   6  10
HETATM   10  O   UNL     1      -6.714   7.825  66.354  1.00  0.00    -0.052 OA 
BRANCH  10  11
HETATM   11  P   UNL     1      -8.310   7.350  66.345  1.00  0.00    -0.140 P  
HETATM   12  O   UNL     1      -8.251   7.014  64.835  1.00  0.00    -0.132 OA 
BRANCH  11  13
HETATM   13  C   UNL     1      -9.303   9.003  65.963  1.00  0.00    -0.242 C  
BRANCH  13  14
HETATM   14  C   UNL     1     -10.688   9.015  66.618  1.00  0.00    -0.043 C  
BRANCH  14  15
HETATM   15  C   UNL     1     -11.021  10.306  67.344  1.00  0.00    -0.317 C  
BRANCH  15  16
HETATM   16  C   UNL     1     -10.970  11.475  66.346  1.00  0.00    -0.336 C  
BRANCH  16  17
HETATM   17  C   UNL     1     -11.138  12.786  67.061  1.00  0.00    -0.316 A  
HETATM   18  C   UNL     1     -10.807  13.991  66.426  1.00  0.00    -0.299 A  
HETATM   19  C   UNL     1     -11.685  12.814  68.349  1.00  0.00    -0.380 A  
HETATM   20  C   UNL     1     -11.570  15.228  68.358  1.00  0.00    -0.365 A  
HETATM   21  C   UNL     1     -11.018  15.209  67.082  1.00  0.00    -0.326 A  
HETATM   22  C   UNL     1     -11.903  14.033  68.989  1.00  0.00    -0.391 A  
ENDBRANCH  16  17
ENDBRANCH  15  16
ENDBRANCH  14  15
ENDBRANCH  13  14
ENDBRANCH  11  13
BRANCH  11  23
HETATM   23  C   UNL     1      -8.380   7.746  68.130  1.00  0.00    -0.124 C  
BRANCH  23  24
HETATM   24  C   UNL     1      -8.466   6.513  69.049  1.00  0.00    -0.125 C  
HETATM   25  C   UNL     1      -9.429   5.237  70.980  1.00  0.00    -0.161 C  
HETATM   26  O   UNL     1      -7.616   5.619  68.954  1.00  0.00    -0.085 OA 
HETATM   27  N   UNL     1      -9.481   6.315  69.959  1.00  0.00    -0.154 N  
HETATM   28  C   UNL     1      -9.627   3.764  70.528  1.00  0.00    -0.192 C  
HETATM   29  O   UNL     1     -10.105   2.888  71.242  1.00  0.00    -0.047 OA 
HETATM   30  C   UNL     1     -10.817   6.878  69.943  1.00  0.00    -0.257 C  
HETATM   31  C   UNL     1     -11.336   6.777  71.389  1.00  0.00    -0.322 C  
HETATM   32  O   UNL     1      -9.110   3.466  69.317  1.00  0.00    -0.106 OA 
HETATM   33  C   UNL     1     -10.531   5.606  71.991  1.00  0.00    -0.270 C  
BRANCH  31  34
HETATM   34  C   UNL     1     -11.211   8.068  72.255  1.00  0.00    -0.402 C  
HETATM   35  C   UNL     1     -11.403   9.747  70.360  1.00  0.00    -0.362 C  
HETATM   36  C   UNL     1     -12.767  10.225  70.844  1.00  0.00    -0.462 C  
HETATM   37  C   UNL     1     -13.478   9.201  71.727  1.00  0.00    -0.478 C  
HETATM   38  C   UNL     1     -10.558   9.258  71.531  1.00  0.00    -0.405 C  
HETATM   39  C   UNL     1     -12.577   8.566  72.793  1.00  0.00    -0.115 C  
ENDBRANCH  31  34
ENDBRANCH  23  24
ENDBRANCH  11  23
ENDBRANCH  10  11
ENDBRANCH   6  10
ENDBRANCH   5   6
ENDBRANCH   3   5
ENDBRANCH   2   3
TORSDOF 13
ENDMDL
MODEL      212
REMARK 921   NORMALIZED FREE ENERGY PREDICTED BY IDOCK:   -3.65 KCAL/MOL
REMARK 922        TOTAL FREE ENERGY PREDICTED BY IDOCK:   -8.88 KCAL/MOL
REMARK 923 INTER-LIGAND FREE ENERGY PREDICTED BY IDOCK:   -7.18 KCAL/MOL
REMARK 924 INTRA-LIGAND FREE ENERGY PREDICTED BY IDOCK:   -1.70 KCAL/MOL
REMARK 927      BINDING AFFINITY PREDICTED BY RF-SCORE:    0.00 PKD
ROOT
HETATM    1  C   UNL     1      -5.771   8.827  73.020  1.00  0.00    -0.084 C  
HETATM    2  C   UNL     1      -7.048   8.320  72.374  1.00  0.00    -0.117 C  
ENDROOT
BRANCH   2   3
HETATM    3  C   UNL     1      -7.356   8.776  70.950  1.00  0.00    -0.087 C  
HETATM    4  O   UNL     1      -7.270   9.948  70.601  1.00  0.00    -0.263 OA 
BRANCH   3   5
HETATM    5  O   UNL     1      -7.615   7.741  70.114  1.00  0.00    -0.081 OA 
BRANCH   5   6
HETATM    6  C   UNL     1      -8.969   7.603  69.579  1.00  0.00    -0.139 C  
HETATM    7  C   UNL     1      -9.527   6.218  70.073  1.00  0.00    -0.167 C  
HETATM    8  C   UNL     1     -10.938   5.905  69.580  1.00  0.00    -0.438 C  
HETATM    9  C   UNL     1      -9.487   6.064  71.595  1.00  0.00    -0.163 C  
BRANCH   6  10
HETATM   10  O   UNL     1      -9.097   7.740  68.131  1.00  0.00    -0.130 OA 
BRANCH  10  11
HETATM   11  P   UNL     1     -10.363   8.655  67.554  1.00  0.00    -0.247 P  
HETATM   12  O   UNL     1     -11.091   7.398  67.019  1.00  0.00    -0.268 OA 
BRANCH  11  13
HETATM   13  C   UNL     1      -9.812   9.142  65.730  1.00  0.00    -0.178 C  
BRANCH  13  14
HETATM   14  C   UNL     1      -8.341   8.812  65.459  1.00  0.00    -0.153 C  
BRANCH  14  15
HETATM   15  C   UNL     1      -8.131   7.616  64.548  1.00  0.00    -0.098 C  
BRANCH  15  16
HETATM   16  C   UNL     1      -7.189   6.614  65.236  1.00  0.00    -0.077 C  
BRANCH  16  17
HETATM   17  C   UNL     1      -7.856   5.275  65.378  1.00  0.00    -0.094 A  
HETATM   18  C   UNL     1      -8.488   4.918  66.577  1.00  0.00    -0.110 A  
HETATM   19  C   UNL     1      -7.902   4.399  64.287  1.00  0.00    -0.085 A  
HETATM   20  C   UNL     1      -9.200   2.829  65.589  1.00  0.00    -0.103 A  
HETATM   21  C   UNL     1      -9.152   3.690  66.680  1.00  0.00    -0.173 A  
HETATM   22  C   UNL     1      -8.576   3.183  64.396  1.00  0.00    -0.094 A  
ENDBRANCH  16  17
ENDBRANCH  15  16
ENDBRANCH  14  15
ENDBRANCH  13  14
ENDBRANCH  11  13
BRANCH  11  23
HETATM   23  C   UNL     1      -9.503  10.142  68.186  1.00  0.00    -0.142 C  
BRANCH  23  24
HETATM   24  C   UNL     1     -10.292  10.925  69.252  1.00  0.00    -0.187 C  
HETATM   25  C   UNL     1     -11.320  13.017  70.172  1.00  0.00     0.227 C  
HETATM   26  O   UNL     1     -10.578  10.378  70.325  1.00  0.00    -0.262 OA 
HETATM   27  N   UNL     1     -10.755  12.208  69.062  1.00  0.00    -0.169 N  
HETATM   28  C   UNL     1     -12.726  12.657  70.726  1.00  0.00    -0.130 C  
HETATM   29  O   UNL     1     -13.494  13.473  71.224  1.00  0.00    -0.222 OA 
HETATM   30  C   UNL     1     -11.026  12.884  67.808  1.00  0.00    -0.243 C  
HETATM   31  C   UNL     1     -11.001  14.390  68.125  1.00  0.00    -0.265 C  
HETATM   32  O   UNL     1     -13.008  11.336  70.745  1.00  0.00    -0.226 OA 
HETATM   33  C   UNL     1     -11.347  14.458  69.628  1.00  0.00    -0.309 C  
BRANCH  31  34
HETATM   34  C   UNL     1      -9.670  15.138  67.805  1.00  0.00    -0.211 C  
HETATM   35  C   UNL     1     -10.405  16.177  65.608  1.00  0.00    -0.405 C  
HETATM   36  C   UNL     1     -10.401  17.581  66.204  1.00  0.00    -0.330 C  
HETATM   37  C   UNL     1     -10.521  17.582  67.727  1.00  0.00    -0.381 C  
HETATM   38  C   UNL     1      -9.375  15.294  66.304  1.00  0.00    -0.345 C  
HETATM   39  C   UNL     1      -9.616  16.558  68.424  1.00  0.00    -0.233 C  
ENDBRANCH  31  34
ENDBRANCH  23  24
ENDBRANCH  11  23
ENDBRANCH  10  11
ENDBRANCH   6  10
ENDBRANCH   5   6
ENDBRANCH   3   5
ENDBRANCH   2   3
TORSDOF 13
ENDMDL
MODEL      213
REMARK 921   NORMALIZED FREE ENERGY PREDICTED BY IDOCK:   -3.59 KCAL/MOL
REMARK 922        TOTAL FREE ENERGY PREDICTED BY IDOCK:   -8.78 KCAL/MOL
REMARK 923 INTER-LIGAND FREE ENERGY PREDICTED BY IDOCK:   -8.01 KCAL/MOL
REMARK 924 INTRA-LIGAND FREE ENERGY PREDICTED BY IDOCK:   -0.77 KCAL/MOL
REMARK 927      BINDING AFFINITY PREDICTED BY RF-SCORE:    0.00 PKD
ROOT
HETATM    1  C   UNL     1     -10.968  13.771  67.557  1.00  0.00    -0.285 C  
HETATM    2  C   UNL     1     -10.586  12.740  68.603  1.00  0.00    -0.256 C  
ENDROOT
BRANCH   2   3
HETATM    3  C   UNL     1     -11.470  11.502  68.741  1.00  0.00    -0.287 C  
HETATM    4  O   UNL     1     -12.151  11.074  67.815  1.00  0.00    -0.534 OA 
BRANCH   3   5
HETATM    5  O   UNL     1     -11.323  10.884  69.938  1.00  0.00    -0.268 OA 
BRANCH   5   6
HETATM    6  C   UNL     1     -12.359   9.943  70.364  1.00  0.00    -0.076 C  
HETATM    7  C   UNL     1     -12.790  10.352  71.819  1.00  0.00    -0.561 C  
HETATM    8  C   UNL     1     -13.861   9.447  72.427  1.00  0.00    -0.422 C  
HETATM    9  C   UNL     1     -13.254  11.806  71.921  1.00  0.00    -0.468 C  
BRANCH   6  10
HETATM   10  O   UNL     1     -11.998   8.530  70.295  1.00  0.00     0.054 OA 
BRANCH  10  11
HETATM   11  P   UNL     1     -10.500   8.089  70.875  1.00  0.00    -0.208 P  
HETATM   12  O   UNL     1     -10.591   9.118  72.028  1.00  0.00    -0.333 OA 
BRANCH  11  13
HETATM   13  C   UNL     1      -9.247   9.252  69.905  1.00  0.00    -0.195 C  
BRANCH  13  14
HETATM   14  C   UNL     1      -8.708   8.592  68.631  1.00  0.00    -0.138 C  
BRANCH  14  15
HETATM   15  C   UNL     1      -8.733   9.492  67.408  1.00  0.00    -0.128 C  
BRANCH  15  16
HETATM   16  C   UNL     1      -9.600   8.841  66.318  1.00  0.00    -0.328 C  
BRANCH  16  17
HETATM   17  C   UNL     1      -9.602   9.682  65.073  1.00  0.00    -0.284 A  
HETATM   18  C   UNL     1     -10.247  10.926  65.055  1.00  0.00    -0.367 A  
HETATM   19  C   UNL     1      -8.905   9.251  63.938  1.00  0.00    -0.160 A  
HETATM   20  C   UNL     1      -9.495  11.293  62.787  1.00  0.00    -0.355 A  
HETATM   21  C   UNL     1     -10.197  11.726  63.907  1.00  0.00    -0.411 A  
HETATM   22  C   UNL     1      -8.851  10.060  62.803  1.00  0.00    -0.242 A  
ENDBRANCH  16  17
ENDBRANCH  15  16
ENDBRANCH  14  15
ENDBRANCH  13  14
ENDBRANCH  11  13
BRANCH  11  23
HETATM   23  C   UNL     1     -10.392   6.873  69.512  1.00  0.00    -0.207 C  
BRANCH  23  24
HETATM   24  C   UNL     1      -9.940   5.468  69.952  1.00  0.00    -0.215 C  
HETATM   25  C   UNL     1      -8.839   3.253  69.544  1.00  0.00    -0.090 C  
HETATM   26  O   UNL     1     -10.311   5.019  71.044  1.00  0.00    -0.223 OA 
HETATM   27  N   UNL     1      -9.087   4.679  69.211  1.00  0.00    -0.101 N  
HETATM   28  C   UNL     1      -7.974   2.912  70.789  1.00  0.00    -0.046 C  
HETATM   29  O   UNL     1      -7.289   1.899  70.889  1.00  0.00    -0.033 OA 
HETATM   30  C   UNL     1      -8.125   5.099  68.210  1.00  0.00    -0.087 C  
HETATM   31  C   UNL     1      -7.840   3.855  67.349  1.00  0.00    -0.087 C  
HETATM   32  O   UNL     1      -8.127   3.753  71.835  1.00  0.00    -0.069 OA 
HETATM   33  C   UNL     1      -8.163   2.673  68.287  1.00  0.00    -0.075 C  
BRANCH  31  34
HETATM   34  C   UNL     1      -8.626   3.756  66.005  1.00  0.00    -0.113 C  
HETATM   35  C   UNL     1      -7.618   5.801  64.890  1.00  0.00    -0.088 C  
HETATM   36  C   UNL     1      -6.869   4.948  63.872  1.00  0.00    -0.047 C  
HETATM   37  C   UNL     1      -6.661   3.509  64.338  1.00  0.00    -0.043 C  
HETATM   38  C   UNL     1      -8.903   5.109  65.330  1.00  0.00    -0.152 C  
HETATM   39  C   UNL     1      -7.910   2.868  64.955  1.00  0.00    -0.082 C  
ENDBRANCH  31  34
ENDBRANCH  23  24
ENDBRANCH  11  23
ENDBRANCH  10  11
ENDBRANCH   6  10
ENDBRANCH   5   6
ENDBRANCH   3   5
ENDBRANCH   2   3
TORSDOF 13
ENDMDL
MODEL      214
REMARK 921   NORMALIZED FREE ENERGY PREDICTED BY IDOCK:   -3.59 KCAL/MOL
REMARK 922        TOTAL FREE ENERGY PREDICTED BY IDOCK:   -8.78 KCAL/MOL
REMARK 923 INTER-LIGAND FREE ENERGY PREDICTED BY IDOCK:   -7.41 KCAL/MOL
REMARK 924 INTRA-LIGAND FREE ENERGY PREDICTED BY IDOCK:   -1.37 KCAL/MOL
REMARK 927      BINDING AFFINITY PREDICTED BY RF-SCORE:    0.00 PKD
ROOT
HETATM    1  C   UNL     1      -8.914   9.908  63.333  1.00  0.00    -0.278 C  
HETATM    2  C   UNL     1      -8.148   8.784  64.008  1.00  0.00    -0.164 C  
ENDROOT
BRANCH   2   3
HETATM    3  C   UNL     1      -7.297   9.133  65.226  1.00  0.00    -0.092 C  
HETATM    4  O   UNL     1      -6.728   8.278  65.897  1.00  0.00    -0.052 OA 
BRANCH   3   5
HETATM    5  O   UNL     1      -7.155  10.469  65.401  1.00  0.00    -0.133 OA 
BRANCH   5   6
HETATM    6  C   UNL     1      -7.754  11.081  66.586  1.00  0.00    -0.153 C  
HETATM    7  C   UNL     1      -6.596  11.325  67.621  1.00  0.00    -0.072 C  
HETATM    8  C   UNL     1      -7.059  11.945  68.938  1.00  0.00    -0.110 C  
HETATM    9  C   UNL     1      -5.451  12.167  67.052  1.00  0.00    -0.066 C  
BRANCH   6  10
HETATM   10  O   UNL     1      -8.858  10.342  67.192  1.00  0.00    -0.136 OA 
BRANCH  10  11
HETATM   11  P   UNL     1     -10.403  10.726  66.700  1.00  0.00    -0.228 P  
HETATM   12  O   UNL     1      -9.939  12.099  66.154  1.00  0.00    -0.223 OA 
BRANCH  11  13
HETATM   13  C   UNL     1     -11.206  11.595  68.270  1.00  0.00    -0.260 C  
BRANCH  13  14
HETATM   14  C   UNL     1     -10.663  13.011  68.493  1.00  0.00    -0.275 C  
BRANCH  14  15
HETATM   15  C   UNL     1     -11.727  14.094  68.472  1.00  0.00    -0.380 C  
BRANCH  15  16
HETATM   16  C   UNL     1     -11.166  15.367  69.126  1.00  0.00    -0.291 C  
BRANCH  16  17
HETATM   17  C   UNL     1     -10.776  16.371  68.078  1.00  0.00    -0.334 A  
HETATM   18  C   UNL     1     -10.594  15.976  66.746  1.00  0.00    -0.297 A  
HETATM   19  C   UNL     1     -10.652  17.723  68.419  1.00  0.00    -0.297 A  
HETATM   20  C   UNL     1     -10.170  18.271  66.115  1.00  0.00    -0.393 A  
HETATM   21  C   UNL     1     -10.284  16.929  65.769  1.00  0.00    -0.287 A  
HETATM   22  C   UNL     1     -10.354  18.666  67.437  1.00  0.00    -0.447 A  
ENDBRANCH  16  17
ENDBRANCH  15  16
ENDBRANCH  14  15
ENDBRANCH  13  14
ENDBRANCH  11  13
BRANCH  11  23
HETATM   23  C   UNL     1     -10.952   9.104  67.345  1.00  0.00     0.079 C  
BRANCH  23  24
HETATM   24  C   UNL     1     -10.472   8.797  68.776  1.00  0.00    -0.191 C  
HETATM   25  C   UNL     1      -9.472   7.295  70.515  1.00  0.00    -0.165 C  
HETATM   26  O   UNL     1     -10.709   9.601  69.686  1.00  0.00    -0.220 OA 
HETATM   27  N   UNL     1      -9.735   7.680  69.105  1.00  0.00    -0.162 N  
HETATM   28  C   UNL     1      -8.462   8.132  71.347  1.00  0.00    -0.126 C  
HETATM   29  O   UNL     1      -7.788   7.676  72.265  1.00  0.00    -0.092 OA 
HETATM   30  C   UNL     1      -8.901   6.873  68.237  1.00  0.00    -0.122 C  
HETATM   31  C   UNL     1      -8.751   5.512  68.940  1.00  0.00    -0.102 C  
HETATM   32  O   UNL     1      -8.465   9.456  71.080  1.00  0.00    -0.303 OA 
HETATM   33  C   UNL     1      -8.972   5.840  70.433  1.00  0.00    -0.154 C  
BRANCH  31  34
HETATM   34  C   UNL     1      -9.703   4.377  68.453  1.00  0.00    -0.172 C  
HETATM   35  C   UNL     1      -8.414   3.754  66.356  1.00  0.00    -0.110 C  
HETATM   36  C   UNL     1      -8.009   2.403  66.937  1.00  0.00    -0.072 C  
HETATM   37  C   UNL     1      -8.071   2.368  68.462  1.00  0.00    -0.069 C  
HETATM   38  C   UNL     1      -9.754   4.204  66.925  1.00  0.00    -0.232 C  
HETATM   39  C   UNL     1      -9.342   2.993  69.049  1.00  0.00    -0.226 C  
ENDBRANCH  31  34
ENDBRANCH  23  24
ENDBRANCH  11  23
ENDBRANCH  10  11
ENDBRANCH   6  10
ENDBRANCH   5   6
ENDBRANCH   3   5
ENDBRANCH   2   3
TORSDOF 13
ENDMDL
MODEL      215
REMARK 921   NORMALIZED FREE ENERGY PREDICTED BY IDOCK:   -3.58 KCAL/MOL
REMARK 922        TOTAL FREE ENERGY PREDICTED BY IDOCK:   -8.76 KCAL/MOL
REMARK 923 INTER-LIGAND FREE ENERGY PREDICTED BY IDOCK:   -7.52 KCAL/MOL
REMARK 924 INTRA-LIGAND FREE ENERGY PREDICTED BY IDOCK:   -1.24 KCAL/MOL
REMARK 927      BINDING AFFINITY PREDICTED BY RF-SCORE:    0.00 PKD
ROOT
HETATM    1  C   UNL     1     -11.619   6.457  70.005  1.00  0.00    -0.446 C  
HETATM    2  C   UNL     1     -10.500   6.944  70.908  1.00  0.00    -0.233 C  
ENDROOT
BRANCH   2   3
HETATM    3  C   UNL     1     -10.695   8.274  71.632  1.00  0.00    -0.256 C  
HETATM    4  O   UNL     1     -11.542   8.428  72.506  1.00  0.00    -0.384 OA 
BRANCH   3   5
HETATM    5  O   UNL     1      -9.768   9.200  71.286  1.00  0.00    -0.283 OA 
BRANCH   5   6
HETATM    6  C   UNL     1      -8.831   8.874  70.211  1.00  0.00    -0.175 C  
HETATM    7  C   UNL     1      -7.390   9.240  70.722  1.00  0.00    -0.134 C  
HETATM    8  C   UNL     1      -6.283   8.979  69.702  1.00  0.00    -0.039 C  
HETATM    9  C   UNL     1      -7.026   8.547  72.037  1.00  0.00    -0.102 C  
BRANCH   6  10
HETATM   10  O   UNL     1      -9.108   9.494  68.918  1.00  0.00    -0.136 OA 
BRANCH  10  11
HETATM   11  P   UNL     1      -9.477  11.118  68.907  1.00  0.00     0.010 P  
HETATM   12  O   UNL     1     -10.780  10.877  69.706  1.00  0.00    -0.225 OA 
BRANCH  11  13
HETATM   13  C   UNL     1     -10.508  11.366  67.252  1.00  0.00    -0.206 C  
BRANCH  13  14
HETATM   14  C   UNL     1      -9.614  11.701  66.054  1.00  0.00    -0.249 C  
BRANCH  14  15
HETATM   15  C   UNL     1      -9.454  10.563  65.062  1.00  0.00    -0.296 C  
BRANCH  15  16
HETATM   16  C   UNL     1      -9.933   9.254  65.711  1.00  0.00    -0.215 C  
BRANCH  16  17
HETATM   17  C   UNL     1      -8.787   8.295  65.872  1.00  0.00    -0.197 A  
HETATM   18  C   UNL     1      -8.939   7.125  66.627  1.00  0.00    -0.164 A  
HETATM   19  C   UNL     1      -7.576   8.538  65.213  1.00  0.00    -0.089 A  
HETATM   20  C   UNL     1      -6.685   6.457  66.062  1.00  0.00    -0.049 A  
HETATM   21  C   UNL     1      -7.882   6.212  66.725  1.00  0.00    -0.104 A  
HETATM   22  C   UNL     1      -6.533   7.617  65.307  1.00  0.00    -0.041 A  
ENDBRANCH  16  17
ENDBRANCH  15  16
ENDBRANCH  14  15
ENDBRANCH  13  14
ENDBRANCH  11  13
BRANCH  11  23
HETATM   23  C   UNL     1      -7.936  11.404  67.962  1.00  0.00    -0.127 C  
BRANCH  23  24
HETATM   24  C   UNL     1      -6.939  12.355  68.650  1.00  0.00    -0.091 C  
HETATM   25  C   UNL     1      -6.029  14.632  69.168  1.00  0.00    -0.100 C  
HETATM   26  O   UNL     1      -5.956  11.889  69.240  1.00  0.00    -0.066 OA 
HETATM   27  N   UNL     1      -7.102  13.723  68.694  1.00  0.00    -0.099 N  
HETATM   28  C   UNL     1      -5.703  14.683  70.687  1.00  0.00    -0.163 C  
HETATM   29  O   UNL     1      -5.261  15.675  71.258  1.00  0.00    -0.148 OA 
HETATM   30  C   UNL     1      -8.332  14.479  68.566  1.00  0.00    -0.160 C  
HETATM   31  C   UNL     1      -7.913  15.905  68.163  1.00  0.00    -0.137 C  
HETATM   32  O   UNL     1      -5.813  13.502  71.332  1.00  0.00    -0.305 OA 
HETATM   33  C   UNL     1      -6.472  16.032  68.701  1.00  0.00    -0.118 C  
BRANCH  31  34
HETATM   34  C   UNL     1      -7.992  16.240  66.642  1.00  0.00    -0.324 C  
HETATM   35  C   UNL     1     -10.493  16.666  66.536  1.00  0.00    -0.262 C  
HETATM   36  C   UNL     1     -10.287  18.155  66.285  1.00  0.00    -0.407 C  
HETATM   37  C   UNL     1      -8.920  18.654  66.749  1.00  0.00    -0.297 C  
HETATM   38  C   UNL     1      -9.326  15.860  65.977  1.00  0.00    -0.385 C  
HETATM   39  C   UNL     1      -7.755  17.743  66.345  1.00  0.00    -0.318 C  
ENDBRANCH  31  34
ENDBRANCH  23  24
ENDBRANCH  11  23
ENDBRANCH  10  11
ENDBRANCH   6  10
ENDBRANCH   5   6
ENDBRANCH   3   5
ENDBRANCH   2   3
TORSDOF 13
ENDMDL
MODEL      216
REMARK 921   NORMALIZED FREE ENERGY PREDICTED BY IDOCK:   -3.57 KCAL/MOL
REMARK 922        TOTAL FREE ENERGY PREDICTED BY IDOCK:   -8.75 KCAL/MOL
REMARK 923 INTER-LIGAND FREE ENERGY PREDICTED BY IDOCK:   -8.24 KCAL/MOL
REMARK 924 INTRA-LIGAND FREE ENERGY PREDICTED BY IDOCK:   -0.51 KCAL/MOL
REMARK 927      BINDING AFFINITY PREDICTED BY RF-SCORE:    0.00 PKD
ROOT
HETATM    1  C   UNL     1      -6.183   7.857  66.170  1.00  0.00    -0.045 C  
HETATM    2  C   UNL     1      -7.561   7.886  66.806  1.00  0.00    -0.098 C  
ENDROOT
BRANCH   2   3
HETATM    3  C   UNL     1      -8.679   8.603  66.053  1.00  0.00    -0.170 C  
HETATM    4  O   UNL     1      -9.838   8.202  66.058  1.00  0.00    -0.104 OA 
BRANCH   3   5
HETATM    5  O   UNL     1      -8.270   9.768  65.493  1.00  0.00    -0.121 OA 
BRANCH   5   6
HETATM    6  C   UNL     1      -8.510  11.011  66.226  1.00  0.00    -0.165 C  
HETATM    7  C   UNL     1      -7.242  11.280  67.116  1.00  0.00    -0.126 C  
HETATM    8  C   UNL     1      -7.340  12.542  67.971  1.00  0.00    -0.111 C  
HETATM    9  C   UNL     1      -5.942  11.325  66.310  1.00  0.00    -0.100 C  
BRANCH   6  10
HETATM   10  O   UNL     1      -9.734  11.052  67.020  1.00  0.00    -0.179 OA 
BRANCH  10  11
HETATM   11  P   UNL     1     -10.965  12.041  66.486  1.00  0.00    -0.322 P  
HETATM   12  O   UNL     1     -11.142  11.203  65.197  1.00  0.00    -0.150 OA 
BRANCH  11  13
HETATM   13  C   UNL     1     -10.044  13.451  65.473  1.00  0.00    -0.266 C  
BRANCH  13  14
HETATM   14  C   UNL     1     -11.023  14.382  64.750  1.00  0.00    -0.409 C  
BRANCH  14  15
HETATM   15  C   UNL     1     -11.011  15.812  65.261  1.00  0.00    -0.354 C  
BRANCH  15  16
HETATM   16  C   UNL     1      -9.821  15.997  66.218  1.00  0.00    -0.331 C  
BRANCH  16  17
HETATM   17  C   UNL     1      -9.870  17.353  66.863  1.00  0.00    -0.289 A  
HETATM   18  C   UNL     1     -10.435  18.444  66.189  1.00  0.00    -0.422 A  
HETATM   19  C   UNL     1      -9.403  17.519  68.172  1.00  0.00    -0.276 A  
HETATM   20  C   UNL     1     -10.064  19.844  68.125  1.00  0.00    -0.569 A  
HETATM   21  C   UNL     1     -10.523  19.690  66.822  1.00  0.00    -0.605 A  
HETATM   22  C   UNL     1      -9.505  18.761  68.798  1.00  0.00    -0.380 A  
ENDBRANCH  16  17
ENDBRANCH  15  16
ENDBRANCH  14  15
ENDBRANCH  13  14
ENDBRANCH  11  13
BRANCH  11  23
HETATM   23  C   UNL     1     -10.755  13.031  68.011  1.00  0.00    -0.232 C  
BRANCH  23  24
HETATM   24  C   UNL     1     -11.119  12.282  69.307  1.00  0.00    -0.158 C  
HETATM   25  C   UNL     1     -12.404  12.023  71.443  1.00  0.00     0.012 C  
HETATM   26  O   UNL     1     -10.449  11.302  69.656  1.00  0.00    -0.070 OA 
HETATM   27  N   UNL     1     -12.200  12.612  70.095  1.00  0.00    -0.280 N  
HETATM   28  C   UNL     1     -12.853  10.539  71.554  1.00  0.00    -0.463 C  
HETATM   29  O   UNL     1     -13.524  10.096  72.481  1.00  0.00    -0.236 OA 
HETATM   30  C   UNL     1     -13.403  13.323  69.709  1.00  0.00     1.846 C  
HETATM   31  C   UNL     1     -14.006  13.874  71.014  1.00  0.00     0.235 C  
HETATM   32  O   UNL     1     -12.339   9.718  70.614  1.00  0.00    -0.253 OA 
HETATM   33  C   UNL     1     -13.468  12.921  72.102  1.00  0.00    -0.619 C  
BRANCH  31  34
HETATM   34  C   UNL     1     -13.685  15.365  71.343  1.00  0.00    -0.591 C  
HETATM   35  C   UNL     1     -12.686  14.978  73.644  1.00  0.00    -0.650 C  
HETATM   36  C   UNL     1     -11.290  15.363  73.167  1.00  0.00     0.151 C  
HETATM   37  C   UNL     1     -11.119  15.227  71.655  1.00  0.00    -0.251 C  
HETATM   38  C   UNL     1     -13.752  15.713  72.840  1.00  0.00    -0.628 C  
HETATM   39  C   UNL     1     -12.285  15.802  70.842  1.00  0.00    -0.458 C  
ENDBRANCH  31  34
ENDBRANCH  23  24
ENDBRANCH  11  23
ENDBRANCH  10  11
ENDBRANCH   6  10
ENDBRANCH   5   6
ENDBRANCH   3   5
ENDBRANCH   2   3
TORSDOF 13
ENDMDL
MODEL      217
REMARK 921   NORMALIZED FREE ENERGY PREDICTED BY IDOCK:   -3.57 KCAL/MOL
REMARK 922        TOTAL FREE ENERGY PREDICTED BY IDOCK:   -8.75 KCAL/MOL
REMARK 923 INTER-LIGAND FREE ENERGY PREDICTED BY IDOCK:   -7.25 KCAL/MOL
REMARK 924 INTRA-LIGAND FREE ENERGY PREDICTED BY IDOCK:   -1.50 KCAL/MOL
REMARK 927      BINDING AFFINITY PREDICTED BY RF-SCORE:    0.00 PKD
ROOT
HETATM    1  C   UNL     1      -6.457   9.925  63.110  1.00  0.00    -0.123 C  
HETATM    2  C   UNL     1      -5.390  10.338  64.107  1.00  0.00    -0.133 C  
ENDROOT
BRANCH   2   3
HETATM    3  C   UNL     1      -5.738  10.274  65.592  1.00  0.00    -0.088 C  
HETATM    4  O   UNL     1      -5.144   9.541  66.376  1.00  0.00    -0.038 OA 
BRANCH   3   5
HETATM    5  O   UNL     1      -6.675  11.186  65.950  1.00  0.00    -0.035 OA 
BRANCH   5   6
HETATM    6  C   UNL     1      -7.312  11.048  67.259  1.00  0.00    -0.106 C  
HETATM    7  C   UNL     1      -6.186  11.206  68.345  1.00  0.00    -0.045 C  
HETATM    8  C   UNL     1      -6.684  11.065  69.782  1.00  0.00    -0.136 C  
HETATM    9  C   UNL     1      -5.408  12.517  68.216  1.00  0.00    -0.061 C  
BRANCH   6  10
HETATM   10  O   UNL     1      -8.079   9.823  67.465  1.00  0.00    -0.112 OA 
BRANCH  10  11
HETATM   11  P   UNL     1      -9.736   9.959  67.558  1.00  0.00    -0.173 P  
HETATM   12  O   UNL     1      -9.833  10.369  66.068  1.00  0.00    -0.208 OA 
BRANCH  11  13
HETATM   13  C   UNL     1     -10.036  11.820  68.114  1.00  0.00    -0.194 C  
BRANCH  13  14
HETATM   14  C   UNL     1     -10.851  11.917  69.408  1.00  0.00    -0.089 C  
BRANCH  14  15
HETATM   15  C   UNL     1     -11.747  13.141  69.488  1.00  0.00    -0.382 C  
BRANCH  15  16
HETATM   16  C   UNL     1     -12.640  13.034  70.734  1.00  0.00    -0.321 C  
BRANCH  16  17
HETATM   17  C   UNL     1     -12.549  14.288  71.558  1.00  0.00    -0.432 A  
HETATM   18  C   UNL     1     -12.992  14.301  72.887  1.00  0.00    -0.548 A  
HETATM   19  C   UNL     1     -11.963  15.437  71.015  1.00  0.00    -0.409 A  
HETATM   20  C   UNL     1     -12.262  16.594  73.116  1.00  0.00    -0.312 A  
HETATM   21  C   UNL     1     -12.853  15.460  73.660  1.00  0.00    -0.685 A  
HETATM   22  C   UNL     1     -11.818  16.583  71.797  1.00  0.00    -0.220 A  
ENDBRANCH  16  17
ENDBRANCH  15  16
ENDBRANCH  14  15
ENDBRANCH  13  14
ENDBRANCH  11  13
BRANCH  11  23
HETATM   23  C   UNL     1      -9.622   9.475  69.319  1.00  0.00    -0.175 C  
BRANCH  23  24
HETATM   24  C   UNL     1     -10.084   8.035  69.610  1.00  0.00    -0.198 C  
HETATM   25  C   UNL     1     -10.127   5.572  69.145  1.00  0.00    -0.216 C  
HETATM   26  O   UNL     1     -10.968   7.834  70.453  1.00  0.00    -0.246 OA 
HETATM   27  N   UNL     1      -9.526   6.924  69.015  1.00  0.00    -0.138 N  
HETATM   28  C   UNL     1     -10.013   4.826  70.503  1.00  0.00    -0.236 C  
HETATM   29  O   UNL     1      -9.983   3.605  70.611  1.00  0.00    -0.125 OA 
HETATM   30  C   UNL     1      -8.210   6.794  68.423  1.00  0.00    -0.119 C  
HETATM   31  C   UNL     1      -8.290   5.588  67.471  1.00  0.00    -0.100 C  
HETATM   32  O   UNL     1     -10.082   5.618  71.594  1.00  0.00    -0.183 OA 
HETATM   33  C   UNL     1      -9.438   4.734  68.051  1.00  0.00    -0.182 C  
BRANCH  31  34
HETATM   34  C   UNL     1      -8.521   5.916  65.963  1.00  0.00    -0.137 C  
HETATM   35  C   UNL     1      -6.083   6.223  65.325  1.00  0.00    -0.030 C  
HETATM   36  C   UNL     1      -6.086   4.957  64.476  1.00  0.00    -0.022 C  
HETATM   37  C   UNL     1      -7.197   3.983  64.862  1.00  0.00    -0.067 C  
HETATM   38  C   UNL     1      -7.469   6.857  65.351  1.00  0.00    -0.088 C  
HETATM   39  C   UNL     1      -8.563   4.648  65.073  1.00  0.00    -0.138 C  
ENDBRANCH  31  34
ENDBRANCH  23  24
ENDBRANCH  11  23
ENDBRANCH  10  11
ENDBRANCH   6  10
ENDBRANCH   5   6
ENDBRANCH   3   5
ENDBRANCH   2   3
TORSDOF 13
ENDMDL
MODEL      218
REMARK 921   NORMALIZED FREE ENERGY PREDICTED BY IDOCK:   -3.57 KCAL/MOL
REMARK 922        TOTAL FREE ENERGY PREDICTED BY IDOCK:   -8.74 KCAL/MOL
REMARK 923 INTER-LIGAND FREE ENERGY PREDICTED BY IDOCK:   -7.17 KCAL/MOL
REMARK 924 INTRA-LIGAND FREE ENERGY PREDICTED BY IDOCK:   -1.57 KCAL/MOL
REMARK 927      BINDING AFFINITY PREDICTED BY RF-SCORE:    0.00 PKD
ROOT
HETATM    1  C   UNL     1      -5.522  15.001  70.194  1.00  0.00    -0.121 C  
HETATM    2  C   UNL     1      -6.314  16.189  69.678  1.00  0.00    -0.192 C  
ENDROOT
BRANCH   2   3
HETATM    3  C   UNL     1      -7.678  15.918  69.048  1.00  0.00    -0.209 C  
HETATM    4  O   UNL     1      -8.642  15.538  69.705  1.00  0.00    -0.212 OA 
BRANCH   3   5
HETATM    5  O   UNL     1      -7.725  16.252  67.735  1.00  0.00    -0.136 OA 
BRANCH   5   6
HETATM    6  C   UNL     1      -9.024  16.582  67.150  1.00  0.00    -0.205 C  
HETATM    7  C   UNL     1      -9.452  17.982  67.721  1.00  0.00    -0.264 C  
HETATM    8  C   UNL     1     -10.811  18.469  67.221  1.00  0.00    -0.330 C  
HETATM    9  C   UNL     1      -8.411  19.075  67.470  1.00  0.00    -0.303 C  
BRANCH   6  10
HETATM   10  O   UNL     1     -10.076  15.587  67.341  1.00  0.00    -0.241 OA 
BRANCH  10  11
HETATM   11  P   UNL     1      -9.980  14.184  66.448  1.00  0.00    -0.310 P  
HETATM   12  O   UNL     1      -9.462  14.953  65.208  1.00  0.00    -0.084 OA 
BRANCH  11  13
HETATM   13  C   UNL     1     -11.759  14.014  65.628  1.00  0.00    -0.354 C  
BRANCH  13  14
HETATM   14  C   UNL     1     -11.862  12.791  64.710  1.00  0.00    -0.423 C  
BRANCH  14  15
HETATM   15  C   UNL     1     -10.679  12.616  63.774  1.00  0.00    -0.454 C  
BRANCH  15  16
HETATM   16  C   UNL     1     -10.765  11.236  63.103  1.00  0.00    -0.173 C  
BRANCH  16  17
HETATM   17  C   UNL     1      -9.502  10.456  63.336  1.00  0.00    -0.356 A  
HETATM   18  C   UNL     1      -8.354  10.715  62.575  1.00  0.00    -0.242 A  
HETATM   19  C   UNL     1      -9.449   9.505  64.362  1.00  0.00    -0.018 A  
HETATM   20  C   UNL     1      -7.122   9.083  63.863  1.00  0.00    -0.092 A  
HETATM   21  C   UNL     1      -7.168  10.020  62.837  1.00  0.00    -0.129 A  
HETATM   22  C   UNL     1      -8.259   8.826  64.624  1.00  0.00    -0.166 A  
ENDBRANCH  16  17
ENDBRANCH  15  16
ENDBRANCH  14  15
ENDBRANCH  13  14
ENDBRANCH  11  13
BRANCH  11  23
HETATM   23  C   UNL     1     -10.593  13.276  67.913  1.00  0.00    -0.238 C  
BRANCH  23  24
HETATM   24  C   UNL     1      -9.581  12.280  68.509  1.00  0.00    -0.125 C  
HETATM   25  C   UNL     1      -8.976  10.279  69.893  1.00  0.00     0.046 C  
HETATM   26  O   UNL     1      -8.368  12.494  68.388  1.00  0.00    -0.167 OA 
HETATM   27  N   UNL     1      -9.949  11.111  69.140  1.00  0.00    -0.139 N  
HETATM   28  C   UNL     1      -7.926   9.451  69.103  1.00  0.00    -0.091 C  
HETATM   29  O   UNL     1      -7.445   8.396  69.504  1.00  0.00    -0.083 OA 
HETATM   30  C   UNL     1     -11.182  10.364  68.988  1.00  0.00    -0.234 C  
HETATM   31  C   UNL     1     -11.306   9.490  70.249  1.00  0.00    -0.284 C  
HETATM   32  O   UNL     1      -7.464  10.041  67.980  1.00  0.00    -0.086 OA 
HETATM   33  C   UNL     1      -9.848   9.322  70.728  1.00  0.00    -0.350 C  
BRANCH  31  34
HETATM   34  C   UNL     1     -12.224  10.044  71.382  1.00  0.00    -0.510 C  
HETATM   35  C   UNL     1     -14.339   8.808  70.716  1.00  0.00     0.335 C  
HETATM   36  C   UNL     1     -14.283   7.925  71.957  1.00  0.00    -0.441 C  
HETATM   37  C   UNL     1     -12.884   7.837  72.563  1.00  0.00     0.110 C  
HETATM   38  C   UNL     1     -13.707  10.168  70.994  1.00  0.00     0.078 C  
HETATM   39  C   UNL     1     -12.168   9.189  72.673  1.00  0.00     0.019 C  
ENDBRANCH  31  34
ENDBRANCH  23  24
ENDBRANCH  11  23
ENDBRANCH  10  11
ENDBRANCH   6  10
ENDBRANCH   5   6
ENDBRANCH   3   5
ENDBRANCH   2   3
TORSDOF 13
ENDMDL
MODEL      219
REMARK 921   NORMALIZED FREE ENERGY PREDICTED BY IDOCK:   -3.53 KCAL/MOL
REMARK 922        TOTAL FREE ENERGY PREDICTED BY IDOCK:   -8.67 KCAL/MOL
REMARK 923 INTER-LIGAND FREE ENERGY PREDICTED BY IDOCK:   -8.24 KCAL/MOL
REMARK 924 INTRA-LIGAND FREE ENERGY PREDICTED BY IDOCK:   -0.43 KCAL/MOL
REMARK 927      BINDING AFFINITY PREDICTED BY RF-SCORE:    0.00 PKD
ROOT
HETATM    1  C   UNL     1      -6.717   3.119  66.470  1.00  0.00    -0.048 C  
HETATM    2  C   UNL     1      -7.224   4.526  66.727  1.00  0.00    -0.080 C  
ENDROOT
BRANCH   2   3
HETATM    3  C   UNL     1      -7.839   5.288  65.556  1.00  0.00    -0.093 C  
HETATM    4  O   UNL     1      -8.967   5.050  65.136  1.00  0.00    -0.153 OA 
BRANCH   3   5
HETATM    5  O   UNL     1      -7.057   6.308  65.127  1.00  0.00    -0.057 OA 
BRANCH   5   6
HETATM    6  C   UNL     1      -7.683   7.608  64.886  1.00  0.00    -0.107 C  
HETATM    7  C   UNL     1      -7.471   7.954  63.367  1.00  0.00    -0.122 C  
HETATM    8  C   UNL     1      -8.051   9.304  62.950  1.00  0.00    -0.154 C  
HETATM    9  C   UNL     1      -8.004   6.872  62.426  1.00  0.00    -0.122 C  
BRANCH   6  10
HETATM   10  O   UNL     1      -7.231   8.698  65.746  1.00  0.00    -0.078 OA 
BRANCH  10  11
HETATM   11  P   UNL     1      -8.160   9.062  67.080  1.00  0.00    -0.106 P  
HETATM   12  O   UNL     1      -7.657   7.806  67.832  1.00  0.00    -0.110 OA 
BRANCH  11  13
HETATM   13  C   UNL     1      -9.882   8.185  66.720  1.00  0.00    -0.259 C  
BRANCH  13  14
HETATM   14  C   UNL     1     -10.522   7.614  67.990  1.00  0.00    -0.247 C  
BRANCH  14  15
HETATM   15  C   UNL     1     -10.850   6.134  67.909  1.00  0.00    -0.406 C  
BRANCH  15  16
HETATM   16  C   UNL     1      -9.912   5.356  68.846  1.00  0.00    -0.247 C  
BRANCH  16  17
HETATM   17  C   UNL     1     -10.428   5.392  70.257  1.00  0.00    -0.355 A  
HETATM   18  C   UNL     1     -11.479   6.247  70.610  1.00  0.00    -0.397 A  
HETATM   19  C   UNL     1      -9.897   4.521  71.216  1.00  0.00    -0.260 A  
HETATM   20  C   UNL     1     -11.460   5.359  72.858  1.00  0.00    -0.340 A  
HETATM   21  C   UNL     1     -11.987   6.233  71.914  1.00  0.00    -0.342 A  
HETATM   22  C   UNL     1     -10.417   4.505  72.510  1.00  0.00    -0.251 A  
ENDBRANCH  16  17
ENDBRANCH  15  16
ENDBRANCH  14  15
ENDBRANCH  13  14
ENDBRANCH  11  13
BRANCH  11  23
HETATM   23  C   UNL     1      -8.755  10.546  66.191  1.00  0.00    -0.158 C  
BRANCH  23  24
HETATM   24  C   UNL     1      -8.257  11.879  66.781  1.00  0.00    -0.129 C  
HETATM   25  C   UNL     1      -8.613  14.211  67.628  1.00  0.00    -0.189 C  
HETATM   26  O   UNL     1      -7.041  12.090  66.877  1.00  0.00    -0.121 OA 
HETATM   27  N   UNL     1      -9.100  12.855  67.267  1.00  0.00    -0.200 N  
HETATM   28  C   UNL     1      -7.765  14.387  68.917  1.00  0.00    -0.128 C  
HETATM   29  O   UNL     1      -7.741  15.416  69.584  1.00  0.00    -0.217 OA 
HETATM   30  C   UNL     1     -10.458  12.703  67.750  1.00  0.00    -0.221 C  
HETATM   31  C   UNL     1     -11.097  14.101  67.668  1.00  0.00    -0.296 C  
HETATM   32  O   UNL     1      -6.932  13.361  69.194  1.00  0.00    -0.104 OA 
HETATM   33  C   UNL     1      -9.892  15.063  67.746  1.00  0.00    -0.220 C  
BRANCH  31  34
HETATM   34  C   UNL     1     -11.977  14.381  66.411  1.00  0.00    -0.402 C  
HETATM   35  C   UNL     1     -10.127  14.220  64.680  1.00  0.00     0.010 C  
HETATM   36  C   UNL     1     -10.699  12.930  64.104  1.00  0.00    -0.443 C  
HETATM   37  C   UNL     1     -11.603  12.189  65.087  1.00  0.00    -0.372 C  
HETATM   38  C   UNL     1     -11.237  15.088  65.263  1.00  0.00    -0.368 C  
HETATM   39  C   UNL     1     -12.603  13.094  65.817  1.00  0.00    -0.351 C  
ENDBRANCH  31  34
ENDBRANCH  23  24
ENDBRANCH  11  23
ENDBRANCH  10  11
ENDBRANCH   6  10
ENDBRANCH   5   6
ENDBRANCH   3   5
ENDBRANCH   2   3
TORSDOF 13
ENDMDL
MODEL      220
REMARK 921   NORMALIZED FREE ENERGY PREDICTED BY IDOCK:   -3.50 KCAL/MOL
REMARK 922        TOTAL FREE ENERGY PREDICTED BY IDOCK:   -8.63 KCAL/MOL
REMARK 923 INTER-LIGAND FREE ENERGY PREDICTED BY IDOCK:   -6.96 KCAL/MOL
REMARK 924 INTRA-LIGAND FREE ENERGY PREDICTED BY IDOCK:   -1.67 KCAL/MOL
REMARK 927      BINDING AFFINITY PREDICTED BY RF-SCORE:    0.00 PKD
ROOT
HETATM    1  C   UNL     1      -6.919   2.632  66.334  1.00  0.00    -0.049 C  
HETATM    2  C   UNL     1      -7.457   4.035  66.544  1.00  0.00    -0.084 C  
ENDROOT
BRANCH   2   3
HETATM    3  C   UNL     1      -8.039   4.764  65.336  1.00  0.00    -0.112 C  
HETATM    4  O   UNL     1      -9.174   4.551  64.923  1.00  0.00    -0.152 OA 
BRANCH   3   5
HETATM    5  O   UNL     1      -7.216   5.731  64.861  1.00  0.00    -0.062 OA 
BRANCH   5   6
HETATM    6  C   UNL     1      -7.707   7.108  64.835  1.00  0.00    -0.117 C  
HETATM    7  C   UNL     1      -7.578   7.623  63.355  1.00  0.00    -0.119 C  
HETATM    8  C   UNL     1      -8.032   9.068  63.157  1.00  0.00    -0.151 C  
HETATM    9  C   UNL     1      -8.304   6.732  62.345  1.00  0.00     0.008 C  
BRANCH   6  10
HETATM   10  O   UNL     1      -7.068   8.027  65.773  1.00  0.00    -0.062 OA 
BRANCH  10  11
HETATM   11  P   UNL     1      -7.856   8.334  67.209  1.00  0.00    -0.106 P  
HETATM   12  O   UNL     1      -7.292   7.043  67.850  1.00  0.00    -0.092 OA 
BRANCH  11  13
HETATM   13  C   UNL     1      -9.614   7.482  66.983  1.00  0.00    -0.170 C  
BRANCH  13  14
HETATM   14  C   UNL     1     -10.468   7.565  68.253  1.00  0.00    -0.223 C  
BRANCH  14  15
HETATM   15  C   UNL     1      -9.775   8.239  69.424  1.00  0.00    -0.177 C  
BRANCH  15  16
HETATM   16  C   UNL     1     -10.462   9.583  69.713  1.00  0.00    -0.253 C  
BRANCH  16  17
HETATM   17  C   UNL     1     -11.565   9.406  70.718  1.00  0.00    -0.364 A  
HETATM   18  C   UNL     1     -12.584  10.361  70.834  1.00  0.00    -0.478 A  
HETATM   19  C   UNL     1     -11.612   8.250  71.506  1.00  0.00    -0.326 A  
HETATM   20  C   UNL     1     -13.678   9.004  72.509  1.00  0.00    -0.499 A  
HETATM   21  C   UNL     1     -13.635  10.159  71.736  1.00  0.00    -0.304 A  
HETATM   22  C   UNL     1     -12.669   8.052  72.394  1.00  0.00    -0.177 A  
ENDBRANCH  16  17
ENDBRANCH  15  16
ENDBRANCH  14  15
ENDBRANCH  13  14
ENDBRANCH  11  13
BRANCH  11  23
HETATM   23  C   UNL     1      -8.524   9.860  66.451  1.00  0.00    -0.124 C  
BRANCH  23  24
HETATM   24  C   UNL     1      -7.628  11.100  66.629  1.00  0.00    -0.147 C  
HETATM   25  C   UNL     1      -7.219  13.468  67.341  1.00  0.00    -0.098 C  
HETATM   26  O   UNL     1      -6.492  11.110  66.138  1.00  0.00    -0.118 OA 
HETATM   27  N   UNL     1      -8.001  12.205  67.362  1.00  0.00    -0.159 N  
HETATM   28  C   UNL     1      -5.852  13.517  68.078  1.00  0.00    -0.130 C  
HETATM   29  O   UNL     1      -5.377  14.535  68.569  1.00  0.00    -0.090 OA 
HETATM   30  C   UNL     1      -8.983  12.282  68.425  1.00  0.00    -0.141 C  
HETATM   31  C   UNL     1      -9.385  13.765  68.525  1.00  0.00    -0.144 C  
HETATM   32  O   UNL     1      -5.139  12.371  68.029  1.00  0.00    -0.060 OA 
HETATM   33  C   UNL     1      -8.162  14.518  67.960  1.00  0.00    -0.145 C  
BRANCH  31  34
HETATM   34  C   UNL     1     -10.701  14.172  67.793  1.00  0.00    -0.251 C  
HETATM   35  C   UNL     1     -11.958  15.009  69.834  1.00  0.00    -0.374 C  
HETATM   36  C   UNL     1     -11.899  16.454  69.349  1.00  0.00     0.136 C  
HETATM   37  C   UNL     1     -10.774  16.700  68.345  1.00  0.00    -0.353 C  
HETATM   38  C   UNL     1     -11.970  14.045  68.653  1.00  0.00    -0.389 C  
HETATM   39  C   UNL     1     -10.665  15.625  67.257  1.00  0.00    -0.305 C  
ENDBRANCH  31  34
ENDBRANCH  23  24
ENDBRANCH  11  23
ENDBRANCH  10  11
ENDBRANCH   6  10
ENDBRANCH   5   6
ENDBRANCH   3   5
ENDBRANCH   2   3
TORSDOF 13
ENDMDL
MODEL      221
REMARK 921   NORMALIZED FREE ENERGY PREDICTED BY IDOCK:   -3.50 KCAL/MOL
REMARK 922        TOTAL FREE ENERGY PREDICTED BY IDOCK:   -8.62 KCAL/MOL
REMARK 923 INTER-LIGAND FREE ENERGY PREDICTED BY IDOCK:   -7.44 KCAL/MOL
REMARK 924 INTRA-LIGAND FREE ENERGY PREDICTED BY IDOCK:   -1.18 KCAL/MOL
REMARK 927      BINDING AFFINITY PREDICTED BY RF-SCORE:    0.00 PKD
ROOT
HETATM    1  C   UNL     1     -12.908  13.773  65.787  1.00  0.00    -0.430 C  
HETATM    2  C   UNL     1     -12.277  12.513  65.224  1.00  0.00    -0.493 C  
ENDROOT
BRANCH   2   3
HETATM    3  C   UNL     1     -10.753  12.429  65.196  1.00  0.00    -0.292 C  
HETATM    4  O   UNL     1     -10.103  12.589  64.168  1.00  0.00    -0.337 OA 
BRANCH   3   5
HETATM    5  O   UNL     1     -10.214  12.279  66.432  1.00  0.00    -0.219 OA 
BRANCH   5   6
HETATM    6  C   UNL     1     -10.504  11.050  67.170  1.00  0.00    -0.232 C  
HETATM    7  C   UNL     1     -10.296   9.849  66.177  1.00  0.00    -0.223 C  
HETATM    8  C   UNL     1     -10.583   8.479  66.789  1.00  0.00    -0.227 C  
HETATM    9  C   UNL     1      -8.902   9.829  65.545  1.00  0.00    -0.192 C  
BRANCH   6  10
HETATM   10  O   UNL     1     -11.817  10.989  67.808  1.00  0.00    -0.605 OA 
BRANCH  10  11
HETATM   11  P   UNL     1     -11.863  10.668  69.442  1.00  0.00    -0.152 P  
HETATM   12  O   UNL     1     -13.409  10.752  69.463  1.00  0.00     0.269 OA 
BRANCH  11  13
HETATM   13  C   UNL     1     -11.731  12.439  70.284  1.00  0.00    -0.123 C  
BRANCH  13  14
HETATM   14  C   UNL     1     -11.115  13.484  69.347  1.00  0.00    -0.173 C  
BRANCH  14  15
HETATM   15  C   UNL     1     -12.040  14.641  69.014  1.00  0.00    -0.270 C  
BRANCH  15  16
HETATM   16  C   UNL     1     -11.504  15.923  69.672  1.00  0.00    -0.346 C  
BRANCH  16  17
HETATM   17  C   UNL     1     -10.586  16.654  68.734  1.00  0.00    -0.340 A  
HETATM   18  C   UNL     1      -9.717  15.947  67.892  1.00  0.00    -0.216 A  
HETATM   19  C   UNL     1     -10.638  18.051  68.654  1.00  0.00    -0.114 A  
HETATM   20  C   UNL     1      -8.969  18.023  66.905  1.00  0.00    -0.268 A  
HETATM   21  C   UNL     1      -8.905  16.637  66.983  1.00  0.00    -0.220 A  
HETATM   22  C   UNL     1      -9.834  18.728  67.738  1.00  0.00    -0.375 A  
ENDBRANCH  16  17
ENDBRANCH  15  16
ENDBRANCH  14  15
ENDBRANCH  13  14
ENDBRANCH  11  13
BRANCH  11  23
HETATM   23  C   UNL     1     -10.036  10.568  69.417  1.00  0.00    -0.209 C  
BRANCH  23  24
HETATM   24  C   UNL     1      -9.444   9.549  70.409  1.00  0.00    -0.262 C  
HETATM   25  C   UNL     1      -8.148   7.477  70.966  1.00  0.00    -0.100 C  
HETATM   26  O   UNL     1      -9.749   9.614  71.607  1.00  0.00    -0.017 OA 
HETATM   27  N   UNL     1      -8.537   8.578  70.048  1.00  0.00    -0.131 N  
HETATM   28  C   UNL     1      -7.230   7.799  72.178  1.00  0.00    -0.075 C  
HETATM   29  O   UNL     1      -6.451   6.993  72.677  1.00  0.00    -0.053 OA 
HETATM   30  C   UNL     1      -7.639   8.574  68.909  1.00  0.00    -0.096 C  
HETATM   31  C   UNL     1      -7.256   7.101  68.677  1.00  0.00    -0.094 C  
HETATM   32  O   UNL     1      -7.440   9.006  72.746  1.00  0.00    -0.331 OA 
HETATM   33  C   UNL     1      -7.446   6.446  70.062  1.00  0.00    -0.091 C  
BRANCH  31  34
HETATM   34  C   UNL     1      -8.056   6.349  67.569  1.00  0.00    -0.117 C  
HETATM   35  C   UNL     1      -6.118   5.966  65.975  1.00  0.00    -0.032 C  
HETATM   36  C   UNL     1      -6.133   4.462  66.227  1.00  0.00    -0.031 C  
HETATM   37  C   UNL     1      -6.800   4.086  67.548  1.00  0.00    -0.051 C  
HETATM   38  C   UNL     1      -7.514   6.554  66.144  1.00  0.00    -0.081 C  
HETATM   39  C   UNL     1      -8.121   4.819  67.809  1.00  0.00    -0.093 C  
ENDBRANCH  31  34
ENDBRANCH  23  24
ENDBRANCH  11  23
ENDBRANCH  10  11
ENDBRANCH   6  10
ENDBRANCH   5   6
ENDBRANCH   3   5
ENDBRANCH   2   3
TORSDOF 13
ENDMDL
MODEL      222
REMARK 921   NORMALIZED FREE ENERGY PREDICTED BY IDOCK:   -3.49 KCAL/MOL
REMARK 922        TOTAL FREE ENERGY PREDICTED BY IDOCK:   -8.61 KCAL/MOL
REMARK 923 INTER-LIGAND FREE ENERGY PREDICTED BY IDOCK:   -9.44 KCAL/MOL
REMARK 924 INTRA-LIGAND FREE ENERGY PREDICTED BY IDOCK:    0.83 KCAL/MOL
REMARK 927      BINDING AFFINITY PREDICTED BY RF-SCORE:    0.00 PKD
ROOT
HETATM    1  C   UNL     1     -12.391   9.575  70.963  1.00  0.00    -0.363 C  
HETATM    2  C   UNL     1     -11.486  10.342  70.016  1.00  0.00    -0.367 C  
ENDROOT
BRANCH   2   3
HETATM    3  C   UNL     1     -11.968  11.699  69.510  1.00  0.00    -0.317 C  
HETATM    4  O   UNL     1     -12.313  12.599  70.268  1.00  0.00    -0.281 OA 
BRANCH   3   5
HETATM    5  O   UNL     1     -11.860  11.825  68.165  1.00  0.00    -0.451 OA 
BRANCH   5   6
HETATM    6  C   UNL     1     -11.124  12.971  67.633  1.00  0.00    -0.267 C  
HETATM    7  C   UNL     1     -10.941  12.732  66.089  1.00  0.00    -0.310 C  
HETATM    8  C   UNL     1     -10.164  13.838  65.377  1.00  0.00    -0.344 C  
HETATM    9  C   UNL     1     -12.265  12.506  65.357  1.00  0.00    -0.475 C  
BRANCH   6  10
HETATM   10  O   UNL     1      -9.846  13.259  68.279  1.00  0.00    -0.225 OA 
BRANCH  10  11
HETATM   11  P   UNL     1      -8.503  12.442  67.727  1.00  0.00    -0.193 P  
HETATM   12  O   UNL     1      -9.320  11.145  67.515  1.00  0.00    -0.165 OA 
BRANCH  11  13
HETATM   13  C   UNL     1      -7.692  11.695  69.354  1.00  0.00     0.290 C  
BRANCH  13  14
HETATM   14  C   UNL     1      -7.429  10.190  69.235  1.00  0.00    -0.111 C  
BRANCH  14  15
HETATM   15  C   UNL     1      -7.869   9.385  70.445  1.00  0.00    -0.179 C  
BRANCH  15  16
HETATM   16  C   UNL     1      -8.666   8.158  69.974  1.00  0.00    -0.131 C  
BRANCH  16  17
HETATM   17  C   UNL     1      -9.381   7.517  71.130  1.00  0.00    -0.155 A  
HETATM   18  C   UNL     1      -9.482   8.179  72.360  1.00  0.00    -0.319 A  
HETATM   19  C   UNL     1     -10.004   6.275  70.962  1.00  0.00    -0.213 A  
HETATM   20  C   UNL     1     -10.820   6.365  73.235  1.00  0.00    -0.270 A  
HETATM   21  C   UNL     1     -10.197   7.596  73.413  1.00  0.00    -0.375 A  
HETATM   22  C   UNL     1     -10.724   5.707  72.013  1.00  0.00    -0.291 A  
ENDBRANCH  16  17
ENDBRANCH  15  16
ENDBRANCH  14  15
ENDBRANCH  13  14
ENDBRANCH  11  13
BRANCH  11  23
HETATM   23  C   UNL     1      -7.537  13.976  67.977  1.00  0.00    -0.143 C  
BRANCH  23  24
HETATM   24  C   UNL     1      -8.392  15.219  68.289  1.00  0.00    -0.148 C  
HETATM   25  C   UNL     1      -9.047  17.614  67.949  1.00  0.00    -0.260 C  
HETATM   26  O   UNL     1      -9.165  15.202  69.255  1.00  0.00    -0.220 OA 
HETATM   27  N   UNL     1      -8.387  16.357  67.513  1.00  0.00    -0.159 N  
HETATM   28  C   UNL     1     -10.599  17.689  67.942  1.00  0.00    -0.387 C  
HETATM   29  O   UNL     1     -11.232  18.726  67.773  1.00  0.00    -0.135 OA 
HETATM   30  C   UNL     1      -8.016  16.485  66.118  1.00  0.00    -0.156 C  
HETATM   31  C   UNL     1      -7.683  17.972  65.902  1.00  0.00    -0.130 C  
HETATM   32  O   UNL     1     -11.226  16.539  68.272  1.00  0.00    -0.356 OA 
HETATM   33  C   UNL     1      -8.487  18.695  67.005  1.00  0.00    -0.275 C  
BRANCH  31  34
HETATM   34  C   UNL     1      -6.171  18.353  65.948  1.00  0.00    -0.264 C  
HETATM   35  C   UNL     1      -6.417  20.744  65.131  1.00  0.00    -0.252 C  
HETATM   36  C   UNL     1      -6.028  21.310  66.493  1.00  0.00    -0.357 C  
HETATM   37  C   UNL     1      -6.240  20.316  67.633  1.00  0.00    -0.262 C  
HETATM   38  C   UNL     1      -5.747  19.394  64.899  1.00  0.00    -0.262 C  
HETATM   39  C   UNL     1      -5.732  18.902  67.329  1.00  0.00    -0.162 C  
ENDBRANCH  31  34
ENDBRANCH  23  24
ENDBRANCH  11  23
ENDBRANCH  10  11
ENDBRANCH   6  10
ENDBRANCH   5   6
ENDBRANCH   3   5
ENDBRANCH   2   3
TORSDOF 13
ENDMDL
MODEL      223
REMARK 921   NORMALIZED FREE ENERGY PREDICTED BY IDOCK:   -3.46 KCAL/MOL
REMARK 922        TOTAL FREE ENERGY PREDICTED BY IDOCK:   -8.55 KCAL/MOL
REMARK 923 INTER-LIGAND FREE ENERGY PREDICTED BY IDOCK:   -7.61 KCAL/MOL
REMARK 924 INTRA-LIGAND FREE ENERGY PREDICTED BY IDOCK:   -0.93 KCAL/MOL
REMARK 927      BINDING AFFINITY PREDICTED BY RF-SCORE:    0.00 PKD
ROOT
HETATM    1  C   UNL     1     -12.200  14.640  64.819  1.00  0.00    -0.403 C  
HETATM    2  C   UNL     1     -12.363  13.694  65.995  1.00  0.00    -0.493 C  
ENDROOT
BRANCH   2   3
HETATM    3  C   UNL     1     -11.102  13.068  66.586  1.00  0.00    -0.289 C  
HETATM    4  O   UNL     1     -10.162  12.698  65.891  1.00  0.00    -0.264 OA 
BRANCH   3   5
HETATM    5  O   UNL     1     -11.099  13.080  67.942  1.00  0.00    -0.237 OA 
BRANCH   5   6
HETATM    6  C   UNL     1     -11.919  12.095  68.646  1.00  0.00    -0.237 C  
HETATM    7  C   UNL     1     -11.854  12.442  70.178  1.00  0.00    -0.341 C  
HETATM    8  C   UNL     1     -12.648  11.486  71.067  1.00  0.00    -0.457 C  
HETATM    9  C   UNL     1     -12.284  13.878  70.486  1.00  0.00    -0.443 C  
BRANCH   6  10
HETATM   10  O   UNL     1     -11.577  10.696  68.405  1.00  0.00    -0.349 OA 
BRANCH  10  11
HETATM   11  P   UNL     1     -10.076  10.174  68.907  1.00  0.00    -0.228 P  
HETATM   12  O   UNL     1      -9.498  11.607  68.828  1.00  0.00    -0.159 OA 
BRANCH  11  13
HETATM   13  C   UNL     1      -9.155   9.685  67.240  1.00  0.00    -0.134 C  
BRANCH  13  14
HETATM   14  C   UNL     1      -7.998   8.709  67.480  1.00  0.00    -0.106 C  
BRANCH  14  15
HETATM   15  C   UNL     1      -7.073   9.110  68.615  1.00  0.00    -0.071 C  
BRANCH  15  16
HETATM   16  C   UNL     1      -5.909   9.941  68.050  1.00  0.00    -0.039 C  
BRANCH  16  17
HETATM   17  C   UNL     1      -6.054  11.385  68.440  1.00  0.00    -0.045 A  
HETATM   18  C   UNL     1      -5.880  11.785  69.771  1.00  0.00    -0.114 A  
HETATM   19  C   UNL     1      -6.305  12.350  67.458  1.00  0.00    -0.148 A  
HETATM   20  C   UNL     1      -6.206  14.093  69.130  1.00  0.00    -0.101 A  
HETATM   21  C   UNL     1      -5.964  13.140  70.113  1.00  0.00    -0.138 A  
HETATM   22  C   UNL     1      -6.376  13.699  67.806  1.00  0.00    -0.172 A  
ENDBRANCH  16  17
ENDBRANCH  15  16
ENDBRANCH  14  15
ENDBRANCH  13  14
ENDBRANCH  11  13
BRANCH  11  23
HETATM   23  C   UNL     1     -10.760   8.479  68.999  1.00  0.00    -0.092 C  
BRANCH  23  24
HETATM   24  C   UNL     1     -10.625   7.817  70.384  1.00  0.00    -0.227 C  
HETATM   25  C   UNL     1      -9.988   5.920  71.893  1.00  0.00    -0.171 C  
HETATM   26  O   UNL     1     -11.126   8.364  71.375  1.00  0.00    -0.236 OA 
HETATM   27  N   UNL     1      -9.923   6.652  70.602  1.00  0.00    -0.183 N  
HETATM   28  C   UNL     1      -9.265   6.517  73.132  1.00  0.00    -0.127 C  
HETATM   29  O   UNL     1      -8.809   5.840  74.048  1.00  0.00    -0.123 OA 
HETATM   30  C   UNL     1      -8.855   6.089  69.800  1.00  0.00    -0.134 C  
HETATM   31  C   UNL     1      -8.796   4.594  70.161  1.00  0.00    -0.126 C  
HETATM   32  O   UNL     1      -9.285   7.865  73.208  1.00  0.00    -0.232 OA 
HETATM   33  C   UNL     1      -9.394   4.533  71.583  1.00  0.00    -0.196 C  
BRANCH  31  34
HETATM   34  C   UNL     1      -9.529   3.622  69.186  1.00  0.00    -0.235 C  
HETATM   35  C   UNL     1      -7.789   3.649  67.338  1.00  0.00    -0.079 C  
HETATM   36  C   UNL     1      -7.400   2.199  67.603  1.00  0.00    -0.055 C  
HETATM   37  C   UNL     1      -7.770   1.731  69.009  1.00  0.00    -0.044 C  
HETATM   38  C   UNL     1      -9.251   3.888  67.697  1.00  0.00    -0.203 C  
HETATM   39  C   UNL     1      -9.184   2.134  69.448  1.00  0.00    -0.184 C  
ENDBRANCH  31  34
ENDBRANCH  23  24
ENDBRANCH  11  23
ENDBRANCH  10  11
ENDBRANCH   6  10
ENDBRANCH   5   6
ENDBRANCH   3   5
ENDBRANCH   2   3
TORSDOF 13
ENDMDL
MODEL      224
REMARK 921   NORMALIZED FREE ENERGY PREDICTED BY IDOCK:   -3.38 KCAL/MOL
REMARK 922        TOTAL FREE ENERGY PREDICTED BY IDOCK:   -8.41 KCAL/MOL
REMARK 923 INTER-LIGAND FREE ENERGY PREDICTED BY IDOCK:   -7.13 KCAL/MOL
REMARK 924 INTRA-LIGAND FREE ENERGY PREDICTED BY IDOCK:   -1.27 KCAL/MOL
REMARK 927      BINDING AFFINITY PREDICTED BY RF-SCORE:    0.00 PKD
ROOT
HETATM    1  C   UNL     1      -5.162  11.198  67.167  1.00  0.00    -0.054 C  
HETATM    2  C   UNL     1      -5.933  10.348  66.174  1.00  0.00    -0.090 C  
ENDROOT
BRANCH   2   3
HETATM    3  C   UNL     1      -5.822   8.830  66.296  1.00  0.00    -0.051 C  
HETATM    4  O   UNL     1      -5.548   8.112  65.340  1.00  0.00    -0.039 OA 
BRANCH   3   5
HETATM    5  O   UNL     1      -5.941   8.397  67.575  1.00  0.00    -0.045 OA 
BRANCH   5   6
HETATM    6  C   UNL     1      -7.259   7.966  68.040  1.00  0.00    -0.090 C  
HETATM    7  C   UNL     1      -7.555   6.571  67.378  1.00  0.00    -0.100 C  
HETATM    8  C   UNL     1      -8.916   5.984  67.746  1.00  0.00    -0.111 C  
HETATM    9  C   UNL     1      -6.471   5.530  67.664  1.00  0.00    -0.051 C  
BRANCH   6  10
HETATM   10  O   UNL     1      -8.352   8.906  67.808  1.00  0.00    -0.110 OA 
BRANCH  10  11
HETATM   11  P   UNL     1      -8.540  10.152  68.897  1.00  0.00    -0.159 P  
HETATM   12  O   UNL     1      -7.979   9.290  70.054  1.00  0.00    -0.090 OA 
BRANCH  11  13
HETATM   13  C   UNL     1     -10.369   9.922  69.581  1.00  0.00    -0.241 C  
BRANCH  13  14
HETATM   14  C   UNL     1     -10.853   8.473  69.471  1.00  0.00    -0.134 C  
BRANCH  14  15
HETATM   15  C   UNL     1     -11.035   7.776  70.808  1.00  0.00    -0.259 C  
BRANCH  15  16
HETATM   16  C   UNL     1     -11.088   6.256  70.583  1.00  0.00    -0.389 C  
BRANCH  16  17
HETATM   17  C   UNL     1      -9.775   5.622  70.948  1.00  0.00    -0.223 A  
HETATM   18  C   UNL     1      -8.746   6.389  71.510  1.00  0.00    -0.134 A  
HETATM   19  C   UNL     1      -9.597   4.244  70.784  1.00  0.00    -0.256 A  
HETATM   20  C   UNL     1      -7.381   4.406  71.736  1.00  0.00    -0.068 A  
HETATM   21  C   UNL     1      -7.547   5.778  71.896  1.00  0.00    -0.097 A  
HETATM   22  C   UNL     1      -8.404   3.642  71.182  1.00  0.00    -0.086 A  
ENDBRANCH  16  17
ENDBRANCH  15  16
ENDBRANCH  14  15
ENDBRANCH  13  14
ENDBRANCH  11  13
BRANCH  11  23
HETATM   23  C   UNL     1      -9.204  11.172  67.530  1.00  0.00    -0.153 C  
BRANCH  23  24
HETATM   24  C   UNL     1      -9.081  12.690  67.755  1.00  0.00    -0.192 C  
HETATM   25  C   UNL     1      -9.943  15.040  67.616  1.00  0.00    -0.225 C  
HETATM   26  O   UNL     1      -8.004  13.168  68.135  1.00  0.00    -0.134 OA 
HETATM   27  N   UNL     1     -10.133  13.567  67.607  1.00  0.00    -0.226 N  
HETATM   28  C   UNL     1      -9.624  15.748  68.962  1.00  0.00    -0.243 C  
HETATM   29  O   UNL     1      -9.939  16.905  69.217  1.00  0.00    -0.250 OA 
HETATM   30  C   UNL     1     -11.552  13.279  67.681  1.00  0.00    -0.346 C  
HETATM   31  C   UNL     1     -12.258  14.431  66.944  1.00  0.00    -0.300 C  
HETATM   32  O   UNL     1      -8.843  15.039  69.806  1.00  0.00    -0.077 OA 
HETATM   33  C   UNL     1     -11.260  15.605  67.051  1.00  0.00    -0.127 C  
BRANCH  31  34
HETATM   34  C   UNL     1     -12.664  14.154  65.464  1.00  0.00    -0.468 C  
HETATM   35  C   UNL     1     -10.334  14.267  64.464  1.00  0.00    -0.071 C  
HETATM   36  C   UNL     1     -10.329  12.773  64.159  1.00  0.00    -0.401 C  
HETATM   37  C   UNL     1     -11.321  11.987  65.015  1.00  0.00    -0.365 C  
HETATM   38  C   UNL     1     -11.753  14.821  64.420  1.00  0.00    -0.347 C  
HETATM   39  C   UNL     1     -12.703  12.642  65.126  1.00  0.00    -0.329 C  
ENDBRANCH  31  34
ENDBRANCH  23  24
ENDBRANCH  11  23
ENDBRANCH  10  11
ENDBRANCH   6  10
ENDBRANCH   5   6
ENDBRANCH   3   5
ENDBRANCH   2   3
TORSDOF 13
ENDMDL
MODEL      225
REMARK 921   NORMALIZED FREE ENERGY PREDICTED BY IDOCK:   -3.36 KCAL/MOL
REMARK 922        TOTAL FREE ENERGY PREDICTED BY IDOCK:   -8.38 KCAL/MOL
REMARK 923 INTER-LIGAND FREE ENERGY PREDICTED BY IDOCK:   -7.68 KCAL/MOL
REMARK 924 INTRA-LIGAND FREE ENERGY PREDICTED BY IDOCK:   -0.71 KCAL/MOL
REMARK 927      BINDING AFFINITY PREDICTED BY RF-SCORE:    0.00 PKD
ROOT
HETATM    1  C   UNL     1     -10.027   6.085  68.892  1.00  0.00    -0.192 C  
HETATM    2  C   UNL     1     -10.609   6.334  70.272  1.00  0.00    -0.305 C  
ENDROOT
BRANCH   2   3
HETATM    3  C   UNL     1     -11.338   7.654  70.511  1.00  0.00    -0.250 C  
HETATM    4  O   UNL     1     -12.545   7.709  70.722  1.00  0.00    -0.115 OA 
BRANCH   3   5
HETATM    5  O   UNL     1     -10.495   8.713  70.578  1.00  0.00    -0.195 OA 
BRANCH   5   6
HETATM    6  C   UNL     1      -9.253   8.661  69.807  1.00  0.00    -0.154 C  
HETATM    7  C   UNL     1      -8.072   8.939  70.807  1.00  0.00    -0.179 C  
HETATM    8  C   UNL     1      -6.692   8.942  70.152  1.00  0.00    -0.041 C  
HETATM    9  C   UNL     1      -8.055   7.978  71.997  1.00  0.00    -0.164 C  
BRANCH   6  10
HETATM   10  O   UNL     1      -9.188   9.548  68.649  1.00  0.00    -0.134 OA 
BRANCH  10  11
HETATM   11  P   UNL     1      -9.370  11.181  68.920  1.00  0.00     0.035 P  
HETATM   12  O   UNL     1     -10.681  10.952  69.711  1.00  0.00    -0.225 OA 
BRANCH  11  13
HETATM   13  C   UNL     1     -10.392  11.815  67.364  1.00  0.00    -0.204 C  
BRANCH  13  14
HETATM   14  C   UNL     1     -11.884  11.974  67.674  1.00  0.00    -0.294 C  
BRANCH  14  15
HETATM   15  C   UNL     1     -12.418  13.378  67.449  1.00  0.00     0.102 C  
BRANCH  15  16
HETATM   16  C   UNL     1     -11.500  14.388  68.156  1.00  0.00    -0.337 C  
BRANCH  16  17
HETATM   17  C   UNL     1     -12.052  14.747  69.507  1.00  0.00    -0.328 A  
HETATM   18  C   UNL     1     -11.561  15.858  70.205  1.00  0.00    -0.357 A  
HETATM   19  C   UNL     1     -13.107  14.003  70.050  1.00  0.00     0.392 A  
HETATM   20  C   UNL     1     -13.173  15.475  71.966  1.00  0.00    -0.549 A  
HETATM   21  C   UNL     1     -12.120  16.214  71.438  1.00  0.00    -0.384 A  
HETATM   22  C   UNL     1     -13.665  14.373  71.273  1.00  0.00    -0.364 A  
ENDBRANCH  16  17
ENDBRANCH  15  16
ENDBRANCH  14  15
ENDBRANCH  13  14
ENDBRANCH  11  13
BRANCH  11  23
HETATM   23  C   UNL     1      -7.821  11.452  67.984  1.00  0.00    -0.121 C  
BRANCH  23  24
HETATM   24  C   UNL     1      -6.823  12.402  68.673  1.00  0.00    -0.087 C  
HETATM   25  C   UNL     1      -5.913  14.678  69.196  1.00  0.00    -0.100 C  
HETATM   26  O   UNL     1      -5.840  11.935  69.262  1.00  0.00    -0.062 OA 
HETATM   27  N   UNL     1      -6.987  13.769  68.721  1.00  0.00    -0.104 N  
HETATM   28  C   UNL     1      -5.586  14.726  70.714  1.00  0.00    -0.150 C  
HETATM   29  O   UNL     1      -5.144  15.716  71.287  1.00  0.00    -0.175 OA 
HETATM   30  C   UNL     1      -8.217  14.526  68.595  1.00  0.00    -0.152 C  
HETATM   31  C   UNL     1      -7.798  15.953  68.195  1.00  0.00    -0.134 C  
HETATM   32  O   UNL     1      -5.696  13.543  71.357  1.00  0.00    -0.269 OA 
HETATM   33  C   UNL     1      -6.356  16.079  68.732  1.00  0.00    -0.117 C  
BRANCH  31  34
HETATM   34  C   UNL     1      -7.878  16.291  66.674  1.00  0.00    -0.310 C  
HETATM   35  C   UNL     1     -10.265  17.156  66.663  1.00  0.00    -0.319 C  
HETATM   36  C   UNL     1      -9.807  18.584  66.388  1.00  0.00    -0.376 C  
HETATM   37  C   UNL     1      -8.356  18.833  66.792  1.00  0.00    -0.288 C  
HETATM   38  C   UNL     1      -9.284  16.153  66.066  1.00  0.00    -0.363 C  
HETATM   39  C   UNL     1      -7.389  17.726  66.352  1.00  0.00    -0.310 C  
ENDBRANCH  31  34
ENDBRANCH  23  24
ENDBRANCH  11  23
ENDBRANCH  10  11
ENDBRANCH   6  10
ENDBRANCH   5   6
ENDBRANCH   3   5
ENDBRANCH   2   3
TORSDOF 13
ENDMDL
MODEL      226
REMARK 921   NORMALIZED FREE ENERGY PREDICTED BY IDOCK:   -3.36 KCAL/MOL
REMARK 922        TOTAL FREE ENERGY PREDICTED BY IDOCK:   -8.38 KCAL/MOL
REMARK 923 INTER-LIGAND FREE ENERGY PREDICTED BY IDOCK:   -6.92 KCAL/MOL
REMARK 924 INTRA-LIGAND FREE ENERGY PREDICTED BY IDOCK:   -1.46 KCAL/MOL
REMARK 927      BINDING AFFINITY PREDICTED BY RF-SCORE:    0.00 PKD
ROOT
HETATM    1  C   UNL     1      -5.544   3.450  69.297  1.00  0.00    -0.017 C  
HETATM    2  C   UNL     1      -6.402   4.702  69.298  1.00  0.00    -0.031 C  
ENDROOT
BRANCH   2   3
HETATM    3  C   UNL     1      -5.693   6.053  69.342  1.00  0.00    -0.016 C  
HETATM    4  O   UNL     1      -5.461   6.708  68.331  1.00  0.00    -0.014 OA 
BRANCH   3   5
HETATM    5  O   UNL     1      -5.463   6.483  70.607  1.00  0.00    -0.018 OA 
BRANCH   5   6
HETATM    6  C   UNL     1      -6.603   6.941  71.401  1.00  0.00    -0.045 C  
HETATM    7  C   UNL     1      -6.967   5.787  72.405  1.00  0.00    -0.083 C  
HETATM    8  C   UNL     1      -8.163   6.098  73.303  1.00  0.00    -0.113 C  
HETATM    9  C   UNL     1      -5.787   5.360  73.280  1.00  0.00    -0.024 C  
BRANCH   6  10
HETATM   10  O   UNL     1      -7.773   7.371  70.641  1.00  0.00    -0.088 OA 
BRANCH  10  11
HETATM   11  P   UNL     1      -8.144   8.996  70.652  1.00  0.00    -0.182 P  
HETATM   12  O   UNL     1      -7.410   9.203  71.999  1.00  0.00    -0.335 OA 
BRANCH  11  13
HETATM   13  C   UNL     1      -9.885   9.086  71.559  1.00  0.00    -0.310 C  
BRANCH  13  14
HETATM   14  C   UNL     1     -10.888   8.074  70.995  1.00  0.00    -0.259 C  
BRANCH  14  15
HETATM   15  C   UNL     1     -10.421   6.631  71.068  1.00  0.00    -0.246 C  
BRANCH  15  16
HETATM   16  C   UNL     1     -11.386   5.745  70.265  1.00  0.00    -0.084 C  
BRANCH  16  17
HETATM   17  C   UNL     1     -10.745   5.293  68.983  1.00  0.00    -0.044 A  
HETATM   18  C   UNL     1      -9.952   4.139  68.951  1.00  0.00     0.029 A  
HETATM   19  C   UNL     1     -10.990   5.994  67.796  1.00  0.00    -0.333 A  
HETATM   20  C   UNL     1      -9.658   4.395  66.565  1.00  0.00    -0.209 A  
HETATM   21  C   UNL     1      -9.404   3.697  67.741  1.00  0.00    -0.242 A  
HETATM   22  C   UNL     1     -10.449   5.540  66.593  1.00  0.00    -0.355 A  
ENDBRANCH  16  17
ENDBRANCH  15  16
ENDBRANCH  14  15
ENDBRANCH  13  14
ENDBRANCH  11  13
BRANCH  11  23
HETATM   23  C   UNL     1      -9.011   8.751  69.059  1.00  0.00    -0.137 C  
BRANCH  23  24
HETATM   24  C   UNL     1      -9.634  10.032  68.475  1.00  0.00    -0.151 C  
HETATM   25  C   UNL     1     -10.211  11.563  66.575  1.00  0.00    -0.218 C  
HETATM   26  O   UNL     1     -10.048  10.915  69.238  1.00  0.00    -0.208 OA 
HETATM   27  N   UNL     1      -9.812  10.242  67.125  1.00  0.00    -0.179 N  
HETATM   28  C   UNL     1     -11.671  12.052  66.781  1.00  0.00    -0.264 C  
HETATM   29  O   UNL     1     -12.257  12.799  66.004  1.00  0.00    -0.510 OA 
HETATM   30  C   UNL     1      -9.911   9.250  66.072  1.00  0.00    -0.293 C  
HETATM   31  C   UNL     1      -9.573   9.986  64.763  1.00  0.00    -0.374 C  
HETATM   32  O   UNL     1     -12.227  11.703  67.961  1.00  0.00    -0.551 OA 
HETATM   33  C   UNL     1      -9.923  11.459  65.065  1.00  0.00    -0.312 C  
BRANCH  31  34
HETATM   34  C   UNL     1      -8.108   9.835  64.248  1.00  0.00    -0.152 C  
HETATM   35  C   UNL     1      -7.869   7.346  64.684  1.00  0.00    -0.123 C  
HETATM   36  C   UNL     1      -7.835   7.029  63.193  1.00  0.00    -0.110 C  
HETATM   37  C   UNL     1      -8.464   8.126  62.337  1.00  0.00    -0.099 C  
HETATM   38  C   UNL     1      -7.298   8.734  64.952  1.00  0.00    -0.093 C  
HETATM   39  C   UNL     1      -8.033   9.545  62.727  1.00  0.00    -0.126 C  
ENDBRANCH  31  34
ENDBRANCH  23  24
ENDBRANCH  11  23
ENDBRANCH  10  11
ENDBRANCH   6  10
ENDBRANCH   5   6
ENDBRANCH   3   5
ENDBRANCH   2   3
TORSDOF 13
ENDMDL
MODEL      227
REMARK 921   NORMALIZED FREE ENERGY PREDICTED BY IDOCK:   -3.36 KCAL/MOL
REMARK 922        TOTAL FREE ENERGY PREDICTED BY IDOCK:   -8.38 KCAL/MOL
REMARK 923 INTER-LIGAND FREE ENERGY PREDICTED BY IDOCK:   -7.65 KCAL/MOL
REMARK 924 INTRA-LIGAND FREE ENERGY PREDICTED BY IDOCK:   -0.73 KCAL/MOL
REMARK 927      BINDING AFFINITY PREDICTED BY RF-SCORE:    0.00 PKD
ROOT
HETATM    1  C   UNL     1     -11.121   6.137  73.253  1.00  0.00    -0.160 C  
HETATM    2  C   UNL     1     -10.232   7.367  73.242  1.00  0.00    -0.386 C  
ENDROOT
BRANCH   2   3
HETATM    3  C   UNL     1     -10.169   8.191  71.959  1.00  0.00    -0.249 C  
HETATM    4  O   UNL     1     -10.794   9.236  71.817  1.00  0.00    -0.368 OA 
BRANCH   3   5
HETATM    5  O   UNL     1      -9.272   7.703  71.067  1.00  0.00    -0.147 OA 
BRANCH   5   6
HETATM    6  C   UNL     1      -8.147   8.552  70.680  1.00  0.00    -0.117 C  
HETATM    7  C   UNL     1      -7.067   8.443  71.818  1.00  0.00    -0.098 C  
HETATM    8  C   UNL     1      -5.823   9.296  71.578  1.00  0.00    -0.074 C  
HETATM    9  C   UNL     1      -6.635   7.002  72.097  1.00  0.00    -0.056 C  
BRANCH   6  10
HETATM   10  O   UNL     1      -8.474   9.946  70.392  1.00  0.00    -0.145 OA 
BRANCH  10  11
HETATM   11  P   UNL     1      -8.763  10.356  68.803  1.00  0.00    -0.160 P  
HETATM   12  O   UNL     1     -10.265  10.007  68.936  1.00  0.00    -0.175 OA 
BRANCH  11  13
HETATM   13  C   UNL     1      -8.440   8.690  67.810  1.00  0.00    -0.125 C  
BRANCH  13  14
HETATM   14  C   UNL     1      -9.724   7.882  67.595  1.00  0.00    -0.196 C  
BRANCH  14  15
HETATM   15  C   UNL     1      -9.712   7.018  66.347  1.00  0.00    -0.133 C  
BRANCH  15  16
HETATM   16  C   UNL     1     -10.578   5.771  66.587  1.00  0.00    -0.347 C  
BRANCH  16  17
HETATM   17  C   UNL     1      -9.713   4.560  66.797  1.00  0.00    -0.224 A  
HETATM   18  C   UNL     1      -9.510   4.044  68.084  1.00  0.00    -0.215 A  
HETATM   19  C   UNL     1      -9.153   3.903  65.695  1.00  0.00    -0.144 A  
HETATM   20  C   UNL     1      -8.200   2.233  67.161  1.00  0.00    -0.079 A  
HETATM   21  C   UNL     1      -8.747   2.884  68.262  1.00  0.00    -0.139 A  
HETATM   22  C   UNL     1      -8.404   2.742  65.881  1.00  0.00    -0.093 A  
ENDBRANCH  16  17
ENDBRANCH  15  16
ENDBRANCH  14  15
ENDBRANCH  13  14
ENDBRANCH  11  13
BRANCH  11  23
HETATM   23  C   UNL     1      -6.987  10.768  68.645  1.00  0.00    -0.070 C  
BRANCH  23  24
HETATM   24  C   UNL     1      -6.681  12.276  68.688  1.00  0.00    -0.083 C  
HETATM   25  C   UNL     1      -7.163  14.665  68.100  1.00  0.00    -0.124 C  
HETATM   26  O   UNL     1      -5.615  12.671  69.179  1.00  0.00    -0.068 OA 
HETATM   27  N   UNL     1      -7.561  13.242  68.250  1.00  0.00    -0.129 N  
HETATM   28  C   UNL     1      -6.950  15.524  69.376  1.00  0.00    -0.187 C  
HETATM   29  O   UNL     1      -7.130  16.737  69.421  1.00  0.00    -0.230 OA 
HETATM   30  C   UNL     1      -9.001  13.144  68.119  1.00  0.00    -0.195 C  
HETATM   31  C   UNL     1      -9.413  14.248  67.129  1.00  0.00    -0.229 C  
HETATM   32  O   UNL     1      -6.417  14.862  70.425  1.00  0.00    -0.158 OA 
HETATM   33  C   UNL     1      -8.284  15.294  67.250  1.00  0.00    -0.230 C  
BRANCH  31  34
HETATM   34  C   UNL     1      -9.628  13.800  65.650  1.00  0.00    -0.041 C  
HETATM   35  C   UNL     1     -11.476  12.116  66.090  1.00  0.00    -0.429 C  
HETATM   36  C   UNL     1     -12.515  12.987  65.392  1.00  0.00    -0.531 C  
HETATM   37  C   UNL     1     -12.110  14.458  65.324  1.00  0.00    -0.380 C  
HETATM   38  C   UNL     1     -10.093  12.343  65.490  1.00  0.00    -0.287 C  
HETATM   39  C   UNL     1     -10.655  14.684  64.898  1.00  0.00    -0.446 C  
ENDBRANCH  31  34
ENDBRANCH  23  24
ENDBRANCH  11  23
ENDBRANCH  10  11
ENDBRANCH   6  10
ENDBRANCH   5   6
ENDBRANCH   3   5
ENDBRANCH   2   3
TORSDOF 13
ENDMDL
MODEL      228
REMARK 921   NORMALIZED FREE ENERGY PREDICTED BY IDOCK:   -3.33 KCAL/MOL
REMARK 922        TOTAL FREE ENERGY PREDICTED BY IDOCK:   -8.33 KCAL/MOL
REMARK 923 INTER-LIGAND FREE ENERGY PREDICTED BY IDOCK:   -5.90 KCAL/MOL
REMARK 924 INTRA-LIGAND FREE ENERGY PREDICTED BY IDOCK:   -2.42 KCAL/MOL
REMARK 927      BINDING AFFINITY PREDICTED BY RF-SCORE:    0.00 PKD
ROOT
HETATM    1  C   UNL     1      -5.511  15.110  70.171  1.00  0.00    -0.123 C  
HETATM    2  C   UNL     1      -6.563  15.980  69.507  1.00  0.00    -0.201 C  
ENDROOT
BRANCH   2   3
HETATM    3  C   UNL     1      -7.859  15.312  69.056  1.00  0.00    -0.184 C  
HETATM    4  O   UNL     1      -8.780  15.074  69.830  1.00  0.00    -0.007 OA 
BRANCH   3   5
HETATM    5  O   UNL     1      -7.914  15.129  67.714  1.00  0.00    -0.125 OA 
BRANCH   5   6
HETATM    6  C   UNL     1      -9.183  14.702  67.124  1.00  0.00    -0.221 C  
HETATM    7  C   UNL     1     -10.182  15.909  67.242  1.00  0.00    -0.278 C  
HETATM    8  C   UNL     1     -11.576  15.619  66.687  1.00  0.00     0.260 C  
HETATM    9  C   UNL     1      -9.650  17.193  66.601  1.00  0.00    -0.279 C  
BRANCH   6  10
HETATM   10  O   UNL     1      -9.760  13.480  67.679  1.00  0.00    -0.218 OA 
BRANCH  10  11
HETATM   11  P   UNL     1      -9.122  12.028  67.170  1.00  0.00    -0.198 P  
HETATM   12  O   UNL     1      -8.864  12.585  65.749  1.00  0.00     0.224 OA 
BRANCH  11  13
HETATM   13  C   UNL     1     -10.678  11.020  66.519  1.00  0.00    -0.241 C  
BRANCH  13  14
HETATM   14  C   UNL     1     -10.280   9.694  65.862  1.00  0.00    -0.219 C  
BRANCH  14  15
HETATM   15  C   UNL     1      -9.163   8.957  66.580  1.00  0.00    -0.231 C  
BRANCH  15  16
HETATM   16  C   UNL     1      -9.093   7.512  66.058  1.00  0.00    -0.139 C  
BRANCH  16  17
HETATM   17  C   UNL     1      -9.287   6.535  67.184  1.00  0.00    -0.138 A  
HETATM   18  C   UNL     1      -8.183   5.944  67.812  1.00  0.00    -0.105 A  
HETATM   19  C   UNL     1     -10.576   6.258  67.653  1.00  0.00    -0.339 A  
HETATM   20  C   UNL     1      -9.657   4.813  69.358  1.00  0.00    -0.249 A  
HETATM   21  C   UNL     1      -8.373   5.077  68.894  1.00  0.00    -0.083 A  
HETATM   22  C   UNL     1     -10.755   5.403  68.739  1.00  0.00    -0.111 A  
ENDBRANCH  16  17
ENDBRANCH  15  16
ENDBRANCH  14  15
ENDBRANCH  13  14
ENDBRANCH  11  13
BRANCH  11  23
HETATM   23  C   UNL     1      -9.426  11.370  68.850  1.00  0.00    -0.050 C  
BRANCH  23  24
HETATM   24  C   UNL     1      -8.196  10.715  69.506  1.00  0.00    -0.021 C  
HETATM   25  C   UNL     1      -7.107   9.059  71.040  1.00  0.00    -0.100 C  
HETATM   26  O   UNL     1      -7.076  11.215  69.342  1.00  0.00    -0.117 OA 
HETATM   27  N   UNL     1      -8.258   9.551  70.241  1.00  0.00    -0.176 N  
HETATM   28  C   UNL     1      -5.882   8.455  70.300  1.00  0.00    -0.028 C  
HETATM   29  O   UNL     1      -5.151   7.594  70.779  1.00  0.00    -0.023 OA 
HETATM   30  C   UNL     1      -9.263   8.509  70.180  1.00  0.00    -0.156 C  
HETATM   31  C   UNL     1      -9.164   7.745  71.512  1.00  0.00    -0.164 C  
HETATM   32  O   UNL     1      -5.583   9.042  69.122  1.00  0.00    -0.036 OA 
HETATM   33  C   UNL     1      -7.710   7.990  71.971  1.00  0.00    -0.124 C  
BRANCH  31  34
HETATM   34  C   UNL     1     -10.192   8.147  72.614  1.00  0.00    -0.388 C  
HETATM   35  C   UNL     1     -12.154   6.802  71.729  1.00  0.00    -0.393 C  
HETATM   36  C   UNL     1     -12.104   5.841  72.912  1.00  0.00     0.135 C  
HETATM   37  C   UNL     1     -10.743   5.820  73.604  1.00  0.00    -0.281 C  
HETATM   38  C   UNL     1     -11.653   8.183  72.135  1.00  0.00    -0.417 C  
HETATM   39  C   UNL     1     -10.146   7.211  73.848  1.00  0.00    -0.359 C  
ENDBRANCH  31  34
ENDBRANCH  23  24
ENDBRANCH  11  23
ENDBRANCH  10  11
ENDBRANCH   6  10
ENDBRANCH   5   6
ENDBRANCH   3   5
ENDBRANCH   2   3
TORSDOF 13
ENDMDL
MODEL      229
REMARK 921   NORMALIZED FREE ENERGY PREDICTED BY IDOCK:   -3.32 KCAL/MOL
REMARK 922        TOTAL FREE ENERGY PREDICTED BY IDOCK:   -8.30 KCAL/MOL
REMARK 923 INTER-LIGAND FREE ENERGY PREDICTED BY IDOCK:   -6.56 KCAL/MOL
REMARK 924 INTRA-LIGAND FREE ENERGY PREDICTED BY IDOCK:   -1.74 KCAL/MOL
REMARK 927      BINDING AFFINITY PREDICTED BY RF-SCORE:    0.00 PKD
ROOT
HETATM    1  C   UNL     1      -7.874   3.948  62.944  1.00  0.00    -0.066 C  
HETATM    2  C   UNL     1      -7.794   5.419  63.311  1.00  0.00    -0.092 C  
ENDROOT
BRANCH   2   3
HETATM    3  C   UNL     1      -8.221   5.827  64.718  1.00  0.00    -0.135 C  
HETATM    4  O   UNL     1      -7.854   5.220  65.719  1.00  0.00    -0.096 OA 
BRANCH   3   5
HETATM    5  O   UNL     1      -8.937   6.978  64.735  1.00  0.00     0.386 OA 
BRANCH   5   6
HETATM    6  C   UNL     1      -8.458   8.080  65.569  1.00  0.00    -0.144 C  
HETATM    7  C   UNL     1      -7.143   8.630  64.906  1.00  0.00    -0.080 C  
HETATM    8  C   UNL     1      -6.495   9.782  65.672  1.00  0.00    -0.082 C  
HETATM    9  C   UNL     1      -7.338   9.052  63.448  1.00  0.00    -0.097 C  
BRANCH   6  10
HETATM   10  O   UNL     1      -8.247   7.763  66.979  1.00  0.00    -0.114 OA 
BRANCH  10  11
HETATM   11  P   UNL     1      -9.207   8.543  68.095  1.00  0.00    -0.136 P  
HETATM   12  O   UNL     1     -10.499   8.057  67.395  1.00  0.00    -0.258 OA 
BRANCH  11  13
HETATM   13  C   UNL     1      -9.449  10.344  67.345  1.00  0.00    -0.149 C  
BRANCH  13  14
HETATM   14  C   UNL     1      -9.320  11.440  68.409  1.00  0.00    -0.194 C  
BRANCH  14  15
HETATM   15  C   UNL     1     -10.311  12.579  68.249  1.00  0.00    -0.241 C  
BRANCH  15  16
HETATM   16  C   UNL     1      -9.894  13.448  67.052  1.00  0.00    -0.250 C  
BRANCH  16  17
HETATM   17  C   UNL     1     -10.749  13.141  65.854  1.00  0.00    -0.287 A  
HETATM   18  C   UNL     1     -12.122  13.417  65.869  1.00  0.00    -0.486 A  
HETATM   19  C   UNL     1     -10.161  12.630  64.691  1.00  0.00    -0.319 A  
HETATM   20  C   UNL     1     -12.305  12.677  63.575  1.00  0.00    -0.591 A  
HETATM   21  C   UNL     1     -12.898  13.176  64.729  1.00  0.00    -0.298 A  
HETATM   22  C   UNL     1     -10.940  12.405  63.556  1.00  0.00    -0.506 A  
ENDBRANCH  16  17
ENDBRANCH  15  16
ENDBRANCH  14  15
ENDBRANCH  13  14
ENDBRANCH  11  13
BRANCH  11  23
HETATM   23  C   UNL     1      -7.680   9.118  68.923  1.00  0.00    -0.083 C  
BRANCH  23  24
HETATM   24  C   UNL     1      -7.669   8.908  70.449  1.00  0.00    -0.098 C  
HETATM   25  C   UNL     1      -7.968   7.507  72.506  1.00  0.00    -0.103 C  
HETATM   26  O   UNL     1      -7.524   9.881  71.200  1.00  0.00    -0.242 OA 
HETATM   27  N   UNL     1      -7.762   7.669  71.044  1.00  0.00    -0.087 N  
HETATM   28  C   UNL     1      -6.788   7.814  73.469  1.00  0.00    -0.089 C  
HETATM   29  O   UNL     1      -6.635   7.269  74.557  1.00  0.00    -0.085 OA 
HETATM   30  C   UNL     1      -7.433   6.377  70.474  1.00  0.00    -0.091 C  
HETATM   31  C   UNL     1      -8.192   5.336  71.317  1.00  0.00    -0.119 C  
HETATM   32  O   UNL     1      -5.993   8.836  73.087  1.00  0.00    -0.099 OA 
HETATM   33  C   UNL     1      -8.389   6.035  72.679  1.00  0.00    -0.118 C  
BRANCH  31  34
HETATM   34  C   UNL     1      -9.544   4.828  70.728  1.00  0.00    -0.249 C  
HETATM   35  C   UNL     1      -8.571   3.446  68.834  1.00  0.00    -0.120 C  
HETATM   36  C   UNL     1      -9.005   2.139  69.488  1.00  0.00    -0.156 C  
HETATM   37  C   UNL     1      -9.232   2.272  70.992  1.00  0.00    -0.190 C  
HETATM   38  C   UNL     1      -9.521   4.577  69.211  1.00  0.00    -0.242 C  
HETATM   39  C   UNL     1     -10.034   3.517  71.393  1.00  0.00    -0.151 C  
ENDBRANCH  31  34
ENDBRANCH  23  24
ENDBRANCH  11  23
ENDBRANCH  10  11
ENDBRANCH   6  10
ENDBRANCH   5   6
ENDBRANCH   3   5
ENDBRANCH   2   3
TORSDOF 13
ENDMDL
MODEL      230
REMARK 921   NORMALIZED FREE ENERGY PREDICTED BY IDOCK:   -3.29 KCAL/MOL
REMARK 922        TOTAL FREE ENERGY PREDICTED BY IDOCK:   -8.25 KCAL/MOL
REMARK 923 INTER-LIGAND FREE ENERGY PREDICTED BY IDOCK:   -6.78 KCAL/MOL
REMARK 924 INTRA-LIGAND FREE ENERGY PREDICTED BY IDOCK:   -1.47 KCAL/MOL
REMARK 927      BINDING AFFINITY PREDICTED BY RF-SCORE:    0.00 PKD
ROOT
HETATM    1  C   UNL     1      -6.675   9.474  66.014  1.00  0.00    -0.082 C  
HETATM    2  C   UNL     1      -7.642   8.892  64.999  1.00  0.00    -0.100 C  
ENDROOT
BRANCH   2   3
HETATM    3  C   UNL     1      -9.131   8.920  65.333  1.00  0.00    -0.163 C  
HETATM    4  O   UNL     1      -9.882   9.797  64.919  1.00  0.00    -0.284 OA 
BRANCH   3   5
HETATM    5  O   UNL     1      -9.533   7.826  66.025  1.00  0.00    -0.114 OA 
BRANCH   5   6
HETATM    6  C   UNL     1     -10.058   8.015  67.377  1.00  0.00    -0.228 C  
HETATM    7  C   UNL     1     -10.936   6.756  67.717  1.00  0.00    -0.321 C  
HETATM    8  C   UNL     1     -11.583   6.804  69.100  1.00  0.00    -0.016 C  
HETATM    9  C   UNL     1     -10.174   5.437  67.572  1.00  0.00    -0.243 C  
BRANCH   6  10
HETATM   10  O   UNL     1     -10.798   9.253  67.602  1.00  0.00    -0.250 OA 
BRANCH  10  11
HETATM   11  P   UNL     1     -10.475  10.099  69.001  1.00  0.00    -0.249 P  
HETATM   12  O   UNL     1     -11.766  10.940  68.847  1.00  0.00    -0.297 OA 
BRANCH  11  13
HETATM   13  C   UNL     1      -9.384  11.621  68.403  1.00  0.00    -0.191 C  
BRANCH  13  14
HETATM   14  C   UNL     1     -10.228  12.869  68.126  1.00  0.00    -0.239 C  
BRANCH  14  15
HETATM   15  C   UNL     1      -9.417  14.141  67.956  1.00  0.00    -0.213 C  
BRANCH  15  16
HETATM   16  C   UNL     1     -10.047  14.998  66.845  1.00  0.00    -0.249 C  
BRANCH  16  17
HETATM   17  C   UNL     1      -9.352  16.327  66.745  1.00  0.00    -0.258 A  
HETATM   18  C   UNL     1      -8.044  16.411  66.250  1.00  0.00    -0.311 A  
HETATM   19  C   UNL     1     -10.034  17.498  67.092  1.00  0.00    -0.314 A  
HETATM   20  C   UNL     1      -8.114  18.819  66.451  1.00  0.00    -0.296 A  
HETATM   21  C   UNL     1      -7.426  17.660  66.111  1.00  0.00    -0.334 A  
HETATM   22  C   UNL     1      -9.415  18.739  66.939  1.00  0.00    -0.329 A  
ENDBRANCH  16  17
ENDBRANCH  15  16
ENDBRANCH  14  15
ENDBRANCH  13  14
ENDBRANCH  11  13
BRANCH  11  23
HETATM   23  C   UNL     1      -8.950   9.105  69.183  1.00  0.00    -0.144 C  
BRANCH  23  24
HETATM   24  C   UNL     1      -8.708   8.571  70.607  1.00  0.00    -0.154 C  
HETATM   25  C   UNL     1      -7.919   6.831  72.230  1.00  0.00    -0.095 C  
HETATM   26  O   UNL     1      -9.162   9.190  71.578  1.00  0.00    -0.290 OA 
HETATM   27  N   UNL     1      -7.958   7.448  70.879  1.00  0.00    -0.096 N  
HETATM   28  C   UNL     1      -7.138   7.553  73.363  1.00  0.00    -0.079 C  
HETATM   29  O   UNL     1      -6.604   6.971  74.302  1.00  0.00    -0.081 OA 
HETATM   30  C   UNL     1      -6.925   6.845  70.061  1.00  0.00    -0.062 C  
HETATM   31  C   UNL     1      -6.797   5.389  70.544  1.00  0.00    -0.052 C  
HETATM   32  O   UNL     1      -7.195   8.901  73.323  1.00  0.00    -0.353 OA 
HETATM   33  C   UNL     1      -7.302   5.438  72.002  1.00  0.00    -0.089 C  
BRANCH  31  34
HETATM   34  C   UNL     1      -7.559   4.317  69.706  1.00  0.00    -0.053 C  
HETATM   35  C   UNL     1      -5.631   3.666  68.188  1.00  0.00    -0.018 C  
HETATM   36  C   UNL     1      -5.521   2.285  68.823  1.00  0.00    -0.014 C  
HETATM   37  C   UNL     1      -6.127   2.223  70.223  1.00  0.00    -0.023 C  
HETATM   38  C   UNL     1      -7.065   4.177  68.256  1.00  0.00    -0.055 C  
HETATM   39  C   UNL     1      -7.497   2.904  70.339  1.00  0.00    -0.040 C  
ENDBRANCH  31  34
ENDBRANCH  23  24
ENDBRANCH  11  23
ENDBRANCH  10  11
ENDBRANCH   6  10
ENDBRANCH   5   6
ENDBRANCH   3   5
ENDBRANCH   2   3
TORSDOF 13
ENDMDL
MODEL      231
REMARK 921   NORMALIZED FREE ENERGY PREDICTED BY IDOCK:   -3.26 KCAL/MOL
REMARK 922        TOTAL FREE ENERGY PREDICTED BY IDOCK:   -8.20 KCAL/MOL
REMARK 923 INTER-LIGAND FREE ENERGY PREDICTED BY IDOCK:   -6.97 KCAL/MOL
REMARK 924 INTRA-LIGAND FREE ENERGY PREDICTED BY IDOCK:   -1.23 KCAL/MOL
REMARK 927      BINDING AFFINITY PREDICTED BY RF-SCORE:    0.00 PKD
ROOT
HETATM    1  C   UNL     1     -11.872  16.040  68.895  1.00  0.00    -0.249 C  
HETATM    2  C   UNL     1     -10.702  15.083  69.038  1.00  0.00    -0.239 C  
ENDROOT
BRANCH   2   3
HETATM    3  C   UNL     1     -11.001  13.586  69.042  1.00  0.00    -0.225 C  
HETATM    4  O   UNL     1     -12.090  13.134  69.381  1.00  0.00    -0.292 OA 
BRANCH   3   5
HETATM    5  O   UNL     1      -9.987  12.848  68.529  1.00  0.00    -0.223 OA 
BRANCH   5   6
HETATM    6  C   UNL     1     -10.302  11.858  67.500  1.00  0.00    -0.200 C  
HETATM    7  C   UNL     1     -10.862  12.639  66.256  1.00  0.00    -0.300 C  
HETATM    8  C   UNL     1     -11.265  11.740  65.087  1.00  0.00    -0.311 C  
HETATM    9  C   UNL     1      -9.906  13.718  65.745  1.00  0.00    -0.242 C  
BRANCH   6  10
HETATM   10  O   UNL     1     -11.209  10.788  67.906  1.00  0.00    -0.288 OA 
BRANCH  10  11
HETATM   11  P   UNL     1     -10.564   9.522  68.777  1.00  0.00    -0.155 P  
HETATM   12  O   UNL     1     -10.671  10.315  70.101  1.00  0.00    -0.280 OA 
BRANCH  11  13
HETATM   13  C   UNL     1      -8.624   9.836  68.718  1.00  0.00    -0.127 C  
BRANCH  13  14
HETATM   14  C   UNL     1      -7.940   9.502  70.047  1.00  0.00    -0.163 C  
BRANCH  14  15
HETATM   15  C   UNL     1      -8.287   8.129  70.596  1.00  0.00    -0.123 C  
BRANCH  15  16
HETATM   16  C   UNL     1      -7.994   8.099  72.105  1.00  0.00    -0.168 C  
BRANCH  16  17
HETATM   17  C   UNL     1      -8.690   6.935  72.754  1.00  0.00    -0.133 A  
HETATM   18  C   UNL     1      -9.564   7.137  73.829  1.00  0.00    -0.309 A  
HETATM   19  C   UNL     1      -8.511   5.644  72.244  1.00  0.00    -0.119 A  
HETATM   20  C   UNL     1     -10.070   4.774  73.873  1.00  0.00    -0.218 A  
HETATM   21  C   UNL     1     -10.248   6.052  74.391  1.00  0.00    -0.309 A  
HETATM   22  C   UNL     1      -9.205   4.570  72.802  1.00  0.00    -0.145 A  
ENDBRANCH  16  17
ENDBRANCH  15  16
ENDBRANCH  14  15
ENDBRANCH  13  14
ENDBRANCH  11  13
BRANCH  11  23
HETATM   23  C   UNL     1     -10.436   8.584  67.210  1.00  0.00    -0.296 C  
BRANCH  23  24
HETATM   24  C   UNL     1     -10.416   7.054  67.388  1.00  0.00    -0.273 C  
HETATM   25  C   UNL     1      -9.454   4.777  66.978  1.00  0.00    -0.152 C  
HETATM   26  O   UNL     1     -11.364   6.491  67.951  1.00  0.00    -0.245 OA 
HETATM   27  N   UNL     1      -9.362   6.259  66.996  1.00  0.00    -0.122 N  
HETATM   28  C   UNL     1      -9.453   4.007  68.328  1.00  0.00    -0.156 C  
HETATM   29  O   UNL     1      -9.021   2.867  68.464  1.00  0.00    -0.108 OA 
HETATM   30  C   UNL     1      -7.977   6.643  66.802  1.00  0.00    -0.108 C  
HETATM   31  C   UNL     1      -7.363   5.566  65.889  1.00  0.00    -0.077 C  
HETATM   32  O   UNL     1     -10.092   4.633  69.339  1.00  0.00    -0.211 OA 
HETATM   33  C   UNL     1      -8.243   4.323  66.139  1.00  0.00    -0.105 C  
BRANCH  31  34
HETATM   34  C   UNL     1      -7.279   5.917  64.372  1.00  0.00    -0.063 C  
HETATM   35  C   UNL     1      -5.431   4.285  63.766  1.00  0.00    -0.013 C  
HETATM   36  C   UNL     1      -6.383   3.423  62.944  1.00  0.00    -0.018 C  
HETATM   37  C   UNL     1      -7.847   3.616  63.333  1.00  0.00    -0.072 C  
HETATM   38  C   UNL     1      -5.880   5.742  63.757  1.00  0.00    -0.021 C  
HETATM   39  C   UNL     1      -8.258   5.083  63.507  1.00  0.00    -0.117 C  
ENDBRANCH  31  34
ENDBRANCH  23  24
ENDBRANCH  11  23
ENDBRANCH  10  11
ENDBRANCH   6  10
ENDBRANCH   5   6
ENDBRANCH   3   5
ENDBRANCH   2   3
TORSDOF 13
ENDMDL
MODEL      232
REMARK 921   NORMALIZED FREE ENERGY PREDICTED BY IDOCK:   -3.23 KCAL/MOL
REMARK 922        TOTAL FREE ENERGY PREDICTED BY IDOCK:   -8.15 KCAL/MOL
REMARK 923 INTER-LIGAND FREE ENERGY PREDICTED BY IDOCK:   -7.63 KCAL/MOL
REMARK 924 INTRA-LIGAND FREE ENERGY PREDICTED BY IDOCK:   -0.53 KCAL/MOL
REMARK 927      BINDING AFFINITY PREDICTED BY RF-SCORE:    0.00 PKD
ROOT
HETATM    1  C   UNL     1     -10.604  11.516  63.450  1.00  0.00    -0.460 C  
HETATM    2  C   UNL     1     -11.887  12.319  63.559  1.00  0.00    -0.601 C  
ENDROOT
BRANCH   2   3
HETATM    3  C   UNL     1     -12.322  12.783  64.947  1.00  0.00    -0.490 C  
HETATM    4  O   UNL     1     -13.488  13.055  65.214  1.00  0.00    -0.393 OA 
BRANCH   3   5
HETATM    5  O   UNL     1     -11.314  12.745  65.852  1.00  0.00    -0.299 OA 
BRANCH   5   6
HETATM    6  C   UNL     1     -11.530  13.367  67.158  1.00  0.00    -0.339 C  
HETATM    7  C   UNL     1     -10.466  14.514  67.311  1.00  0.00    -0.266 C  
HETATM    8  C   UNL     1     -10.540  15.257  68.644  1.00  0.00    -0.236 C  
HETATM    9  C   UNL     1     -10.514  15.533  66.171  1.00  0.00    -0.323 C  
BRANCH   6  10
HETATM   10  O   UNL     1     -11.502  12.461  68.303  1.00  0.00    -0.263 OA 
BRANCH  10  11
HETATM   11  P   UNL     1     -10.217  11.408  68.420  1.00  0.00    -0.208 P  
HETATM   12  O   UNL     1      -9.253  12.552  68.815  1.00  0.00    -0.023 OA 
BRANCH  11  13
HETATM   13  C   UNL     1      -9.463  11.366  66.605  1.00  0.00    -0.189 C  
BRANCH  13  14
HETATM   14  C   UNL     1      -8.006  11.839  66.570  1.00  0.00    -0.009 C  
BRANCH  14  15
HETATM   15  C   UNL     1      -7.017  10.772  66.135  1.00  0.00    -0.124 C  
BRANCH  15  16
HETATM   16  C   UNL     1      -5.618  11.135  66.659  1.00  0.00    -0.116 C  
BRANCH  16  17
HETATM   17  C   UNL     1      -5.633  11.266  68.156  1.00  0.00    -0.042 A  
HETATM   18  C   UNL     1      -5.972  10.173  68.963  1.00  0.00    -0.037 A  
HETATM   19  C   UNL     1      -5.246  12.471  68.754  1.00  0.00    -0.055 A  
HETATM   20  C   UNL     1      -5.537  11.489  70.944  1.00  0.00    -0.070 A  
HETATM   21  C   UNL     1      -5.930  10.291  70.358  1.00  0.00    -0.096 A  
HETATM   22  C   UNL     1      -5.196  12.576  70.143  1.00  0.00    -0.101 A  
ENDBRANCH  16  17
ENDBRANCH  15  16
ENDBRANCH  14  15
ENDBRANCH  13  14
ENDBRANCH  11  13
BRANCH  11  23
HETATM   23  C   UNL     1     -11.357  10.054  67.954  1.00  0.00     0.051 C  
BRANCH  23  24
HETATM   24  C   UNL     1     -10.655   8.731  67.596  1.00  0.00    -0.213 C  
HETATM   25  C   UNL     1      -9.364   6.665  68.184  1.00  0.00    -0.114 C  
HETATM   26  O   UNL     1     -10.499   8.423  66.407  1.00  0.00    -0.178 OA 
HETATM   27  N   UNL     1     -10.225   7.822  68.538  1.00  0.00    -0.200 N  
HETATM   28  C   UNL     1      -9.988   5.473  67.408  1.00  0.00    -0.162 C  
HETATM   29  O   UNL     1      -9.593   4.315  67.500  1.00  0.00    -0.166 OA 
HETATM   30  C   UNL     1     -10.700   7.652  69.897  1.00  0.00    -0.249 C  
HETATM   31  C   UNL     1      -9.578   6.913  70.649  1.00  0.00    -0.171 C  
HETATM   32  O   UNL     1     -10.931   5.815  66.503  1.00  0.00    -0.253 OA 
HETATM   33  C   UNL     1      -8.822   6.158  69.534  1.00  0.00    -0.130 C  
BRANCH  31  34
HETATM   34  C   UNL     1      -8.617   7.802  71.497  1.00  0.00    -0.133 C  
HETATM   35  C   UNL     1      -9.684   7.361  73.758  1.00  0.00    -0.330 C  
HETATM   36  C   UNL     1      -8.474   6.567  74.239  1.00  0.00    -0.148 C  
HETATM   37  C   UNL     1      -7.627   6.020  73.092  1.00  0.00    -0.098 C  
HETATM   38  C   UNL     1      -9.264   8.422  72.747  1.00  0.00    -0.311 C  
HETATM   39  C   UNL     1      -7.358   7.036  71.976  1.00  0.00    -0.082 C  
ENDBRANCH  31  34
ENDBRANCH  23  24
ENDBRANCH  11  23
ENDBRANCH  10  11
ENDBRANCH   6  10
ENDBRANCH   5   6
ENDBRANCH   3   5
ENDBRANCH   2   3
TORSDOF 13
ENDMDL
MODEL      233
REMARK 921   NORMALIZED FREE ENERGY PREDICTED BY IDOCK:   -3.23 KCAL/MOL
REMARK 922        TOTAL FREE ENERGY PREDICTED BY IDOCK:   -8.14 KCAL/MOL
REMARK 923 INTER-LIGAND FREE ENERGY PREDICTED BY IDOCK:   -6.46 KCAL/MOL
REMARK 924 INTRA-LIGAND FREE ENERGY PREDICTED BY IDOCK:   -1.69 KCAL/MOL
REMARK 927      BINDING AFFINITY PREDICTED BY RF-SCORE:    0.00 PKD
ROOT
HETATM    1  C   UNL     1     -10.321  16.999  68.865  1.00  0.00    -0.337 C  
HETATM    2  C   UNL     1      -9.663  15.648  69.074  1.00  0.00    -0.241 C  
ENDROOT
BRANCH   2   3
HETATM    3  C   UNL     1     -10.525  14.400  68.903  1.00  0.00    -0.245 C  
HETATM    4  O   UNL     1     -11.722  14.385  69.173  1.00  0.00    -0.279 OA 
BRANCH   3   5
HETATM    5  O   UNL     1      -9.854  13.375  68.324  1.00  0.00    -0.228 OA 
BRANCH   5   6
HETATM    6  C   UNL     1     -10.583  12.498  67.408  1.00  0.00    -0.223 C  
HETATM    7  C   UNL     1     -11.236  13.413  66.308  1.00  0.00    -0.322 C  
HETATM    8  C   UNL     1     -12.062  12.648  65.274  1.00  0.00    -0.519 C  
HETATM    9  C   UNL     1     -10.220  14.293  65.579  1.00  0.00    -0.379 C  
BRANCH   6  10
HETATM   10  O   UNL     1     -11.574  11.621  68.024  1.00  0.00    -0.334 OA 
BRANCH  10  11
HETATM   11  P   UNL     1     -11.022  10.222  68.742  1.00  0.00    -0.216 P  
HETATM   12  O   UNL     1     -11.320  10.774  70.157  1.00  0.00    -0.290 OA 
BRANCH  11  13
HETATM   13  C   UNL     1      -9.099  10.539  68.997  1.00  0.00    -0.181 C  
BRANCH  13  14
HETATM   14  C   UNL     1      -8.517   9.697  70.138  1.00  0.00    -0.231 C  
BRANCH  14  15
HETATM   15  C   UNL     1      -8.169   8.273  69.744  1.00  0.00    -0.121 C  
BRANCH  15  16
HETATM   16  C   UNL     1      -6.869   7.856  70.449  1.00  0.00    -0.041 C  
BRANCH  16  17
HETATM   17  C   UNL     1      -6.473   6.463  70.046  1.00  0.00    -0.040 A  
HETATM   18  C   UNL     1      -6.141   6.174  68.716  1.00  0.00    -0.028 A  
HETATM   19  C   UNL     1      -6.375   5.458  71.015  1.00  0.00    -0.034 A  
HETATM   20  C   UNL     1      -5.620   3.895  69.333  1.00  0.00    -0.017 A  
HETATM   21  C   UNL     1      -5.722   4.886  68.363  1.00  0.00    -0.017 A  
HETATM   22  C   UNL     1      -5.945   4.181  70.656  1.00  0.00    -0.014 A  
ENDBRANCH  16  17
ENDBRANCH  15  16
ENDBRANCH  14  15
ENDBRANCH  13  14
ENDBRANCH  11  13
BRANCH  11  23
HETATM   23  C   UNL     1     -10.670   9.569  67.069  1.00  0.00    -0.149 C  
BRANCH  23  24
HETATM   24  C   UNL     1     -10.515   8.038  67.007  1.00  0.00    -0.340 C  
HETATM   25  C   UNL     1      -9.429   5.942  66.165  1.00  0.00    -0.106 C  
HETATM   26  O   UNL     1     -11.354   7.315  67.559  1.00  0.00     0.017 OA 
HETATM   27  N   UNL     1      -9.449   7.407  66.403  1.00  0.00    -0.164 N  
HETATM   28  C   UNL     1      -9.231   4.987  67.375  1.00  0.00    -0.119 C  
HETATM   29  O   UNL     1      -8.702   3.883  67.294  1.00  0.00    -0.103 OA 
HETATM   30  C   UNL     1      -8.126   7.940  66.146  1.00  0.00    -0.109 C  
HETATM   31  C   UNL     1      -7.528   7.068  65.027  1.00  0.00    -0.093 C  
HETATM   32  O   UNL     1      -9.808   5.398  68.524  1.00  0.00    -0.130 OA 
HETATM   33  C   UNL     1      -8.281   5.727  65.161  1.00  0.00    -0.140 C  
BRANCH  31  34
HETATM   34  C   UNL     1      -7.627   7.643  63.581  1.00  0.00    -0.118 C  
HETATM   35  C   UNL     1      -7.449  10.099  64.198  1.00  0.00    -0.114 C  
HETATM   36  C   UNL     1      -6.072  10.221  63.554  1.00  0.00    -0.137 C  
HETATM   37  C   UNL     1      -5.358   8.878  63.417  1.00  0.00    -0.067 C  
HETATM   38  C   UNL     1      -8.280   9.033  63.494  1.00  0.00    -0.178 C  
HETATM   39  C   UNL     1      -6.249   7.750  62.881  1.00  0.00    -0.071 C  
ENDBRANCH  31  34
ENDBRANCH  23  24
ENDBRANCH  11  23
ENDBRANCH  10  11
ENDBRANCH   6  10
ENDBRANCH   5   6
ENDBRANCH   3   5
ENDBRANCH   2   3
TORSDOF 13
ENDMDL
MODEL      234
REMARK 921   NORMALIZED FREE ENERGY PREDICTED BY IDOCK:   -3.20 KCAL/MOL
REMARK 922        TOTAL FREE ENERGY PREDICTED BY IDOCK:   -8.10 KCAL/MOL
REMARK 923 INTER-LIGAND FREE ENERGY PREDICTED BY IDOCK:   -6.44 KCAL/MOL
REMARK 924 INTRA-LIGAND FREE ENERGY PREDICTED BY IDOCK:   -1.65 KCAL/MOL
REMARK 927      BINDING AFFINITY PREDICTED BY RF-SCORE:    0.00 PKD
ROOT
HETATM    1  C   UNL     1      -8.163  19.150  66.835  1.00  0.00    -0.287 C  
HETATM    2  C   UNL     1      -7.893  17.782  66.236  1.00  0.00    -0.299 C  
ENDROOT
BRANCH   2   3
HETATM    3  C   UNL     1      -8.078  16.561  67.134  1.00  0.00    -0.183 C  
HETATM    4  O   UNL     1      -9.114  16.352  67.755  1.00  0.00    -0.198 OA 
BRANCH   3   5
HETATM    5  O   UNL     1      -7.032  15.701  67.070  1.00  0.00    -0.214 OA 
BRANCH   5   6
HETATM    6  C   UNL     1      -7.110  14.457  67.835  1.00  0.00    -0.159 C  
HETATM    7  C   UNL     1      -6.042  14.548  68.984  1.00  0.00    -0.090 C  
HETATM    8  C   UNL     1      -5.976  13.306  69.872  1.00  0.00    -0.136 C  
HETATM    9  C   UNL     1      -6.218  15.782  69.871  1.00  0.00    -0.157 C  
BRANCH   6  10
HETATM   10  O   UNL     1      -6.955  13.227  67.063  1.00  0.00    -0.020 OA 
BRANCH  10  11
HETATM   11  P   UNL     1      -8.331  12.353  66.722  1.00  0.00     0.103 P  
HETATM   12  O   UNL     1      -8.889  13.488  65.831  1.00  0.00     0.376 OA 
BRANCH  11  13
HETATM   13  C   UNL     1      -9.578  12.839  68.163  1.00  0.00    -0.223 C  
BRANCH  13  14
HETATM   14  C   UNL     1     -11.042  12.643  67.756  1.00  0.00    -0.287 C  
BRANCH  14  15
HETATM   15  C   UNL     1     -11.704  11.429  68.385  1.00  0.00    -0.373 C  
BRANCH  15  16
HETATM   16  C   UNL     1     -11.231  11.293  69.841  1.00  0.00    -0.264 C  
BRANCH  16  17
HETATM   17  C   UNL     1     -12.116  12.086  70.760  1.00  0.00    -0.297 A  
HETATM   18  C   UNL     1     -12.957  11.439  71.674  1.00  0.00    -0.523 A  
HETATM   19  C   UNL     1     -12.058  13.485  70.748  1.00  0.00    -0.351 A  
HETATM   20  C   UNL     1     -13.668  13.577  72.549  1.00  0.00    -0.664 A  
HETATM   21  C   UNL     1     -13.737  12.188  72.562  1.00  0.00     0.199 A  
HETATM   22  C   UNL     1     -12.831  14.223  71.644  1.00  0.00    -0.424 A  
ENDBRANCH  16  17
ENDBRANCH  15  16
ENDBRANCH  14  15
ENDBRANCH  13  14
ENDBRANCH  11  13
BRANCH  11  23
HETATM   23  C   UNL     1      -7.671  11.010  67.777  1.00  0.00    -0.108 C  
BRANCH  23  24
HETATM   24  C   UNL     1      -8.230   9.614  67.447  1.00  0.00    -0.114 C  
HETATM   25  C   UNL     1      -8.710   7.218  68.006  1.00  0.00    -0.127 C  
HETATM   26  O   UNL     1      -8.618   9.365  66.298  1.00  0.00    -0.126 OA 
HETATM   27  N   UNL     1      -8.377   8.615  68.384  1.00  0.00    -0.125 N  
HETATM   28  C   UNL     1     -10.152   6.893  67.524  1.00  0.00    -0.174 C  
HETATM   29  O   UNL     1     -10.693   5.803  67.673  1.00  0.00    -0.251 OA 
HETATM   30  C   UNL     1      -8.502   8.751  69.822  1.00  0.00    -0.129 C  
HETATM   31  C   UNL     1      -8.113   7.384  70.413  1.00  0.00    -0.108 C  
HETATM   32  O   UNL     1     -10.740   7.867  66.796  1.00  0.00    -0.304 OA 
HETATM   33  C   UNL     1      -8.403   6.390  69.268  1.00  0.00    -0.122 C  
BRANCH  31  34
HETATM   34  C   UNL     1      -6.648   7.251  70.932  1.00  0.00    -0.044 C  
HETATM   35  C   UNL     1      -7.177   5.976  73.063  1.00  0.00    -0.089 C  
HETATM   36  C   UNL     1      -6.514   4.708  72.537  1.00  0.00    -0.041 C  
HETATM   37  C   UNL     1      -6.417   4.674  71.013  1.00  0.00    -0.026 C  
HETATM   38  C   UNL     1      -6.519   7.215  72.465  1.00  0.00    -0.052 C  
HETATM   39  C   UNL     1      -5.930   5.989  70.391  1.00  0.00    -0.029 C  
ENDBRANCH  31  34
ENDBRANCH  23  24
ENDBRANCH  11  23
ENDBRANCH  10  11
ENDBRANCH   6  10
ENDBRANCH   5   6
ENDBRANCH   3   5
ENDBRANCH   2   3
TORSDOF 13
ENDMDL
MODEL      235
REMARK 921   NORMALIZED FREE ENERGY PREDICTED BY IDOCK:   -3.19 KCAL/MOL
REMARK 922        TOTAL FREE ENERGY PREDICTED BY IDOCK:   -8.08 KCAL/MOL
REMARK 923 INTER-LIGAND FREE ENERGY PREDICTED BY IDOCK:   -7.56 KCAL/MOL
REMARK 924 INTRA-LIGAND FREE ENERGY PREDICTED BY IDOCK:   -0.52 KCAL/MOL
REMARK 927      BINDING AFFINITY PREDICTED BY RF-SCORE:    0.00 PKD
ROOT
HETATM    1  C   UNL     1      -8.993  10.789  63.164  1.00  0.00    -0.239 C  
HETATM    2  C   UNL     1      -9.389   9.893  64.323  1.00  0.00    -0.313 C  
ENDROOT
BRANCH   2   3
HETATM    3  C   UNL     1      -8.274   9.191  65.095  1.00  0.00    -0.145 C  
HETATM    4  O   UNL     1      -7.366   8.586  64.535  1.00  0.00    -0.087 OA 
BRANCH   3   5
HETATM    5  O   UNL     1      -8.343   9.413  66.431  1.00  0.00    -0.113 OA 
BRANCH   5   6
HETATM    6  C   UNL     1      -9.069  10.592  66.902  1.00  0.00    -0.147 C  
HETATM    7  C   UNL     1      -8.077  11.425  67.793  1.00  0.00    -0.121 C  
HETATM    8  C   UNL     1      -8.691  12.692  68.388  1.00  0.00    -0.118 C  
HETATM    9  C   UNL     1      -6.784  11.796  67.064  1.00  0.00    -0.139 C  
BRANCH   6  10
HETATM   10  O   UNL     1     -10.320  10.327  67.607  1.00  0.00    -0.192 OA 
BRANCH  10  11
HETATM   11  P   UNL     1     -10.219   9.855  69.202  1.00  0.00    -0.236 P  
HETATM   12  O   UNL     1      -8.783   9.313  69.001  1.00  0.00    -0.130 OA 
BRANCH  11  13
HETATM   13  C   UNL     1     -10.935   8.024  69.208  1.00  0.00     0.039 C  
BRANCH  13  14
HETATM   14  C   UNL     1     -11.469   7.613  70.585  1.00  0.00    -0.276 C  
BRANCH  14  15
HETATM   15  C   UNL     1     -10.924   6.291  71.092  1.00  0.00    -0.336 C  
BRANCH  15  16
HETATM   16  C   UNL     1     -10.564   6.430  72.581  1.00  0.00    -0.250 C  
BRANCH  16  17
HETATM   17  C   UNL     1      -9.123   6.072  72.811  1.00  0.00    -0.129 A  
HETATM   18  C   UNL     1      -8.542   6.233  74.076  1.00  0.00    -0.124 A  
HETATM   19  C   UNL     1      -8.368   5.515  71.772  1.00  0.00    -0.120 A  
HETATM   20  C   UNL     1      -6.474   5.287  73.257  1.00  0.00    -0.062 A  
HETATM   21  C   UNL     1      -7.214   5.846  74.292  1.00  0.00    -0.088 A  
HETATM   22  C   UNL     1      -7.050   5.122  72.000  1.00  0.00    -0.083 A  
ENDBRANCH  16  17
ENDBRANCH  15  16
ENDBRANCH  14  15
ENDBRANCH  13  14
ENDBRANCH  11  13
BRANCH  11  23
HETATM   23  C   UNL     1     -11.917  10.496  69.440  1.00  0.00    -0.158 C  
BRANCH  23  24
HETATM   24  C   UNL     1     -11.988  11.836  70.196  1.00  0.00    -0.339 C  
HETATM   25  C   UNL     1     -11.899  14.338  70.306  1.00  0.00    -0.307 C  
HETATM   26  O   UNL     1     -12.038  11.839  71.432  1.00  0.00    -0.014 OA 
HETATM   27  N   UNL     1     -12.050  13.060  69.566  1.00  0.00    -0.270 N  
HETATM   28  C   UNL     1     -13.059  14.818  71.222  1.00  0.00    -0.368 C  
HETATM   29  O   UNL     1     -13.299  15.998  71.459  1.00  0.00    -0.371 OA 
HETATM   30  C   UNL     1     -12.511  13.350  68.222  1.00  0.00     0.382 C  
HETATM   31  C   UNL     1     -11.896  14.711  67.848  1.00  0.00    -0.352 C  
HETATM   32  O   UNL     1     -13.724  13.832  71.862  1.00  0.00    -0.395 OA 
HETATM   33  C   UNL     1     -11.653  15.394  69.211  1.00  0.00    -0.354 C  
BRANCH  31  34
HETATM   34  C   UNL     1     -10.597  14.664  66.987  1.00  0.00    -0.280 C  
HETATM   35  C   UNL     1     -11.722  14.581  64.712  1.00  0.00    -0.425 C  
HETATM   36  C   UNL     1     -11.241  15.983  64.358  1.00  0.00    -0.218 C  
HETATM   37  C   UNL     1     -10.893  16.822  65.587  1.00  0.00    -0.111 C  
HETATM   38  C   UNL     1     -10.742  13.899  65.660  1.00  0.00    -0.292 C  
HETATM   39  C   UNL     1     -10.059  16.074  66.635  1.00  0.00    -0.287 C  
ENDBRANCH  31  34
ENDBRANCH  23  24
ENDBRANCH  11  23
ENDBRANCH  10  11
ENDBRANCH   6  10
ENDBRANCH   5   6
ENDBRANCH   3   5
ENDBRANCH   2   3
TORSDOF 13
ENDMDL
MODEL      236
REMARK 921   NORMALIZED FREE ENERGY PREDICTED BY IDOCK:   -3.17 KCAL/MOL
REMARK 922        TOTAL FREE ENERGY PREDICTED BY IDOCK:   -8.03 KCAL/MOL
REMARK 923 INTER-LIGAND FREE ENERGY PREDICTED BY IDOCK:   -7.21 KCAL/MOL
REMARK 924 INTRA-LIGAND FREE ENERGY PREDICTED BY IDOCK:   -0.82 KCAL/MOL
REMARK 927      BINDING AFFINITY PREDICTED BY RF-SCORE:    0.00 PKD
ROOT
HETATM    1  C   UNL     1     -11.233   6.133  67.249  1.00  0.00    -0.180 C  
HETATM    2  C   UNL     1     -10.232   6.825  68.156  1.00  0.00    -0.198 C  
ENDROOT
BRANCH   2   3
HETATM    3  C   UNL     1      -8.795   6.310  68.157  1.00  0.00    -0.113 C  
HETATM    4  O   UNL     1      -8.442   5.346  68.826  1.00  0.00    -0.096 OA 
BRANCH   3   5
HETATM    5  O   UNL     1      -8.007   6.957  67.263  1.00  0.00    -0.111 OA 
BRANCH   5   6
HETATM    6  C   UNL     1      -8.249   8.380  67.028  1.00  0.00    -0.107 C  
HETATM    7  C   UNL     1      -7.401   8.796  65.771  1.00  0.00    -0.085 C  
HETATM    8  C   UNL     1      -7.523  10.274  65.400  1.00  0.00    -0.145 C  
HETATM    9  C   UNL     1      -7.704   7.948  64.535  1.00  0.00    -0.125 C  
BRANCH   6  10
HETATM   10  O   UNL     1      -7.986   9.263  68.161  1.00  0.00    -0.098 OA 
BRANCH  10  11
HETATM   11  P   UNL     1      -6.398   9.477  68.617  1.00  0.00    -0.047 P  
HETATM   12  O   UNL     1      -6.065   7.993  68.330  1.00  0.00    -0.042 OA 
BRANCH  11  13
HETATM   13  C   UNL     1      -6.401   9.128  70.551  1.00  0.00    -0.053 C  
BRANCH  13  14
HETATM   14  C   UNL     1      -6.853   7.703  70.885  1.00  0.00    -0.042 C  
BRANCH  14  15
HETATM   15  C   UNL     1      -7.701   7.598  72.140  1.00  0.00    -0.099 C  
BRANCH  15  16
HETATM   16  C   UNL     1      -8.765   8.707  72.125  1.00  0.00    -0.217 C  
BRANCH  16  17
HETATM   17  C   UNL     1     -10.115   8.140  71.788  1.00  0.00    -0.267 A  
HETATM   18  C   UNL     1     -11.146   8.973  71.336  1.00  0.00    -0.399 A  
HETATM   19  C   UNL     1     -10.330   6.759  71.867  1.00  0.00    -0.217 A  
HETATM   20  C   UNL     1     -12.586   7.053  71.048  1.00  0.00    -0.338 A  
HETATM   21  C   UNL     1     -12.383   8.426  70.974  1.00  0.00    -0.143 A  
HETATM   22  C   UNL     1     -11.562   6.221  71.493  1.00  0.00    -0.345 A  
ENDBRANCH  16  17
ENDBRANCH  15  16
ENDBRANCH  14  15
ENDBRANCH  13  14
ENDBRANCH  11  13
BRANCH  11  23
HETATM   23  C   UNL     1      -6.790  11.232  68.956  1.00  0.00    -0.099 C  
BRANCH  23  24
HETATM   24  C   UNL     1      -8.285  11.583  68.827  1.00  0.00    -0.082 C  
HETATM   25  C   UNL     1     -10.167  13.140  68.265  1.00  0.00    -0.250 C  
HETATM   26  O   UNL     1      -9.137  10.802  69.270  1.00  0.00    -0.143 OA 
HETATM   27  N   UNL     1      -8.746  12.714  68.189  1.00  0.00    -0.186 N  
HETATM   28  C   UNL     1     -11.237  12.334  67.478  1.00  0.00    -0.297 C  
HETATM   29  O   UNL     1     -12.273  12.821  67.040  1.00  0.00    -0.431 OA 
HETATM   30  C   UNL     1      -8.076  13.504  67.175  1.00  0.00    -0.082 C  
HETATM   31  C   UNL     1      -8.755  14.885  67.196  1.00  0.00    -0.240 C  
HETATM   32  O   UNL     1     -11.014  11.003  67.417  1.00  0.00    -0.255 OA 
HETATM   33  C   UNL     1     -10.162  14.596  67.761  1.00  0.00    -0.229 C  
BRANCH  31  34
HETATM   34  C   UNL     1      -8.025  15.998  68.008  1.00  0.00    -0.142 C  
HETATM   35  C   UNL     1      -7.413  17.482  66.041  1.00  0.00    -0.274 C  
HETATM   36  C   UNL     1      -8.383  18.571  66.486  1.00  0.00    -0.297 C  
HETATM   37  C   UNL     1      -9.487  18.047  67.402  1.00  0.00    -0.262 C  
HETATM   38  C   UNL     1      -6.891  16.702  67.243  1.00  0.00    -0.212 C  
HETATM   39  C   UNL     1      -8.987  17.107  68.506  1.00  0.00    -0.265 C  
ENDBRANCH  31  34
ENDBRANCH  23  24
ENDBRANCH  11  23
ENDBRANCH  10  11
ENDBRANCH   6  10
ENDBRANCH   5   6
ENDBRANCH   3   5
ENDBRANCH   2   3
TORSDOF 13
ENDMDL
MODEL      237
REMARK 921   NORMALIZED FREE ENERGY PREDICTED BY IDOCK:   -3.16 KCAL/MOL
REMARK 922        TOTAL FREE ENERGY PREDICTED BY IDOCK:   -8.02 KCAL/MOL
REMARK 923 INTER-LIGAND FREE ENERGY PREDICTED BY IDOCK:   -6.01 KCAL/MOL
REMARK 924 INTRA-LIGAND FREE ENERGY PREDICTED BY IDOCK:   -2.01 KCAL/MOL
REMARK 927      BINDING AFFINITY PREDICTED BY RF-SCORE:    0.00 PKD
ROOT
HETATM    1  C   UNL     1      -5.532   3.467  69.330  1.00  0.00    -0.016 C  
HETATM    2  C   UNL     1      -6.448   4.673  69.227  1.00  0.00    -0.036 C  
ENDROOT
BRANCH   2   3
HETATM    3  C   UNL     1      -5.816   6.059  69.327  1.00  0.00    -0.023 C  
HETATM    4  O   UNL     1      -5.408   6.669  68.344  1.00  0.00    -0.010 OA 
BRANCH   3   5
HETATM    5  O   UNL     1      -5.868   6.569  70.582  1.00  0.00    -0.022 OA 
BRANCH   5   6
HETATM    6  C   UNL     1      -7.162   7.020  71.094  1.00  0.00    -0.075 C  
HETATM    7  C   UNL     1      -7.616   5.988  72.190  1.00  0.00    -0.097 C  
HETATM    8  C   UNL     1      -8.973   6.304  72.817  1.00  0.00    -0.125 C  
HETATM    9  C   UNL     1      -6.585   5.806  73.305  1.00  0.00    -0.073 C  
BRANCH   6  10
HETATM   10  O   UNL     1      -8.205   7.223  70.092  1.00  0.00    -0.129 OA 
BRANCH  10  11
HETATM   11  P   UNL     1      -8.623   8.792  69.723  1.00  0.00    -0.144 P  
HETATM   12  O   UNL     1      -8.393   9.248  71.184  1.00  0.00    -0.291 OA 
BRANCH  11  13
HETATM   13  C   UNL     1     -10.570   8.846  69.987  1.00  0.00    -0.220 C  
BRANCH  13  14
HETATM   14  C   UNL     1     -11.120  10.277  69.975  1.00  0.00    -0.373 C  
BRANCH  14  15
HETATM   15  C   UNL     1     -11.177  10.908  68.595  1.00  0.00    -0.326 C  
BRANCH  15  16
HETATM   16  C   UNL     1     -11.684  12.354  68.721  1.00  0.00    -0.379 C  
BRANCH  16  17
HETATM   17  C   UNL     1     -11.469  13.102  67.436  1.00  0.00    -0.375 A  
HETATM   18  C   UNL     1     -12.021  12.632  66.237  1.00  0.00    -0.439 A  
HETATM   19  C   UNL     1     -10.764  14.311  67.442  1.00  0.00    -0.282 A  
HETATM   20  C   UNL     1     -11.166  14.569  65.072  1.00  0.00    -0.384 A  
HETATM   21  C   UNL     1     -11.861  13.365  65.056  1.00  0.00    -0.381 A  
HETATM   22  C   UNL     1     -10.620  15.041  66.262  1.00  0.00    -0.309 A  
ENDBRANCH  16  17
ENDBRANCH  15  16
ENDBRANCH  14  15
ENDBRANCH  13  14
ENDBRANCH  11  13
BRANCH  11  23
HETATM   23  C   UNL     1      -8.894   8.254  67.995  1.00  0.00    -0.135 C  
BRANCH  23  24
HETATM   24  C   UNL     1      -7.756   8.632  67.028  1.00  0.00    -0.095 C  
HETATM   25  C   UNL     1      -6.253   8.182  65.074  1.00  0.00    -0.048 C  
HETATM   26  O   UNL     1      -7.070   9.637  67.254  1.00  0.00    -0.084 OA 
HETATM   27  N   UNL     1      -7.480   7.935  65.873  1.00  0.00    -0.076 N  
HETATM   28  C   UNL     1      -6.151   9.488  64.238  1.00  0.00    -0.083 C  
HETATM   29  O   UNL     1      -5.504   9.586  63.201  1.00  0.00    -0.077 OA 
HETATM   30  C   UNL     1      -8.372   7.087  65.106  1.00  0.00    -0.073 C  
HETATM   31  C   UNL     1      -7.466   6.169  64.265  1.00  0.00    -0.080 C  
HETATM   32  O   UNL     1      -6.725  10.571  64.803  1.00  0.00    -0.077 OA 
HETATM   33  C   UNL     1      -6.153   6.970  64.128  1.00  0.00    -0.036 C  
BRANCH  31  34
HETATM   34  C   UNL     1      -7.213   4.741  64.839  1.00  0.00    -0.063 C  
HETATM   35  C   UNL     1      -9.644   4.096  65.182  1.00  0.00    -0.185 C  
HETATM   36  C   UNL     1      -9.585   3.055  64.070  1.00  0.00    -0.140 C  
HETATM   37  C   UNL     1      -8.454   3.309  63.076  1.00  0.00    -0.085 C  
HETATM   38  C   UNL     1      -8.278   4.260  65.839  1.00  0.00    -0.109 C  
HETATM   39  C   UNL     1      -7.114   3.659  63.733  1.00  0.00    -0.050 C  
ENDBRANCH  31  34
ENDBRANCH  23  24
ENDBRANCH  11  23
ENDBRANCH  10  11
ENDBRANCH   6  10
ENDBRANCH   5   6
ENDBRANCH   3   5
ENDBRANCH   2   3
TORSDOF 13
ENDMDL
MODEL      238
REMARK 921   NORMALIZED FREE ENERGY PREDICTED BY IDOCK:   -3.09 KCAL/MOL
REMARK 922        TOTAL FREE ENERGY PREDICTED BY IDOCK:   -7.90 KCAL/MOL
REMARK 923 INTER-LIGAND FREE ENERGY PREDICTED BY IDOCK:   -8.16 KCAL/MOL
REMARK 924 INTRA-LIGAND FREE ENERGY PREDICTED BY IDOCK:    0.26 KCAL/MOL
REMARK 927      BINDING AFFINITY PREDICTED BY RF-SCORE:    0.00 PKD
ROOT
HETATM    1  C   UNL     1     -11.774  11.202  70.119  1.00  0.00    -0.439 C  
HETATM    2  C   UNL     1     -11.548  11.363  68.627  1.00  0.00    -0.384 C  
ENDROOT
BRANCH   2   3
HETATM    3  C   UNL     1     -10.922  12.665  68.136  1.00  0.00    -0.236 C  
HETATM    4  O   UNL     1     -11.445  13.759  68.324  1.00  0.00    -0.274 OA 
BRANCH   3   5
HETATM    5  O   UNL     1      -9.695  12.483  67.588  1.00  0.00    -0.188 OA 
BRANCH   5   6
HETATM    6  C   UNL     1      -8.521  12.853  68.378  1.00  0.00    -0.115 C  
HETATM    7  C   UNL     1      -7.677  13.861  67.517  1.00  0.00    -0.192 C  
HETATM    8  C   UNL     1      -6.392  14.334  68.194  1.00  0.00    -0.133 C  
HETATM    9  C   UNL     1      -8.480  15.084  67.068  1.00  0.00    -0.258 C  
BRANCH   6  10
HETATM   10  O   UNL     1      -7.699  11.742  68.849  1.00  0.00    -0.116 OA 
BRANCH  10  11
HETATM   11  P   UNL     1      -7.369  10.516  67.770  1.00  0.00    -0.087 P  
HETATM   12  O   UNL     1      -6.464  11.443  66.921  1.00  0.00    -0.112 OA 
BRANCH  11  13
HETATM   13  C   UNL     1      -8.804  10.654  66.433  1.00  0.00    -0.154 C  
BRANCH  13  14
HETATM   14  C   UNL     1      -8.306  10.365  65.013  1.00  0.00    -0.166 C  
BRANCH  14  15
HETATM   15  C   UNL     1      -9.407  10.006  64.031  1.00  0.00    -0.324 C  
BRANCH  15  16
HETATM   16  C   UNL     1      -9.649  11.194  63.086  1.00  0.00    -0.388 C  
BRANCH  16  17
HETATM   17  C   UNL     1     -10.657  12.140  63.674  1.00  0.00    -0.504 A  
HETATM   18  C   UNL     1     -12.022  11.825  63.662  1.00  0.00    -0.490 A  
HETATM   19  C   UNL     1     -10.228  13.319  64.295  1.00  0.00    -0.221 A  
HETATM   20  C   UNL     1     -12.511  13.854  64.882  1.00  0.00    -0.420 A  
HETATM   21  C   UNL     1     -12.946  12.689  64.261  1.00  0.00    -0.204 A  
HETATM   22  C   UNL     1     -11.155  14.168  64.899  1.00  0.00    -0.389 A  
ENDBRANCH  16  17
ENDBRANCH  15  16
ENDBRANCH  14  15
ENDBRANCH  13  14
ENDBRANCH  11  13
BRANCH  11  23
HETATM   23  C   UNL     1      -8.438   9.421  68.773  1.00  0.00    -0.122 C  
BRANCH  23  24
HETATM   24  C   UNL     1      -7.921   7.976  68.901  1.00  0.00    -0.118 C  
HETATM   25  C   UNL     1      -8.055   5.632  69.779  1.00  0.00    -0.102 C  
HETATM   26  O   UNL     1      -6.814   7.679  68.434  1.00  0.00    -0.065 OA 
HETATM   27  N   UNL     1      -8.652   6.957  69.471  1.00  0.00    -0.133 N  
HETATM   28  C   UNL     1      -7.732   4.663  68.608  1.00  0.00    -0.072 C  
HETATM   29  O   UNL     1      -7.737   3.441  68.712  1.00  0.00    -0.052 OA 
HETATM   30  C   UNL     1     -10.091   6.867  69.624  1.00  0.00    -0.184 C  
HETATM   31  C   UNL     1     -10.334   5.843  70.748  1.00  0.00    -0.292 C  
HETATM   32  O   UNL     1      -7.305   5.262  67.476  1.00  0.00    -0.076 OA 
HETATM   33  C   UNL     1      -9.069   4.959  70.724  1.00  0.00    -0.181 C  
BRANCH  31  34
HETATM   34  C   UNL     1     -10.600   6.432  72.168  1.00  0.00    -0.249 C  
HETATM   35  C   UNL     1     -11.599   4.339  73.201  1.00  0.00    -0.129 C  
HETATM   36  C   UNL     1     -10.395   4.145  74.115  1.00  0.00    -0.266 C  
HETATM   37  C   UNL     1      -9.139   4.849  73.604  1.00  0.00    -0.119 C  
HETATM   38  C   UNL     1     -11.809   5.817  72.893  1.00  0.00    -0.063 C  
HETATM   39  C   UNL     1      -9.383   6.282  73.117  1.00  0.00    -0.138 C  
ENDBRANCH  31  34
ENDBRANCH  23  24
ENDBRANCH  11  23
ENDBRANCH  10  11
ENDBRANCH   6  10
ENDBRANCH   5   6
ENDBRANCH   3   5
ENDBRANCH   2   3
TORSDOF 13
ENDMDL
MODEL      239
REMARK 921   NORMALIZED FREE ENERGY PREDICTED BY IDOCK:   -3.08 KCAL/MOL
REMARK 922        TOTAL FREE ENERGY PREDICTED BY IDOCK:   -7.89 KCAL/MOL
REMARK 923 INTER-LIGAND FREE ENERGY PREDICTED BY IDOCK:   -7.14 KCAL/MOL
REMARK 924 INTRA-LIGAND FREE ENERGY PREDICTED BY IDOCK:   -0.75 KCAL/MOL
REMARK 927      BINDING AFFINITY PREDICTED BY RF-SCORE:    0.00 PKD
ROOT
HETATM    1  C   UNL     1      -8.035  19.460  67.873  1.00  0.00    -0.335 C  
HETATM    2  C   UNL     1      -9.173  18.462  67.990  1.00  0.00    -0.307 C  
ENDROOT
BRANCH   2   3
HETATM    3  C   UNL     1      -8.828  17.030  68.393  1.00  0.00    -0.247 C  
HETATM    4  O   UNL     1      -9.572  16.345  69.086  1.00  0.00    -0.259 OA 
BRANCH   3   5
HETATM    5  O   UNL     1      -7.689  16.582  67.810  1.00  0.00    -0.147 OA 
BRANCH   5   6
HETATM    6  C   UNL     1      -7.259  15.213  68.091  1.00  0.00    -0.115 C  
HETATM    7  C   UNL     1      -5.894  15.302  68.865  1.00  0.00    -0.097 C  
HETATM    8  C   UNL     1      -5.290  13.944  69.219  1.00  0.00    -0.081 C  
HETATM    9  C   UNL     1      -5.979  16.152  70.134  1.00  0.00    -0.134 C  
BRANCH   6  10
HETATM   10  O   UNL     1      -7.154  14.331  66.931  1.00  0.00     0.107 OA 
BRANCH  10  11
HETATM   11  P   UNL     1      -8.296  13.129  66.773  1.00  0.00     0.344 P  
HETATM   12  O   UNL     1      -9.372  14.145  66.320  1.00  0.00    -0.262 OA 
BRANCH  11  13
HETATM   13  C   UNL     1      -9.122  13.012  68.553  1.00  0.00    -0.053 C  
BRANCH  13  14
HETATM   14  C   UNL     1     -10.546  13.578  68.573  1.00  0.00    -0.257 C  
BRANCH  14  15
HETATM   15  C   UNL     1     -11.621  12.564  68.226  1.00  0.00    -0.376 C  
BRANCH  15  16
HETATM   16  C   UNL     1     -11.110  11.152  68.555  1.00  0.00    -0.298 C  
BRANCH  16  17
HETATM   17  C   UNL     1     -11.772  10.628  69.799  1.00  0.00    -0.385 A  
HETATM   18  C   UNL     1     -11.535   9.318  70.234  1.00  0.00    -0.198 A  
HETATM   19  C   UNL     1     -12.584  11.472  70.565  1.00  0.00    -0.286 A  
HETATM   20  C   UNL     1     -12.913   9.706  72.181  1.00  0.00    -0.493 A  
HETATM   21  C   UNL     1     -12.114   8.858  71.422  1.00  0.00    -0.381 A  
HETATM   22  C   UNL     1     -13.147  11.009  71.754  1.00  0.00    -0.554 A  
ENDBRANCH  16  17
ENDBRANCH  15  16
ENDBRANCH  14  15
ENDBRANCH  13  14
ENDBRANCH  11  13
BRANCH  11  23
HETATM   23  C   UNL     1      -7.024  11.927  67.309  1.00  0.00    -0.145 C  
BRANCH  23  24
HETATM   24  C   UNL     1      -7.441  11.057  68.510  1.00  0.00    -0.106 C  
HETATM   25  C   UNL     1      -8.219   8.908  69.539  1.00  0.00    -0.107 C  
HETATM   26  O   UNL     1      -7.594  11.580  69.621  1.00  0.00     0.150 OA 
HETATM   27  N   UNL     1      -7.610   9.692  68.434  1.00  0.00    -0.081 N  
HETATM   28  C   UNL     1      -7.396   8.673  70.836  1.00  0.00    -0.077 C  
HETATM   29  O   UNL     1      -7.525   7.690  71.558  1.00  0.00    -0.075 OA 
HETATM   30  C   UNL     1      -7.034   8.772  67.473  1.00  0.00    -0.075 C  
HETATM   31  C   UNL     1      -7.924   7.517  67.500  1.00  0.00    -0.116 C  
HETATM   32  O   UNL     1      -6.603   9.703  71.200  1.00  0.00    -0.238 OA 
HETATM   33  C   UNL     1      -8.561   7.545  68.906  1.00  0.00    -0.129 C  
BRANCH  31  34
HETATM   34  C   UNL     1      -9.005   7.416  66.380  1.00  0.00    -0.190 C  
HETATM   35  C   UNL     1      -8.824   4.916  65.982  1.00  0.00    -0.126 C  
HETATM   36  C   UNL     1     -10.208   4.663  66.568  1.00  0.00    -0.273 C  
HETATM   37  C   UNL     1     -10.675   5.783  67.495  1.00  0.00    -0.320 C  
HETATM   38  C   UNL     1      -8.751   6.302  65.351  1.00  0.00    -0.055 C  
HETATM   39  C   UNL     1     -10.432   7.193  66.941  1.00  0.00    -0.364 C  
ENDBRANCH  31  34
ENDBRANCH  23  24
ENDBRANCH  11  23
ENDBRANCH  10  11
ENDBRANCH   6  10
ENDBRANCH   5   6
ENDBRANCH   3   5
ENDBRANCH   2   3
TORSDOF 13
ENDMDL
MODEL      240
REMARK 921   NORMALIZED FREE ENERGY PREDICTED BY IDOCK:   -3.06 KCAL/MOL
REMARK 922        TOTAL FREE ENERGY PREDICTED BY IDOCK:   -7.85 KCAL/MOL
REMARK 923 INTER-LIGAND FREE ENERGY PREDICTED BY IDOCK:   -6.74 KCAL/MOL
REMARK 924 INTRA-LIGAND FREE ENERGY PREDICTED BY IDOCK:   -1.11 KCAL/MOL
REMARK 927      BINDING AFFINITY PREDICTED BY RF-SCORE:    0.00 PKD
ROOT
HETATM    1  C   UNL     1     -12.019  12.492  68.625  1.00  0.00    -0.268 C  
HETATM    2  C   UNL     1     -11.139  11.544  69.419  1.00  0.00    -0.287 C  
ENDROOT
BRANCH   2   3
HETATM    3  C   UNL     1      -9.704  11.335  68.943  1.00  0.00    -0.127 C  
HETATM    4  O   UNL     1      -8.894  10.659  69.570  1.00  0.00    -0.099 OA 
BRANCH   3   5
HETATM    5  O   UNL     1      -9.474  11.874  67.721  1.00  0.00    -0.174 OA 
BRANCH   5   6
HETATM    6  C   UNL     1      -9.361  10.971  66.576  1.00  0.00    -0.180 C  
HETATM    7  C   UNL     1     -10.220  11.586  65.411  1.00  0.00    -0.311 C  
HETATM    8  C   UNL     1     -10.229  10.746  64.135  1.00  0.00    -0.412 C  
HETATM    9  C   UNL     1      -9.817  13.019  65.059  1.00  0.00    -0.059 C  
BRANCH   6  10
HETATM   10  O   UNL     1      -9.726   9.580  66.826  1.00  0.00    -0.172 OA 
BRANCH  10  11
HETATM   11  P   UNL     1      -8.494   8.459  66.877  1.00  0.00    -0.121 P  
HETATM   12  O   UNL     1      -7.789   9.108  65.662  1.00  0.00    -0.093 OA 
BRANCH  11  13
HETATM   13  C   UNL     1      -9.139   6.985  65.747  1.00  0.00     0.058 C  
BRANCH  13  14
HETATM   14  C   UNL     1     -10.382   6.305  66.331  1.00  0.00    -0.072 C  
BRANCH  14  15
HETATM   15  C   UNL     1     -10.450   4.810  66.072  1.00  0.00    -0.332 C  
BRANCH  15  16
HETATM   16  C   UNL     1      -9.637   4.073  67.149  1.00  0.00    -0.231 C  
BRANCH  16  17
HETATM   17  C   UNL     1      -8.519   3.288  66.520  1.00  0.00    -0.107 A  
HETATM   18  C   UNL     1      -7.624   2.561  67.316  1.00  0.00    -0.061 A  
HETATM   19  C   UNL     1      -8.406   3.231  65.126  1.00  0.00    -0.095 A  
HETATM   20  C   UNL     1      -6.519   1.733  65.331  1.00  0.00    -0.023 A  
HETATM   21  C   UNL     1      -6.621   1.791  66.717  1.00  0.00    -0.031 A  
HETATM   22  C   UNL     1      -7.410   2.451  64.538  1.00  0.00    -0.058 A  
ENDBRANCH  16  17
ENDBRANCH  15  16
ENDBRANCH  14  15
ENDBRANCH  13  14
ENDBRANCH  11  13
BRANCH  11  23
HETATM   23  C   UNL     1      -9.328   7.692  68.314  1.00  0.00    -0.145 C  
BRANCH  23  24
HETATM   24  C   UNL     1      -8.366   7.124  69.375  1.00  0.00    -0.133 C  
HETATM   25  C   UNL     1      -7.873   5.931  71.524  1.00  0.00    -0.112 C  
HETATM   26  O   UNL     1      -7.157   7.378  69.304  1.00  0.00    -0.070 OA 
HETATM   27  N   UNL     1      -8.769   6.289  70.394  1.00  0.00    -0.145 N  
HETATM   28  C   UNL     1      -6.696   4.950  71.268  1.00  0.00    -0.039 C  
HETATM   29  O   UNL     1      -6.233   4.201  72.122  1.00  0.00    -0.018 OA 
HETATM   30  C   UNL     1      -9.941   5.437  70.441  1.00  0.00    -0.223 C  
HETATM   31  C   UNL     1     -10.198   5.150  71.931  1.00  0.00    -0.269 C  
HETATM   32  O   UNL     1      -6.112   5.067  70.056  1.00  0.00    -0.020 OA 
HETATM   33  C   UNL     1      -8.811   5.326  72.586  1.00  0.00    -0.123 C  
BRANCH  31  34
HETATM   34  C   UNL     1     -11.279   6.035  72.625  1.00  0.00    -0.326 C  
HETATM   35  C   UNL     1      -9.903   8.164  72.777  1.00  0.00    -0.353 C  
HETATM   36  C   UNL     1     -10.781   8.873  71.752  1.00  0.00    -0.432 C  
HETATM   37  C   UNL     1     -11.552   7.905  70.856  1.00  0.00    -0.286 C  
HETATM   38  C   UNL     1     -10.709   7.125  73.549  1.00  0.00    -0.375 C  
HETATM   39  C   UNL     1     -12.213   6.747  71.614  1.00  0.00    -0.410 C  
ENDBRANCH  31  34
ENDBRANCH  23  24
ENDBRANCH  11  23
ENDBRANCH  10  11
ENDBRANCH   6  10
ENDBRANCH   5   6
ENDBRANCH   3   5
ENDBRANCH   2   3
TORSDOF 13
ENDMDL
MODEL      241
REMARK 921   NORMALIZED FREE ENERGY PREDICTED BY IDOCK:   -3.04 KCAL/MOL
REMARK 922        TOTAL FREE ENERGY PREDICTED BY IDOCK:   -7.82 KCAL/MOL
REMARK 923 INTER-LIGAND FREE ENERGY PREDICTED BY IDOCK:   -6.63 KCAL/MOL
REMARK 924 INTRA-LIGAND FREE ENERGY PREDICTED BY IDOCK:   -1.19 KCAL/MOL
REMARK 927      BINDING AFFINITY PREDICTED BY RF-SCORE:    0.00 PKD
ROOT
HETATM    1  C   UNL     1     -12.651  11.089  70.111  1.00  0.00    -0.281 C  
HETATM    2  C   UNL     1     -11.135  11.165  70.077  1.00  0.00    -0.174 C  
ENDROOT
BRANCH   2   3
HETATM    3  C   UNL     1     -10.370   9.939  69.587  1.00  0.00    -0.241 C  
HETATM    4  O   UNL     1     -10.895   9.064  68.907  1.00  0.00    -0.163 OA 
BRANCH   3   5
HETATM    5  O   UNL     1      -9.049   9.992  69.886  1.00  0.00    -0.213 OA 
BRANCH   5   6
HETATM    6  C   UNL     1      -8.162  10.722  68.981  1.00  0.00    -0.138 C  
HETATM    7  C   UNL     1      -6.774  10.868  69.705  1.00  0.00    -0.131 C  
HETATM    8  C   UNL     1      -5.728  11.635  68.896  1.00  0.00    -0.047 C  
HETATM    9  C   UNL     1      -6.180   9.526  70.137  1.00  0.00    -0.059 C  
BRANCH   6  10
HETATM   10  O   UNL     1      -8.655  12.016  68.517  1.00  0.00    -0.157 OA 
BRANCH  10  11
HETATM   11  P   UNL     1      -8.221  12.500  66.983  1.00  0.00    -0.006 P  
HETATM   12  O   UNL     1      -7.667  13.845  67.512  1.00  0.00    -0.162 OA 
BRANCH  11  13
HETATM   13  C   UNL     1      -9.824  13.404  66.291  1.00  0.00    -0.290 C  
BRANCH  13  14
HETATM   14  C   UNL     1     -10.869  13.652  67.384  1.00  0.00    -0.282 C  
BRANCH  14  15
HETATM   15  C   UNL     1     -10.367  14.494  68.543  1.00  0.00    -0.242 C  
BRANCH  15  16
HETATM   16  C   UNL     1     -11.193  15.787  68.624  1.00  0.00    -0.351 C  
BRANCH  16  17
HETATM   17  C   UNL     1     -10.336  16.982  68.315  1.00  0.00    -0.347 A  
HETATM   18  C   UNL     1     -10.911  18.170  67.846  1.00  0.00    -0.225 A  
HETATM   19  C   UNL     1      -8.957  16.931  68.554  1.00  0.00    -0.254 A  
HETATM   20  C   UNL     1      -8.742  19.237  67.860  1.00  0.00    -0.352 A  
HETATM   21  C   UNL     1     -10.109  19.293  67.612  1.00  0.00    -0.485 A  
HETATM   22  C   UNL     1      -8.168  18.059  68.329  1.00  0.00    -0.298 A  
ENDBRANCH  16  17
ENDBRANCH  15  16
ENDBRANCH  14  15
ENDBRANCH  13  14
ENDBRANCH  11  13
BRANCH  11  23
HETATM   23  C   UNL     1      -8.875  10.909  66.357  1.00  0.00    -0.171 C  
BRANCH  23  24
HETATM   24  C   UNL     1      -7.798   9.950  65.817  1.00  0.00    -0.121 C  
HETATM   25  C   UNL     1      -6.617   7.741  65.744  1.00  0.00    -0.045 C  
HETATM   26  O   UNL     1      -6.921  10.381  65.056  1.00  0.00    -0.128 OA 
HETATM   27  N   UNL     1      -7.776   8.601  66.093  1.00  0.00    -0.096 N  
HETATM   28  C   UNL     1      -6.372   7.378  64.254  1.00  0.00    -0.044 C  
HETATM   29  O   UNL     1      -5.832   6.340  63.883  1.00  0.00    -0.022 OA 
HETATM   30  C   UNL     1      -8.883   7.753  66.491  1.00  0.00    -0.153 C  
HETATM   31  C   UNL     1      -8.253   6.521  67.165  1.00  0.00    -0.113 C  
HETATM   32  O   UNL     1      -6.677   8.354  63.373  1.00  0.00    -0.084 OA 
HETATM   33  C   UNL     1      -6.839   6.445  66.548  1.00  0.00    -0.062 C  
BRANCH  31  34
HETATM   34  C   UNL     1      -8.201   6.541  68.724  1.00  0.00    -0.119 C  
HETATM   35  C   UNL     1      -9.476   4.381  69.115  1.00  0.00    -0.240 C  
HETATM   36  C   UNL     1      -8.231   3.673  69.638  1.00  0.00    -0.069 C  
HETATM   37  C   UNL     1      -6.933   4.330  69.172  1.00  0.00    -0.050 C  
HETATM   38  C   UNL     1      -9.408   5.876  69.407  1.00  0.00    -0.150 C  
HETATM   39  C   UNL     1      -6.931   5.859  69.291  1.00  0.00    -0.064 C  
ENDBRANCH  31  34
ENDBRANCH  23  24
ENDBRANCH  11  23
ENDBRANCH  10  11
ENDBRANCH   6  10
ENDBRANCH   5   6
ENDBRANCH   3   5
ENDBRANCH   2   3
TORSDOF 13
ENDMDL
MODEL      242
REMARK 921   NORMALIZED FREE ENERGY PREDICTED BY IDOCK:   -3.03 KCAL/MOL
REMARK 922        TOTAL FREE ENERGY PREDICTED BY IDOCK:   -7.79 KCAL/MOL
REMARK 923 INTER-LIGAND FREE ENERGY PREDICTED BY IDOCK:   -7.34 KCAL/MOL
REMARK 924 INTRA-LIGAND FREE ENERGY PREDICTED BY IDOCK:   -0.45 KCAL/MOL
REMARK 927      BINDING AFFINITY PREDICTED BY RF-SCORE:    0.00 PKD
ROOT
HETATM    1  C   UNL     1      -8.722   8.777  62.591  1.00  0.00    -0.097 C  
HETATM    2  C   UNL     1      -8.162   8.094  63.825  1.00  0.00    -0.065 C  
ENDROOT
BRANCH   2   3
HETATM    3  C   UNL     1      -8.616   8.603  65.190  1.00  0.00    -0.173 C  
HETATM    4  O   UNL     1      -9.737   9.061  65.382  1.00  0.00    -0.148 OA 
BRANCH   3   5
HETATM    5  O   UNL     1      -7.697   8.384  66.163  1.00  0.00    -0.093 OA 
BRANCH   5   6
HETATM    6  C   UNL     1      -7.241   9.526  66.955  1.00  0.00    -0.087 C  
HETATM    7  C   UNL     1      -5.780   9.866  66.485  1.00  0.00    -0.053 C  
HETATM    8  C   UNL     1      -5.141  11.033  67.236  1.00  0.00    -0.043 C  
HETATM    9  C   UNL     1      -5.680  10.130  64.981  1.00  0.00    -0.114 C  
BRANCH   6  10
HETATM   10  O   UNL     1      -7.306   9.358  68.404  1.00  0.00    -0.076 OA 
BRANCH  10  11
HETATM   11  P   UNL     1      -8.422  10.275  69.236  1.00  0.00    -0.128 P  
HETATM   12  O   UNL     1      -8.118   9.530  70.559  1.00  0.00    -0.174 OA 
BRANCH  11  13
HETATM   13  C   UNL     1     -10.106   9.281  69.034  1.00  0.00    -0.199 C  
BRANCH  13  14
HETATM   14  C   UNL     1     -11.076   9.539  70.192  1.00  0.00    -0.294 C  
BRANCH  14  15
HETATM   15  C   UNL     1     -11.576   8.279  70.876  1.00  0.00    -0.282 C  
BRANCH  15  16
HETATM   16  C   UNL     1     -11.553   8.487  72.399  1.00  0.00    -0.425 C  
BRANCH  16  17
HETATM   17  C   UNL     1     -10.613   7.512  73.050  1.00  0.00    -0.422 A  
HETATM   18  C   UNL     1     -10.946   6.155  73.145  1.00  0.00    -0.258 A  
HETATM   19  C   UNL     1      -9.366   7.950  73.513  1.00  0.00    -0.333 A  
HETATM   20  C   UNL     1      -8.800   5.690  74.156  1.00  0.00    -0.122 A  
HETATM   21  C   UNL     1     -10.039   5.248  73.705  1.00  0.00    -0.220 A  
HETATM   22  C   UNL     1      -8.464   7.037  74.059  1.00  0.00    -0.180 A  
ENDBRANCH  16  17
ENDBRANCH  15  16
ENDBRANCH  14  15
ENDBRANCH  13  14
ENDBRANCH  11  13
BRANCH  11  23
HETATM   23  C   UNL     1      -8.780  11.155  67.672  1.00  0.00    -0.129 C  
BRANCH  23  24
HETATM   24  C   UNL     1      -8.798  12.690  67.799  1.00  0.00    -0.179 C  
HETATM   25  C   UNL     1      -9.944  14.918  67.727  1.00  0.00    -0.222 C  
HETATM   26  O   UNL     1      -7.732  13.305  67.934  1.00  0.00    -0.122 OA 
HETATM   27  N   UNL     1      -9.956  13.436  67.823  1.00  0.00    -0.227 N  
HETATM   28  C   UNL     1      -9.458  15.746  68.948  1.00  0.00    -0.229 C  
HETATM   29  O   UNL     1      -9.854  16.877  69.208  1.00  0.00    -0.237 OA 
HETATM   30  C   UNL     1     -11.290  13.003  68.191  1.00  0.00    -0.294 C  
HETATM   31  C   UNL     1     -12.256  14.019  67.557  1.00  0.00    -0.258 C  
HETATM   32  O   UNL     1      -8.451  15.184  69.651  1.00  0.00    -0.204 OA 
HETATM   33  C   UNL     1     -11.403  15.298  67.410  1.00  0.00    -0.285 C  
BRANCH  31  34
HETATM   34  C   UNL     1     -12.904  13.599  66.202  1.00  0.00    -0.143 C  
HETATM   35  C   UNL     1     -11.353  14.915  64.683  1.00  0.00    -0.362 C  
HETATM   36  C   UNL     1     -10.716  13.643  64.135  1.00  0.00    -0.141 C  
HETATM   37  C   UNL     1     -10.886  12.443  65.064  1.00  0.00    -0.331 C  
HETATM   38  C   UNL     1     -12.799  14.659  65.093  1.00  0.00     0.037 C  
HETATM   39  C   UNL     1     -12.303  12.290  65.630  1.00  0.00    -0.032 C  
ENDBRANCH  31  34
ENDBRANCH  23  24
ENDBRANCH  11  23
ENDBRANCH  10  11
ENDBRANCH   6  10
ENDBRANCH   5   6
ENDBRANCH   3   5
ENDBRANCH   2   3
TORSDOF 13
ENDMDL
MODEL      243
REMARK 921   NORMALIZED FREE ENERGY PREDICTED BY IDOCK:   -2.96 KCAL/MOL
REMARK 922        TOTAL FREE ENERGY PREDICTED BY IDOCK:   -7.67 KCAL/MOL
REMARK 923 INTER-LIGAND FREE ENERGY PREDICTED BY IDOCK:   -6.95 KCAL/MOL
REMARK 924 INTRA-LIGAND FREE ENERGY PREDICTED BY IDOCK:   -0.73 KCAL/MOL
REMARK 927      BINDING AFFINITY PREDICTED BY RF-SCORE:    0.00 PKD
ROOT
HETATM    1  C   UNL     1     -11.147  12.860  63.994  1.00  0.00    -0.455 C  
HETATM    2  C   UNL     1     -11.033  11.350  63.884  1.00  0.00    -0.442 C  
ENDROOT
BRANCH   2   3
HETATM    3  C   UNL     1      -9.636  10.736  63.933  1.00  0.00    -0.293 C  
HETATM    4  O   UNL     1      -9.357   9.689  63.356  1.00  0.00    -0.207 OA 
BRANCH   3   5
HETATM    5  O   UNL     1      -8.739  11.525  64.573  1.00  0.00     0.263 OA 
BRANCH   5   6
HETATM    6  C   UNL     1      -8.162  11.042  65.828  1.00  0.00    -0.064 C  
HETATM    7  C   UNL     1      -6.922  10.149  65.459  1.00  0.00    -0.131 C  
HETATM    8  C   UNL     1      -6.212   9.543  66.668  1.00  0.00    -0.065 C  
HETATM    9  C   UNL     1      -5.893  10.880  64.594  1.00  0.00     0.208 C  
BRANCH   6  10
HETATM   10  O   UNL     1      -9.080  10.334  66.716  1.00  0.00    -0.142 OA 
BRANCH  10  11
HETATM   11  P   UNL     1      -9.484  11.074  68.153  1.00  0.00    -0.185 P  
HETATM   12  O   UNL     1     -10.012  12.328  67.414  1.00  0.00    -0.198 OA 
BRANCH  11  13
HETATM   13  C   UNL     1      -7.852  12.038  68.674  1.00  0.00    -0.091 C  
BRANCH  13  14
HETATM   14  C   UNL     1      -7.896  13.516  68.272  1.00  0.00    -0.145 C  
BRANCH  14  15
HETATM   15  C   UNL     1      -6.863  14.380  68.974  1.00  0.00    -0.111 C  
BRANCH  15  16
HETATM   16  C   UNL     1      -5.874  14.932  67.933  1.00  0.00    -0.150 C  
BRANCH  16  17
HETATM   17  C   UNL     1      -6.223  16.348  67.573  1.00  0.00    -0.186 A  
HETATM   18  C   UNL     1      -7.157  16.618  66.564  1.00  0.00    -0.212 A  
HETATM   19  C   UNL     1      -5.658  17.409  68.290  1.00  0.00    -0.145 A  
HETATM   20  C   UNL     1      -6.954  18.987  66.996  1.00  0.00    -0.208 A  
HETATM   21  C   UNL     1      -7.514  17.940  66.274  1.00  0.00    -0.321 A  
HETATM   22  C   UNL     1      -6.029  18.723  68.002  1.00  0.00    -0.201 A  
ENDBRANCH  16  17
ENDBRANCH  15  16
ENDBRANCH  14  15
ENDBRANCH  13  14
ENDBRANCH  11  13
BRANCH  11  23
HETATM   23  C   UNL     1      -8.861   9.592  69.026  1.00  0.00    -0.143 C  
BRANCH  23  24
HETATM   24  C   UNL     1      -9.938   8.820  69.811  1.00  0.00    -0.190 C  
HETATM   25  C   UNL     1     -11.090   6.713  70.529  1.00  0.00    -0.307 C  
HETATM   26  O   UNL     1     -10.839   9.443  70.388  1.00  0.00    -0.232 OA 
HETATM   27  N   UNL     1      -9.934   7.450  69.958  1.00  0.00    -0.183 N  
HETATM   28  C   UNL     1     -11.367   6.814  72.055  1.00  0.00    -0.272 C  
HETATM   29  O   UNL     1     -11.902   5.928  72.713  1.00  0.00    -0.207 OA 
HETATM   30  C   UNL     1      -8.806   6.545  69.859  1.00  0.00    -0.143 C  
HETATM   31  C   UNL     1      -9.403   5.154  69.579  1.00  0.00    -0.181 C  
HETATM   32  O   UNL     1     -11.097   8.019  72.603  1.00  0.00    -0.344 OA 
HETATM   33  C   UNL     1     -10.830   5.239  70.162  1.00  0.00    -0.093 C  
BRANCH  31  34
HETATM   34  C   UNL     1      -9.416   4.698  68.087  1.00  0.00    -0.195 C  
HETATM   35  C   UNL     1     -10.694   6.685  67.157  1.00  0.00    -0.440 C  
HETATM   36  C   UNL     1      -9.468   7.197  66.409  1.00  0.00    -0.177 C  
HETATM   37  C   UNL     1      -8.156   6.675  66.990  1.00  0.00    -0.113 C  
HETATM   38  C   UNL     1     -10.647   5.167  67.292  1.00  0.00    -0.139 C  
HETATM   39  C   UNL     1      -8.167   5.174  67.303  1.00  0.00    -0.107 C  
ENDBRANCH  31  34
ENDBRANCH  23  24
ENDBRANCH  11  23
ENDBRANCH  10  11
ENDBRANCH   6  10
ENDBRANCH   5   6
ENDBRANCH   3   5
ENDBRANCH   2   3
TORSDOF 13
ENDMDL
MODEL      244
REMARK 921   NORMALIZED FREE ENERGY PREDICTED BY IDOCK:   -2.96 KCAL/MOL
REMARK 922        TOTAL FREE ENERGY PREDICTED BY IDOCK:   -7.67 KCAL/MOL
REMARK 923 INTER-LIGAND FREE ENERGY PREDICTED BY IDOCK:   -7.59 KCAL/MOL
REMARK 924 INTRA-LIGAND FREE ENERGY PREDICTED BY IDOCK:   -0.08 KCAL/MOL
REMARK 927      BINDING AFFINITY PREDICTED BY RF-SCORE:    0.00 PKD
ROOT
HETATM    1  C   UNL     1      -7.580   5.946  66.471  1.00  0.00    -0.095 C  
HETATM    2  C   UNL     1      -7.592   7.446  66.236  1.00  0.00    -0.088 C  
ENDROOT
BRANCH   2   3
HETATM    3  C   UNL     1      -7.645   7.941  64.794  1.00  0.00    -0.110 C  
HETATM    4  O   UNL     1      -7.578   7.181  63.834  1.00  0.00    -0.096 OA 
BRANCH   3   5
HETATM    5  O   UNL     1      -7.886   9.272  64.706  1.00  0.00    -0.110 OA 
BRANCH   5   6
HETATM    6  C   UNL     1      -9.251   9.746  64.933  1.00  0.00    -0.257 C  
HETATM    7  C   UNL     1      -9.634  10.666  63.717  1.00  0.00    -0.354 C  
HETATM    8  C   UNL     1     -11.036  11.267  63.810  1.00  0.00    -0.381 C  
HETATM    9  C   UNL     1      -9.484   9.965  62.365  1.00  0.00    -0.174 C  
BRANCH   6  10
HETATM   10  O   UNL     1      -9.482  10.426  66.205  1.00  0.00    -0.169 OA 
BRANCH  10  11
HETATM   11  P   UNL     1      -8.628  11.827  66.495  1.00  0.00    -0.042 P  
HETATM   12  O   UNL     1      -7.275  11.084  66.371  1.00  0.00    -0.141 OA 
BRANCH  11  13
HETATM   13  C   UNL     1      -8.446  11.882  68.452  1.00  0.00    -0.155 C  
BRANCH  13  14
HETATM   14  C   UNL     1      -7.831  10.597  69.016  1.00  0.00    -0.137 C  
BRANCH  14  15
HETATM   15  C   UNL     1      -8.845   9.624  69.590  1.00  0.00    -0.212 C  
BRANCH  15  16
HETATM   16  C   UNL     1      -8.246   8.941  70.830  1.00  0.00    -0.198 C  
BRANCH  16  17
HETATM   17  C   UNL     1      -7.531   7.678  70.443  1.00  0.00    -0.079 A  
HETATM   18  C   UNL     1      -6.280   7.731  69.814  1.00  0.00    -0.030 A  
HETATM   19  C   UNL     1      -8.087   6.435  70.766  1.00  0.00    -0.120 A  
HETATM   20  C   UNL     1      -6.155   5.317  69.839  1.00  0.00    -0.021 A  
HETATM   21  C   UNL     1      -5.599   6.547  69.507  1.00  0.00    -0.014 A  
HETATM   22  C   UNL     1      -7.396   5.261  70.467  1.00  0.00    -0.070 A  
ENDBRANCH  16  17
ENDBRANCH  15  16
ENDBRANCH  14  15
ENDBRANCH  13  14
ENDBRANCH  11  13
BRANCH  11  23
HETATM   23  C   UNL     1     -10.227  12.705  66.642  1.00  0.00    -0.236 C  
BRANCH  23  24
HETATM   24  C   UNL     1     -10.408  13.473  67.964  1.00  0.00    -0.241 C  
HETATM   25  C   UNL     1     -10.304  15.547  69.367  1.00  0.00    -0.258 C  
HETATM   26  O   UNL     1     -10.673  12.852  69.001  1.00  0.00    -0.195 OA 
HETATM   27  N   UNL     1     -10.343  14.846  68.059  1.00  0.00    -0.241 N  
HETATM   28  C   UNL     1     -11.598  15.611  70.224  1.00  0.00    -0.356 C  
HETATM   29  O   UNL     1     -11.858  16.523  71.002  1.00  0.00    -0.174 OA 
HETATM   30  C   UNL     1     -10.558  15.825  67.011  1.00  0.00    -0.316 C  
HETATM   31  C   UNL     1      -9.868  17.115  67.488  1.00  0.00    -0.266 C  
HETATM   32  O   UNL     1     -12.378  14.511  70.159  1.00  0.00    -0.320 OA 
HETATM   33  C   UNL     1      -9.855  16.981  69.026  1.00  0.00    -0.240 C  
BRANCH  31  34
HETATM   34  C   UNL     1      -8.439  17.381  66.921  1.00  0.00    -0.264 C  
HETATM   35  C   UNL     1      -8.443  19.903  67.208  1.00  0.00    -0.375 C  
HETATM   36  C   UNL     1      -7.388  19.837  68.308  1.00  0.00    -0.349 C  
HETATM   37  C   UNL     1      -7.318  18.469  68.984  1.00  0.00    -0.243 C  
HETATM   38  C   UNL     1      -8.274  18.745  66.231  1.00  0.00    -0.270 C  
HETATM   39  C   UNL     1      -7.336  17.289  68.005  1.00  0.00    -0.193 C  
ENDBRANCH  31  34
ENDBRANCH  23  24
ENDBRANCH  11  23
ENDBRANCH  10  11
ENDBRANCH   6  10
ENDBRANCH   5   6
ENDBRANCH   3   5
ENDBRANCH   2   3
TORSDOF 13
ENDMDL
MODEL      245
REMARK 921   NORMALIZED FREE ENERGY PREDICTED BY IDOCK:   -2.94 KCAL/MOL
REMARK 922        TOTAL FREE ENERGY PREDICTED BY IDOCK:   -7.64 KCAL/MOL
REMARK 923 INTER-LIGAND FREE ENERGY PREDICTED BY IDOCK:   -7.06 KCAL/MOL
REMARK 924 INTRA-LIGAND FREE ENERGY PREDICTED BY IDOCK:   -0.58 KCAL/MOL
REMARK 927      BINDING AFFINITY PREDICTED BY RF-SCORE:    0.00 PKD
ROOT
HETATM    1  C   UNL     1      -6.474   9.952  62.854  1.00  0.00    -0.121 C  
HETATM    2  C   UNL     1      -5.579  10.215  64.051  1.00  0.00    -0.126 C  
ENDROOT
BRANCH   2   3
HETATM    3  C   UNL     1      -6.192  10.084  65.443  1.00  0.00    -0.095 C  
HETATM    4  O   UNL     1      -5.590   9.573  66.381  1.00  0.00    -0.050 OA 
BRANCH   3   5
HETATM    5  O   UNL     1      -7.401  10.689  65.542  1.00  0.00    -0.135 OA 
BRANCH   5   6
HETATM    6  C   UNL     1      -8.039  10.754  66.856  1.00  0.00    -0.132 C  
HETATM    7  C   UNL     1      -7.116  11.630  67.780  1.00  0.00    -0.092 C  
HETATM    8  C   UNL     1      -7.632  11.780  69.210  1.00  0.00     0.166 C  
HETATM    9  C   UNL     1      -6.838  13.020  67.204  1.00  0.00     0.118 C  
BRANCH   6  10
HETATM   10  O   UNL     1      -8.342   9.467  67.477  1.00  0.00    -0.123 OA 
BRANCH  10  11
HETATM   11  P   UNL     1      -9.946   9.036  67.610  1.00  0.00    -0.231 P  
HETATM   12  O   UNL     1     -10.156   9.163  66.082  1.00  0.00    -0.290 OA 
BRANCH  11  13
HETATM   13  C   UNL     1     -10.880  10.741  67.904  1.00  0.00    -0.264 C  
BRANCH  13  14
HETATM   14  C   UNL     1     -11.239  10.962  69.377  1.00  0.00    -0.335 C  
BRANCH  14  15
HETATM   15  C   UNL     1     -12.631  11.528  69.598  1.00  0.00     0.048 C  
BRANCH  15  16
HETATM   16  C   UNL     1     -12.881  11.681  71.107  1.00  0.00    -0.392 C  
BRANCH  16  17
HETATM   17  C   UNL     1     -12.968  13.133  71.484  1.00  0.00    -0.412 A  
HETATM   18  C   UNL     1     -12.473  14.123  70.625  1.00  0.00    -0.432 A  
HETATM   19  C   UNL     1     -13.603  13.508  72.673  1.00  0.00    -0.572 A  
HETATM   20  C   UNL     1     -13.248  15.839  72.140  1.00  0.00    -0.508 A  
HETATM   21  C   UNL     1     -12.609  15.475  70.961  1.00  0.00    -0.513 A  
HETATM   22  C   UNL     1     -13.744  14.858  72.994  1.00  0.00    -0.287 A  
ENDBRANCH  16  17
ENDBRANCH  15  16
ENDBRANCH  14  15
ENDBRANCH  13  14
ENDBRANCH  11  13
BRANCH  11  23
HETATM   23  C   UNL     1      -9.698   8.887  69.417  1.00  0.00    -0.169 C  
BRANCH  23  24
HETATM   24  C   UNL     1     -10.292   7.607  70.034  1.00  0.00    -0.223 C  
HETATM   25  C   UNL     1     -10.171   5.196  70.710  1.00  0.00    -0.238 C  
HETATM   26  O   UNL     1     -11.492   7.574  70.338  1.00  0.00    -0.269 OA 
HETATM   27  N   UNL     1      -9.545   6.486  70.322  1.00  0.00    -0.161 N  
HETATM   28  C   UNL     1     -10.803   5.063  72.123  1.00  0.00    -0.109 C  
HETATM   29  O   UNL     1     -10.875   4.007  72.743  1.00  0.00    -0.144 OA 
HETATM   30  C   UNL     1      -8.117   6.401  70.559  1.00  0.00    -0.117 C  
HETATM   31  C   UNL     1      -7.732   4.932  70.308  1.00  0.00    -0.062 C  
HETATM   32  O   UNL     1     -11.402   6.181  72.586  1.00  0.00    -0.268 OA 
HETATM   33  C   UNL     1      -9.042   4.157  70.564  1.00  0.00    -0.176 C  
BRANCH  31  34
HETATM   34  C   UNL     1      -7.135   4.608  68.904  1.00  0.00    -0.052 C  
HETATM   35  C   UNL     1      -6.392   2.234  69.410  1.00  0.00    -0.029 C  
HETATM   36  C   UNL     1      -7.448   1.644  68.482  1.00  0.00    -0.043 C  
HETATM   37  C   UNL     1      -8.615   2.595  68.227  1.00  0.00    -0.109 C  
HETATM   38  C   UNL     1      -5.962   3.614  68.927  1.00  0.00    -0.024 C  
HETATM   39  C   UNL     1      -8.189   4.036  67.921  1.00  0.00    -0.094 C  
ENDBRANCH  31  34
ENDBRANCH  23  24
ENDBRANCH  11  23
ENDBRANCH  10  11
ENDBRANCH   6  10
ENDBRANCH   5   6
ENDBRANCH   3   5
ENDBRANCH   2   3
TORSDOF 13
ENDMDL
MODEL      246
REMARK 921   NORMALIZED FREE ENERGY PREDICTED BY IDOCK:   -2.88 KCAL/MOL
REMARK 922        TOTAL FREE ENERGY PREDICTED BY IDOCK:   -7.54 KCAL/MOL
REMARK 923 INTER-LIGAND FREE ENERGY PREDICTED BY IDOCK:   -5.19 KCAL/MOL
REMARK 924 INTRA-LIGAND FREE ENERGY PREDICTED BY IDOCK:   -2.34 KCAL/MOL
REMARK 927      BINDING AFFINITY PREDICTED BY RF-SCORE:    0.00 PKD
ROOT
HETATM    1  C   UNL     1      -6.434   8.772  65.218  1.00  0.00    -0.064 C  
HETATM    2  C   UNL     1      -7.695   8.678  64.379  1.00  0.00    -0.126 C  
ENDROOT
BRANCH   2   3
HETATM    3  C   UNL     1      -9.023   9.025  65.047  1.00  0.00    -0.147 C  
HETATM    4  O   UNL     1      -9.498  10.156  65.020  1.00  0.00    -0.225 OA 
BRANCH   3   5
HETATM    5  O   UNL     1      -9.653   7.938  65.556  1.00  0.00     0.269 OA 
BRANCH   5   6
HETATM    6  C   UNL     1      -9.688   7.774  67.009  1.00  0.00    -0.197 C  
HETATM    7  C   UNL     1     -10.815   6.727  67.334  1.00  0.00    -0.417 C  
HETATM    8  C   UNL     1     -11.000   6.455  68.826  1.00  0.00    -0.404 C  
HETATM    9  C   UNL     1     -10.623   5.395  66.607  1.00  0.00    -0.359 C  
BRANCH   6  10
HETATM   10  O   UNL     1      -9.866   9.001  67.781  1.00  0.00    -0.154 OA 
BRANCH  10  11
HETATM   11  P   UNL     1      -9.147   9.076  69.282  1.00  0.00    -0.151 P  
HETATM   12  O   UNL     1     -10.369   9.812  69.883  1.00  0.00    -0.219 OA 
BRANCH  11  13
HETATM   13  C   UNL     1      -8.126  10.755  69.243  1.00  0.00    -0.096 C  
BRANCH  13  14
HETATM   14  C   UNL     1      -7.741  11.169  67.818  1.00  0.00    -0.112 C  
BRANCH  14  15
HETATM   15  C   UNL     1      -7.797  12.666  67.570  1.00  0.00    -0.175 C  
BRANCH  15  16
HETATM   16  C   UNL     1      -9.202  13.044  67.074  1.00  0.00    -0.232 C  
BRANCH  16  17
HETATM   17  C   UNL     1      -9.716  14.248  67.813  1.00  0.00    -0.222 A  
HETATM   18  C   UNL     1      -8.877  14.970  68.670  1.00  0.00    -0.185 A  
HETATM   19  C   UNL     1     -11.027  14.690  67.598  1.00  0.00    -0.296 A  
HETATM   20  C   UNL     1     -10.652  16.557  69.087  1.00  0.00    -0.319 A  
HETATM   21  C   UNL     1      -9.351  16.120  69.311  1.00  0.00    -0.227 A  
HETATM   22  C   UNL     1     -11.487  15.844  68.232  1.00  0.00    -0.320 A  
ENDBRANCH  16  17
ENDBRANCH  15  16
ENDBRANCH  14  15
ENDBRANCH  13  14
ENDBRANCH  11  13
BRANCH  11  23
HETATM   23  C   UNL     1      -7.702   8.207  68.572  1.00  0.00    -0.112 C  
BRANCH  23  24
HETATM   24  C   UNL     1      -7.365   6.871  69.261  1.00  0.00    -0.092 C  
HETATM   25  C   UNL     1      -6.797   4.430  69.230  1.00  0.00    -0.046 C  
HETATM   26  O   UNL     1      -7.457   6.778  70.491  1.00  0.00    -0.082 OA 
HETATM   27  N   UNL     1      -6.907   5.763  68.583  1.00  0.00    -0.060 N  
HETATM   28  C   UNL     1      -5.664   4.190  70.266  1.00  0.00    -0.013 C  
HETATM   29  O   UNL     1      -5.148   3.096  70.473  1.00  0.00    -0.003 OA 
HETATM   30  C   UNL     1      -6.235   5.715  67.300  1.00  0.00    -0.030 C  
HETATM   31  C   UNL     1      -6.418   4.278  66.778  1.00  0.00    -0.041 C  
HETATM   32  O   UNL     1      -5.364   5.256  71.039  1.00  0.00    -0.004 OA 
HETATM   33  C   UNL     1      -6.626   3.443  68.060  1.00  0.00    -0.038 C  
BRANCH  31  34
HETATM   34  C   UNL     1      -7.576   4.061  65.755  1.00  0.00    -0.085 C  
HETATM   35  C   UNL     1      -6.196   4.353  63.644  1.00  0.00    -0.018 C  
HETATM   36  C   UNL     1      -6.342   2.880  63.276  1.00  0.00    -0.018 C  
HETATM   37  C   UNL     1      -6.679   1.997  64.475  1.00  0.00    -0.031 C  
HETATM   38  C   UNL     1      -7.408   4.832  64.435  1.00  0.00    -0.066 C  
HETATM   39  C   UNL     1      -7.775   2.570  65.382  1.00  0.00    -0.077 C  
ENDBRANCH  31  34
ENDBRANCH  23  24
ENDBRANCH  11  23
ENDBRANCH  10  11
ENDBRANCH   6  10
ENDBRANCH   5   6
ENDBRANCH   3   5
ENDBRANCH   2   3
TORSDOF 13
ENDMDL
MODEL      247
REMARK 921   NORMALIZED FREE ENERGY PREDICTED BY IDOCK:   -2.88 KCAL/MOL
REMARK 922        TOTAL FREE ENERGY PREDICTED BY IDOCK:   -7.54 KCAL/MOL
REMARK 923 INTER-LIGAND FREE ENERGY PREDICTED BY IDOCK:   -7.61 KCAL/MOL
REMARK 924 INTRA-LIGAND FREE ENERGY PREDICTED BY IDOCK:    0.08 KCAL/MOL
REMARK 927      BINDING AFFINITY PREDICTED BY RF-SCORE:    0.00 PKD
ROOT
HETATM    1  C   UNL     1      -6.507  10.014  62.967  1.00  0.00    -0.130 C  
HETATM    2  C   UNL     1      -5.458  10.228  64.043  1.00  0.00    -0.139 C  
ENDROOT
BRANCH   2   3
HETATM    3  C   UNL     1      -5.900  10.125  65.501  1.00  0.00    -0.094 C  
HETATM    4  O   UNL     1      -5.385   9.341  66.291  1.00  0.00    -0.039 OA 
BRANCH   3   5
HETATM    5  O   UNL     1      -6.822  11.061  65.835  1.00  0.00    -0.078 OA 
BRANCH   5   6
HETATM    6  C   UNL     1      -7.323  11.079  67.209  1.00  0.00    -0.106 C  
HETATM    7  C   UNL     1      -6.147  11.572  68.129  1.00  0.00    -0.045 C  
HETATM    8  C   UNL     1      -6.501  11.629  69.614  1.00  0.00    -0.124 C  
HETATM    9  C   UNL     1      -5.581  12.928  67.702  1.00  0.00    -0.120 C  
BRANCH   6  10
HETATM   10  O   UNL     1      -7.885   9.822  67.696  1.00  0.00    -0.094 OA 
BRANCH  10  11
HETATM   11  P   UNL     1      -9.545   9.678  67.715  1.00  0.00    -0.145 P  
HETATM   12  O   UNL     1      -9.617   9.754  66.170  1.00  0.00    -0.192 OA 
BRANCH  11  13
HETATM   13  C   UNL     1     -10.188  11.530  67.860  1.00  0.00    -0.184 C  
BRANCH  13  14
HETATM   14  C   UNL     1     -10.970  11.775  69.155  1.00  0.00    -0.261 C  
BRANCH  14  15
HETATM   15  C   UNL     1     -12.122  12.752  69.008  1.00  0.00    -0.188 C  
BRANCH  15  16
HETATM   16  C   UNL     1     -11.561  14.169  68.805  1.00  0.00    -0.362 C  
BRANCH  16  17
HETATM   17  C   UNL     1     -11.501  14.508  67.342  1.00  0.00    -0.385 A  
HETATM   18  C   UNL     1     -10.417  15.228  66.822  1.00  0.00    -0.293 A  
HETATM   19  C   UNL     1     -12.503  14.051  66.478  1.00  0.00    -0.351 A  
HETATM   20  C   UNL     1     -11.341  15.027  64.597  1.00  0.00    -0.357 A  
HETATM   21  C   UNL     1     -10.345  15.491  65.449  1.00  0.00    -0.422 A  
HETATM   22  C   UNL     1     -12.417  14.308  65.110  1.00  0.00    -0.423 A  
ENDBRANCH  16  17
ENDBRANCH  15  16
ENDBRANCH  14  15
ENDBRANCH  13  14
ENDBRANCH  11  13
BRANCH  11  23
HETATM   23  C   UNL     1      -9.461   9.588  69.540  1.00  0.00    -0.185 C  
BRANCH  23  24
HETATM   24  C   UNL     1     -10.280   8.438  70.156  1.00  0.00    -0.195 C  
HETATM   25  C   UNL     1     -10.570   6.067  70.915  1.00  0.00    -0.251 C  
HETATM   26  O   UNL     1     -11.486   8.599  70.381  1.00  0.00    -0.239 OA 
HETATM   27  N   UNL     1      -9.731   7.231  70.528  1.00  0.00    -0.176 N  
HETATM   28  C   UNL     1     -11.300   6.089  72.286  1.00  0.00    -0.303 C  
HETATM   29  O   UNL     1     -11.569   5.082  72.932  1.00  0.00    -0.272 OA 
HETATM   30  C   UNL     1      -8.351   6.942  70.862  1.00  0.00    -0.130 C  
HETATM   31  C   UNL     1      -8.180   5.423  70.684  1.00  0.00    -0.114 C  
HETATM   32  O   UNL     1     -11.748   7.303  72.672  1.00  0.00    -0.253 OA 
HETATM   33  C   UNL     1      -9.606   4.865  70.876  1.00  0.00    -0.241 C  
BRANCH  31  34
HETATM   34  C   UNL     1      -7.555   4.955  69.333  1.00  0.00    -0.060 C  
HETATM   35  C   UNL     1      -8.558   2.623  69.306  1.00  0.00    -0.114 C  
HETATM   36  C   UNL     1      -9.465   2.964  68.128  1.00  0.00    -0.220 C  
HETATM   37  C   UNL     1      -9.704   4.465  67.976  1.00  0.00    -0.182 C  
HETATM   38  C   UNL     1      -7.275   3.445  69.253  1.00  0.00    -0.049 C  
HETATM   39  C   UNL     1      -8.435   5.315  68.109  1.00  0.00    -0.096 C  
ENDBRANCH  31  34
ENDBRANCH  23  24
ENDBRANCH  11  23
ENDBRANCH  10  11
ENDBRANCH   6  10
ENDBRANCH   5   6
ENDBRANCH   3   5
ENDBRANCH   2   3
TORSDOF 13
ENDMDL
MODEL      248
REMARK 921   NORMALIZED FREE ENERGY PREDICTED BY IDOCK:   -2.80 KCAL/MOL
REMARK 922        TOTAL FREE ENERGY PREDICTED BY IDOCK:   -7.39 KCAL/MOL
REMARK 923 INTER-LIGAND FREE ENERGY PREDICTED BY IDOCK:   -6.69 KCAL/MOL
REMARK 924 INTRA-LIGAND FREE ENERGY PREDICTED BY IDOCK:   -0.70 KCAL/MOL
REMARK 927      BINDING AFFINITY PREDICTED BY RF-SCORE:    0.00 PKD
ROOT
HETATM    1  C   UNL     1     -12.008  10.837  70.179  1.00  0.00    -0.432 C  
HETATM    2  C   UNL     1     -10.971   9.732  70.255  1.00  0.00    -0.352 C  
ENDROOT
BRANCH   2   3
HETATM    3  C   UNL     1      -9.527  10.083  69.905  1.00  0.00    -0.181 C  
HETATM    4  O   UNL     1      -8.569   9.582  70.484  1.00  0.00    -0.213 OA 
BRANCH   3   5
HETATM    5  O   UNL     1      -9.434  10.903  68.829  1.00  0.00    -0.183 OA 
BRANCH   5   6
HETATM    6  C   UNL     1      -8.111  11.147  68.256  1.00  0.00    -0.131 C  
HETATM    7  C   UNL     1      -8.015  12.685  67.943  1.00  0.00    -0.156 C  
HETATM    8  C   UNL     1      -6.689  13.110  67.313  1.00  0.00     0.020 C  
HETATM    9  C   UNL     1      -8.287  13.564  69.166  1.00  0.00     0.459 C  
BRANCH   6  10
HETATM   10  O   UNL     1      -7.768  10.346  67.084  1.00  0.00    -0.098 OA 
BRANCH  10  11
HETATM   11  P   UNL     1      -8.975  10.053  65.973  1.00  0.00    -0.164 P  
HETATM   12  O   UNL     1      -8.647  11.355  65.203  1.00  0.00     0.062 OA 
BRANCH  11  13
HETATM   13  C   UNL     1     -10.568  10.892  66.761  1.00  0.00    -0.259 C  
BRANCH  13  14
HETATM   14  C   UNL     1     -11.057  12.094  65.946  1.00  0.00    -0.360 C  
BRANCH  14  15
HETATM   15  C   UNL     1     -11.950  13.047  66.720  1.00  0.00    -0.434 C  
BRANCH  15  16
HETATM   16  C   UNL     1     -11.233  14.398  66.875  1.00  0.00    -0.340 C  
BRANCH  16  17
HETATM   17  C   UNL     1     -11.323  14.883  68.295  1.00  0.00    -0.325 A  
HETATM   18  C   UNL     1     -10.705  16.080  68.680  1.00  0.00    -0.281 A  
HETATM   19  C   UNL     1     -12.079  14.166  69.230  1.00  0.00    -0.364 A  
HETATM   20  C   UNL     1     -11.599  15.834  70.912  1.00  0.00    -0.440 A  
HETATM   21  C   UNL     1     -10.840  16.548  69.992  1.00  0.00    -0.258 A  
HETATM   22  C   UNL     1     -12.218  14.647  70.532  1.00  0.00    -0.389 A  
ENDBRANCH  16  17
ENDBRANCH  15  16
ENDBRANCH  14  15
ENDBRANCH  13  14
ENDBRANCH  11  13
BRANCH  11  23
HETATM   23  C   UNL     1      -9.363   8.514  66.884  1.00  0.00    -0.172 C  
BRANCH  23  24
HETATM   24  C   UNL     1      -8.125   7.703  67.312  1.00  0.00    -0.119 C  
HETATM   25  C   UNL     1      -6.893   6.176  68.873  1.00  0.00    -0.066 C  
HETATM   26  O   UNL     1      -7.064   7.831  66.689  1.00  0.00    -0.075 OA 
HETATM   27  N   UNL     1      -8.139   6.783  68.338  1.00  0.00    -0.118 N  
HETATM   28  C   UNL     1      -6.145   5.118  68.016  1.00  0.00    -0.027 C  
HETATM   29  O   UNL     1      -5.467   4.212  68.488  1.00  0.00    -0.011 OA 
HETATM   30  C   UNL     1      -9.277   6.066  68.879  1.00  0.00    -0.124 C  
HETATM   31  C   UNL     1      -8.857   5.604  70.286  1.00  0.00    -0.146 C  
HETATM   32  O   UNL     1      -6.179   5.338  66.684  1.00  0.00    -0.033 OA 
HETATM   33  C   UNL     1      -7.316   5.535  70.208  1.00  0.00    -0.068 C  
BRANCH  31  34
HETATM   34  C   UNL     1      -9.334   6.496  71.474  1.00  0.00    -0.149 C  
HETATM   35  C   UNL     1     -10.056   4.615  73.018  1.00  0.00    -0.207 C  
HETATM   36  C   UNL     1      -8.917   4.899  73.991  1.00  0.00    -0.113 C  
HETATM   37  C   UNL     1      -7.757   5.654  73.346  1.00  0.00    -0.095 C  
HETATM   38  C   UNL     1     -10.481   5.891  72.300  1.00  0.00    -0.246 C  
HETATM   39  C   UNL     1      -8.193   6.833  72.468  1.00  0.00    -0.104 C  
ENDBRANCH  31  34
ENDBRANCH  23  24
ENDBRANCH  11  23
ENDBRANCH  10  11
ENDBRANCH   6  10
ENDBRANCH   5   6
ENDBRANCH   3   5
ENDBRANCH   2   3
TORSDOF 13
ENDMDL
MODEL      249
REMARK 921   NORMALIZED FREE ENERGY PREDICTED BY IDOCK:   -2.76 KCAL/MOL
REMARK 922        TOTAL FREE ENERGY PREDICTED BY IDOCK:   -7.33 KCAL/MOL
REMARK 923 INTER-LIGAND FREE ENERGY PREDICTED BY IDOCK:   -6.43 KCAL/MOL
REMARK 924 INTRA-LIGAND FREE ENERGY PREDICTED BY IDOCK:   -0.90 KCAL/MOL
REMARK 927      BINDING AFFINITY PREDICTED BY RF-SCORE:    0.00 PKD
ROOT
HETATM    1  C   UNL     1     -11.676   8.693  72.512  1.00  0.00    -0.330 C  
HETATM    2  C   UNL     1     -10.294   8.903  71.922  1.00  0.00    -0.407 C  
ENDROOT
BRANCH   2   3
HETATM    3  C   UNL     1     -10.180   9.053  70.407  1.00  0.00    -0.209 C  
HETATM    4  O   UNL     1     -10.103  10.147  69.858  1.00  0.00    -0.244 OA 
BRANCH   3   5
HETATM    5  O   UNL     1     -10.059   7.862  69.771  1.00  0.00    -0.191 OA 
BRANCH   5   6
HETATM    6  C   UNL     1      -8.931   7.675  68.858  1.00  0.00    -0.137 C  
HETATM    7  C   UNL     1      -7.629   7.594  69.736  1.00  0.00    -0.093 C  
HETATM    8  C   UNL     1      -6.345   7.420  68.927  1.00  0.00    -0.039 C  
HETATM    9  C   UNL     1      -7.694   6.502  70.805  1.00  0.00    -0.101 C  
BRANCH   6  10
HETATM   10  O   UNL     1      -8.798   8.675  67.803  1.00  0.00    -0.135 OA 
BRANCH  10  11
HETATM   11  P   UNL     1      -9.369   8.277  66.289  1.00  0.00    -0.152 P  
HETATM   12  O   UNL     1     -10.577   7.520  66.892  1.00  0.00    -0.332 OA 
BRANCH  11  13
HETATM   13  C   UNL     1      -8.479   6.575  65.872  1.00  0.00    -0.147 C  
BRANCH  13  14
HETATM   14  C   UNL     1      -9.458   5.521  65.341  1.00  0.00     0.106 C  
BRANCH  14  15
HETATM   15  C   UNL     1      -9.909   4.513  66.383  1.00  0.00    -0.245 C  
BRANCH  15  16
HETATM   16  C   UNL     1      -8.807   4.353  67.443  1.00  0.00    -0.116 C  
BRANCH  16  17
HETATM   17  C   UNL     1      -7.579   3.735  66.836  1.00  0.00    -0.080 A  
HETATM   18  C   UNL     1      -7.690   2.792  65.806  1.00  0.00    -0.077 A  
HETATM   19  C   UNL     1      -6.309   4.145  67.260  1.00  0.00    -0.040 A  
HETATM   20  C   UNL     1      -5.281   2.683  65.634  1.00  0.00    -0.008 A  
HETATM   21  C   UNL     1      -6.538   2.263  65.212  1.00  0.00    -0.031 A  
HETATM   22  C   UNL     1      -5.167   3.622  66.655  1.00  0.00    -0.012 A  
ENDBRANCH  16  17
ENDBRANCH  15  16
ENDBRANCH  14  15
ENDBRANCH  13  14
ENDBRANCH  11  13
BRANCH  11  23
HETATM   23  C   UNL     1      -7.941   9.172  65.576  1.00  0.00    -0.104 C  
BRANCH  23  24
HETATM   24  C   UNL     1      -7.488  10.397  66.394  1.00  0.00    -0.120 C  
HETATM   25  C   UNL     1      -7.712  12.776  67.151  1.00  0.00    -0.067 C  
HETATM   26  O   UNL     1      -6.407  10.365  66.995  1.00  0.00    -0.068 OA 
HETATM   27  N   UNL     1      -8.253  11.533  66.545  1.00  0.00    -0.157 N  
HETATM   28  C   UNL     1      -7.459  12.816  68.684  1.00  0.00    -0.092 C  
HETATM   29  O   UNL     1      -7.520  13.838  69.359  1.00  0.00     0.059 OA 
HETATM   30  C   UNL     1      -9.691  11.665  66.414  1.00  0.00    -0.214 C  
HETATM   31  C   UNL     1      -9.957  13.159  66.156  1.00  0.00    -0.291 C  
HETATM   32  O   UNL     1      -7.031  11.654  69.220  1.00  0.00    -0.110 OA 
HETATM   33  C   UNL     1      -8.735  13.866  66.780  1.00  0.00    -0.119 C  
BRANCH  31  34
HETATM   34  C   UNL     1     -10.164  13.573  64.666  1.00  0.00    -0.341 C  
HETATM   35  C   UNL     1     -11.237  11.411  63.878  1.00  0.00    -0.364 C  
HETATM   36  C   UNL     1     -12.587  12.088  63.673  1.00  0.00    -0.605 C  
HETATM   37  C   UNL     1     -12.739  13.374  64.485  1.00  0.00    -0.190 C  
HETATM   38  C   UNL     1     -10.100  12.404  63.668  1.00  0.00    -0.302 C  
HETATM   39  C   UNL     1     -11.514  14.295  64.426  1.00  0.00    -0.321 C  
ENDBRANCH  31  34
ENDBRANCH  23  24
ENDBRANCH  11  23
ENDBRANCH  10  11
ENDBRANCH   6  10
ENDBRANCH   5   6
ENDBRANCH   3   5
ENDBRANCH   2   3
TORSDOF 13
ENDMDL
MODEL      250
REMARK 921   NORMALIZED FREE ENERGY PREDICTED BY IDOCK:   -2.76 KCAL/MOL
REMARK 922        TOTAL FREE ENERGY PREDICTED BY IDOCK:   -7.31 KCAL/MOL
REMARK 923 INTER-LIGAND FREE ENERGY PREDICTED BY IDOCK:   -5.78 KCAL/MOL
REMARK 924 INTRA-LIGAND FREE ENERGY PREDICTED BY IDOCK:   -1.53 KCAL/MOL
REMARK 927      BINDING AFFINITY PREDICTED BY RF-SCORE:    0.00 PKD
ROOT
HETATM    1  C   UNL     1      -7.873   4.086  62.479  1.00  0.00    -0.062 C  
HETATM    2  C   UNL     1      -7.539   5.558  62.642  1.00  0.00    -0.067 C  
ENDROOT
BRANCH   2   3
HETATM    3  C   UNL     1      -7.692   6.174  64.031  1.00  0.00    -0.106 C  
HETATM    4  O   UNL     1      -7.276   5.624  65.045  1.00  0.00    -0.062 OA 
BRANCH   3   5
HETATM    5  O   UNL     1      -8.222   7.421  63.994  1.00  0.00    -0.073 OA 
BRANCH   5   6
HETATM    6  C   UNL     1      -7.546   8.484  64.737  1.00  0.00    -0.100 C  
HETATM    7  C   UNL     1      -6.112   8.650  64.112  1.00  0.00    -0.071 C  
HETATM    8  C   UNL     1      -5.257   9.717  64.794  1.00  0.00    -0.055 C  
HETATM    9  C   UNL     1      -6.143   8.926  62.607  1.00  0.00    -0.094 C  
BRANCH   6  10
HETATM   10  O   UNL     1      -7.475   8.301  66.184  1.00  0.00    -0.079 OA 
BRANCH  10  11
HETATM   11  P   UNL     1      -8.606   9.093  67.116  1.00  0.00    -0.120 P  
HETATM   12  O   UNL     1      -9.764   8.601  66.213  1.00  0.00    -0.244 OA 
BRANCH  11  13
HETATM   13  C   UNL     1      -8.715  10.887  66.319  1.00  0.00    -0.171 C  
BRANCH  13  14
HETATM   14  C   UNL     1      -8.988  11.973  67.366  1.00  0.00    -0.176 C  
BRANCH  14  15
HETATM   15  C   UNL     1      -9.612  13.236  66.801  1.00  0.00    -0.258 C  
BRANCH  15  16
HETATM   16  C   UNL     1      -8.550  14.347  66.755  1.00  0.00    -0.139 C  
BRANCH  16  17
HETATM   17  C   UNL     1      -9.196  15.699  66.871  1.00  0.00    -0.257 A  
HETATM   18  C   UNL     1      -8.915  16.532  67.962  1.00  0.00    -0.204 A  
HETATM   19  C   UNL     1     -10.039  16.159  65.853  1.00  0.00    -0.379 A  
HETATM   20  C   UNL     1     -10.310  18.263  67.012  1.00  0.00    -0.408 A  
HETATM   21  C   UNL     1      -9.480  17.811  68.032  1.00  0.00    -0.281 A  
HETATM   22  C   UNL     1     -10.589  17.439  65.925  1.00  0.00    -0.201 A  
ENDBRANCH  16  17
ENDBRANCH  15  16
ENDBRANCH  14  15
ENDBRANCH  13  14
ENDBRANCH  11  13
BRANCH  11  23
HETATM   23  C   UNL     1      -7.238   9.674  68.183  1.00  0.00    -0.080 C  
BRANCH  23  24
HETATM   24  C   UNL     1      -7.444   9.396  69.684  1.00  0.00    -0.084 C  
HETATM   25  C   UNL     1      -7.997   7.899  71.617  1.00  0.00    -0.101 C  
HETATM   26  O   UNL     1      -7.442  10.339  70.486  1.00  0.00    -0.250 OA 
HETATM   27  N   UNL     1      -7.585   8.130  70.209  1.00  0.00    -0.078 N  
HETATM   28  C   UNL     1      -6.981   8.193  72.755  1.00  0.00    -0.096 C  
HETATM   29  O   UNL     1      -6.972   7.604  73.831  1.00  0.00    -0.087 OA 
HETATM   30  C   UNL     1      -7.135   6.874  69.642  1.00  0.00    -0.068 C  
HETATM   31  C   UNL     1      -7.976   5.778  70.321  1.00  0.00    -0.104 C  
HETATM   32  O   UNL     1      -6.171   9.251  72.535  1.00  0.00    -0.289 OA 
HETATM   33  C   UNL     1      -8.392   6.411  71.666  1.00  0.00    -0.125 C  
BRANCH  31  34
HETATM   34  C   UNL     1      -9.211   5.263  69.520  1.00  0.00    -0.157 C  
HETATM   35  C   UNL     1      -7.982   3.552  68.102  1.00  0.00    -0.071 C  
HETATM   36  C   UNL     1      -8.661   2.388  68.815  1.00  0.00    -0.111 C  
HETATM   37  C   UNL     1      -9.192   2.764  70.197  1.00  0.00    -0.205 C  
HETATM   38  C   UNL     1      -8.886   4.780  68.096  1.00  0.00    -0.116 C  
HETATM   39  C   UNL     1      -9.946   4.099  70.232  1.00  0.00    -0.153 C  
ENDBRANCH  31  34
ENDBRANCH  23  24
ENDBRANCH  11  23
ENDBRANCH  10  11
ENDBRANCH   6  10
ENDBRANCH   5   6
ENDBRANCH   3   5
ENDBRANCH   2   3
TORSDOF 13
ENDMDL
MODEL      251
REMARK 921   NORMALIZED FREE ENERGY PREDICTED BY IDOCK:   -2.74 KCAL/MOL
REMARK 922        TOTAL FREE ENERGY PREDICTED BY IDOCK:   -7.29 KCAL/MOL
REMARK 923 INTER-LIGAND FREE ENERGY PREDICTED BY IDOCK:   -6.92 KCAL/MOL
REMARK 924 INTRA-LIGAND FREE ENERGY PREDICTED BY IDOCK:   -0.37 KCAL/MOL
REMARK 927      BINDING AFFINITY PREDICTED BY RF-SCORE:    0.00 PKD
ROOT
HETATM    1  C   UNL     1     -12.330  16.145  73.092  1.00  0.00    -0.641 C  
HETATM    2  C   UNL     1     -12.960  14.764  73.069  1.00  0.00    -0.609 C  
ENDROOT
BRANCH   2   3
HETATM    3  C   UNL     1     -12.988  14.015  71.739  1.00  0.00    -0.353 C  
HETATM    4  O   UNL     1     -14.033  13.760  71.149  1.00  0.00    -0.037 OA 
BRANCH   3   5
HETATM    5  O   UNL     1     -11.748  13.778  71.246  1.00  0.00     0.028 OA 
BRANCH   5   6
HETATM    6  C   UNL     1     -11.569  13.773  69.794  1.00  0.00    -0.257 C  
HETATM    7  C   UNL     1     -11.802  15.244  69.290  1.00  0.00    -0.353 C  
HETATM    8  C   UNL     1     -11.673  15.410  67.777  1.00  0.00    -0.159 C  
HETATM    9  C   UNL     1     -10.896  16.265  69.980  1.00  0.00    -0.329 C  
BRANCH   6  10
HETATM   10  O   UNL     1     -12.396  12.822  69.057  1.00  0.00    -0.086 OA 
BRANCH  10  11
HETATM   11  P   UNL     1     -11.766  11.304  68.784  1.00  0.00    -0.294 P  
HETATM   12  O   UNL     1     -13.095  10.626  69.199  1.00  0.00     0.291 OA 
BRANCH  11  13
HETATM   13  C   UNL     1     -10.949  10.807  70.502  1.00  0.00     0.153 C  
BRANCH  13  14
HETATM   14  C   UNL     1      -9.955   9.649  70.360  1.00  0.00    -0.330 C  
BRANCH  14  15
HETATM   15  C   UNL     1     -10.602   8.276  70.328  1.00  0.00    -0.230 C  
BRANCH  15  16
HETATM   16  C   UNL     1     -10.142   7.471  71.554  1.00  0.00    -0.201 C  
BRANCH  16  17
HETATM   17  C   UNL     1      -9.398   6.237  71.125  1.00  0.00    -0.169 A  
HETATM   18  C   UNL     1      -8.868   5.358  72.078  1.00  0.00    -0.139 A  
HETATM   19  C   UNL     1      -9.283   5.929  69.765  1.00  0.00    -0.160 A  
HETATM   20  C   UNL     1      -8.122   3.882  70.315  1.00  0.00    -0.056 A  
HETATM   21  C   UNL     1      -8.224   4.185  71.669  1.00  0.00    -0.091 A  
HETATM   22  C   UNL     1      -8.651   4.752  69.366  1.00  0.00    -0.099 A  
ENDBRANCH  16  17
ENDBRANCH  15  16
ENDBRANCH  14  15
ENDBRANCH  13  14
ENDBRANCH  11  13
BRANCH  11  23
HETATM   23  C   UNL     1     -10.196  12.105  68.294  1.00  0.00    -0.208 C  
BRANCH  23  24
HETATM   24  C   UNL     1      -9.927  12.096  66.777  1.00  0.00    -0.203 C  
HETATM   25  C   UNL     1      -9.005  11.072  64.684  1.00  0.00    -0.072 C  
HETATM   26  O   UNL     1     -10.180  13.105  66.106  1.00  0.00    -0.278 OA 
HETATM   27  N   UNL     1      -9.460  10.994  66.096  1.00  0.00    -0.196 N  
HETATM   28  C   UNL     1     -10.065  11.240  63.561  1.00  0.00    -0.396 C  
HETATM   29  O   UNL     1      -9.922  10.821  62.417  1.00  0.00    -0.062 OA 
HETATM   30  C   UNL     1      -9.561   9.599  66.477  1.00  0.00    -0.196 C  
HETATM   31  C   UNL     1      -8.462   8.863  65.689  1.00  0.00    -0.171 C  
HETATM   32  O   UNL     1     -11.125  12.009  63.891  1.00  0.00    -0.336 OA 
HETATM   33  C   UNL     1      -8.231   9.759  64.453  1.00  0.00    -0.162 C  
BRANCH  31  34
HETATM   34  C   UNL     1      -7.133   8.586  66.456  1.00  0.00    -0.079 C  
HETATM   35  C   UNL     1      -5.806  10.534  65.515  1.00  0.00    -0.131 C  
HETATM   36  C   UNL     1      -5.784  11.246  66.862  1.00  0.00    -0.107 C  
HETATM   37  C   UNL     1      -6.904  10.789  67.795  1.00  0.00    -0.073 C  
HETATM   38  C   UNL     1      -5.864   9.022  65.706  1.00  0.00    -0.051 C  
HETATM   39  C   UNL     1      -7.090   9.268  67.847  1.00  0.00    -0.078 C  
ENDBRANCH  31  34
ENDBRANCH  23  24
ENDBRANCH  11  23
ENDBRANCH  10  11
ENDBRANCH   6  10
ENDBRANCH   5   6
ENDBRANCH   3   5
ENDBRANCH   2   3
TORSDOF 13
ENDMDL
MODEL      252
REMARK 921   NORMALIZED FREE ENERGY PREDICTED BY IDOCK:   -2.70 KCAL/MOL
REMARK 922        TOTAL FREE ENERGY PREDICTED BY IDOCK:   -7.21 KCAL/MOL
REMARK 923 INTER-LIGAND FREE ENERGY PREDICTED BY IDOCK:   -6.55 KCAL/MOL
REMARK 924 INTRA-LIGAND FREE ENERGY PREDICTED BY IDOCK:   -0.66 KCAL/MOL
REMARK 927      BINDING AFFINITY PREDICTED BY RF-SCORE:    0.00 PKD
ROOT
HETATM    1  C   UNL     1      -8.765   8.623  62.975  1.00  0.00     0.045 C  
HETATM    2  C   UNL     1      -8.143   8.022  64.222  1.00  0.00    -0.117 C  
ENDROOT
BRANCH   2   3
HETATM    3  C   UNL     1      -8.581   8.576  65.575  1.00  0.00    -0.180 C  
HETATM    4  O   UNL     1      -9.731   8.940  65.797  1.00  0.00    -0.240 OA 
BRANCH   3   5
HETATM    5  O   UNL     1      -7.602   8.509  66.511  1.00  0.00    -0.086 OA 
BRANCH   5   6
HETATM    6  C   UNL     1      -7.175   9.749  67.158  1.00  0.00    -0.087 C  
HETATM    7  C   UNL     1      -5.746  10.097  66.603  1.00  0.00    -0.051 C  
HETATM    8  C   UNL     1      -5.139  11.366  67.200  1.00  0.00    -0.070 C  
HETATM    9  C   UNL     1      -5.704  10.198  65.077  1.00  0.00    -0.114 C  
BRANCH   6  10
HETATM   10  O   UNL     1      -7.188   9.738  68.618  1.00  0.00    -0.071 OA 
BRANCH  10  11
HETATM   11  P   UNL     1      -8.396  10.594  69.383  1.00  0.00     0.116 P  
HETATM   12  O   UNL     1      -8.195   9.797  70.695  1.00  0.00    -0.246 OA 
BRANCH  11  13
HETATM   13  C   UNL     1     -10.030   9.577  68.986  1.00  0.00    -0.180 C  
BRANCH  13  14
HETATM   14  C   UNL     1     -10.862   9.298  70.243  1.00  0.00    -0.286 C  
BRANCH  14  15
HETATM   15  C   UNL     1     -11.194   7.832  70.455  1.00  0.00    -0.267 C  
BRANCH  15  16
HETATM   16  C   UNL     1      -9.942   7.098  70.961  1.00  0.00    -0.192 C  
BRANCH  16  17
HETATM   17  C   UNL     1      -9.597   5.953  70.050  1.00  0.00    -0.200 A  
HETATM   18  C   UNL     1      -9.722   4.629  70.490  1.00  0.00    -0.284 A  
HETATM   19  C   UNL     1      -9.206   6.207  68.730  1.00  0.00    -0.124 A  
HETATM   20  C   UNL     1      -9.069   3.832  68.303  1.00  0.00    -0.193 A  
HETATM   21  C   UNL     1      -9.450   3.571  69.615  1.00  0.00    -0.235 A  
HETATM   22  C   UNL     1      -8.948   5.146  67.862  1.00  0.00    -0.115 A  
ENDBRANCH  16  17
ENDBRANCH  15  16
ENDBRANCH  14  15
ENDBRANCH  13  14
ENDBRANCH  11  13
BRANCH  11  23
HETATM   23  C   UNL     1      -8.633  11.536  67.832  1.00  0.00    -0.143 C  
BRANCH  23  24
HETATM   24  C   UNL     1      -8.755  13.059  68.029  1.00  0.00    -0.187 C  
HETATM   25  C   UNL     1     -10.015  15.223  67.930  1.00  0.00    -0.228 C  
HETATM   26  O   UNL     1      -7.750  13.721  68.317  1.00  0.00    -0.119 OA 
HETATM   27  N   UNL     1      -9.950  13.740  67.953  1.00  0.00    -0.234 N  
HETATM   28  C   UNL     1      -9.721  16.009  69.238  1.00  0.00    -0.257 C  
HETATM   29  O   UNL     1     -10.210  17.102  69.503  1.00  0.00    -0.212 OA 
HETATM   30  C   UNL     1     -11.289  13.217  68.142  1.00  0.00    -0.288 C  
HETATM   31  C   UNL     1     -12.235  14.214  67.448  1.00  0.00    -0.278 C  
HETATM   32  O   UNL     1      -8.770  15.464  70.026  1.00  0.00    -0.028 OA 
HETATM   33  C   UNL     1     -11.448  15.542  67.463  1.00  0.00    -0.184 C  
BRANCH  31  34
HETATM   34  C   UNL     1     -12.698  13.834  66.008  1.00  0.00    -0.407 C  
HETATM   35  C   UNL     1     -11.025  15.266  64.745  1.00  0.00    -0.403 C  
HETATM   36  C   UNL     1     -10.280  14.040  64.228  1.00  0.00     0.471 C  
HETATM   37  C   UNL     1     -10.516  12.795  65.081  1.00  0.00    -0.320 C  
HETATM   38  C   UNL     1     -12.499  14.946  64.964  1.00  0.00    -0.052 C  
HETATM   39  C   UNL     1     -11.985  12.572  65.462  1.00  0.00    -0.500 C  
ENDBRANCH  31  34
ENDBRANCH  23  24
ENDBRANCH  11  23
ENDBRANCH  10  11
ENDBRANCH   6  10
ENDBRANCH   5   6
ENDBRANCH   3   5
ENDBRANCH   2   3
TORSDOF 13
ENDMDL
MODEL      253
REMARK 921   NORMALIZED FREE ENERGY PREDICTED BY IDOCK:   -2.69 KCAL/MOL
REMARK 922        TOTAL FREE ENERGY PREDICTED BY IDOCK:   -7.21 KCAL/MOL
REMARK 923 INTER-LIGAND FREE ENERGY PREDICTED BY IDOCK:   -6.30 KCAL/MOL
REMARK 924 INTRA-LIGAND FREE ENERGY PREDICTED BY IDOCK:   -0.91 KCAL/MOL
REMARK 927      BINDING AFFINITY PREDICTED BY RF-SCORE:    0.00 PKD
ROOT
HETATM    1  C   UNL     1     -11.548  16.316  71.930  1.00  0.00    -0.430 C  
HETATM    2  C   UNL     1     -12.048  14.885  71.865  1.00  0.00    -0.435 C  
ENDROOT
BRANCH   2   3
HETATM    3  C   UNL     1     -11.657  14.047  70.650  1.00  0.00    -0.058 C  
HETATM    4  O   UNL     1     -12.420  13.232  70.141  1.00  0.00    -0.243 OA 
BRANCH   3   5
HETATM    5  O   UNL     1     -10.446  14.388  70.147  1.00  0.00     0.199 OA 
BRANCH   5   6
HETATM    6  C   UNL     1     -10.082  13.891  68.820  1.00  0.00    -0.157 C  
HETATM    7  C   UNL     1      -9.654  15.133  67.958  1.00  0.00    -0.204 C  
HETATM    8  C   UNL     1      -9.260  14.788  66.522  1.00  0.00    -0.304 C  
HETATM    9  C   UNL     1      -8.529  15.949  68.598  1.00  0.00    -0.200 C  
BRANCH   6  10
HETATM   10  O   UNL     1     -11.101  13.098  68.138  1.00  0.00    -0.235 OA 
BRANCH  10  11
HETATM   11  P   UNL     1     -10.785  11.480  67.898  1.00  0.00    -0.231 P  
HETATM   12  O   UNL     1     -12.275  11.184  67.602  1.00  0.00    -0.332 OA 
BRANCH  11  13
HETATM   13  C   UNL     1     -10.959  10.686  69.688  1.00  0.00    -0.278 C  
BRANCH  13  14
HETATM   14  C   UNL     1     -10.833   9.159  69.662  1.00  0.00    -0.210 C  
BRANCH  14  15
HETATM   15  C   UNL     1     -11.691   8.448  70.693  1.00  0.00    -0.159 C  
BRANCH  15  16
HETATM   16  C   UNL     1     -10.938   8.403  72.033  1.00  0.00    -0.394 C  
BRANCH  16  17
HETATM   17  C   UNL     1     -10.726   6.981  72.471  1.00  0.00    -0.273 A  
HETATM   18  C   UNL     1     -10.874   5.925  71.562  1.00  0.00    -0.325 A  
HETATM   19  C   UNL     1     -10.318   6.709  73.782  1.00  0.00    -0.373 A  
HETATM   20  C   UNL     1     -10.209   4.349  73.271  1.00  0.00    -0.219 A  
HETATM   21  C   UNL     1     -10.622   4.609  71.969  1.00  0.00    -0.139 A  
HETATM   22  C   UNL     1     -10.057   5.396  74.175  1.00  0.00    -0.254 A  
ENDBRANCH  16  17
ENDBRANCH  15  16
ENDBRANCH  14  15
ENDBRANCH  13  14
ENDBRANCH  11  13
BRANCH  11  23
HETATM   23  C   UNL     1      -9.024  11.830  68.249  1.00  0.00    -0.180 C  
BRANCH  23  24
HETATM   24  C   UNL     1      -8.043  11.232  67.223  1.00  0.00    -0.140 C  
HETATM   25  C   UNL     1      -6.210   9.663  66.546  1.00  0.00    -0.064 C  
HETATM   26  O   UNL     1      -7.931  11.756  66.107  1.00  0.00     0.061 OA 
HETATM   27  N   UNL     1      -7.301  10.095  67.456  1.00  0.00    -0.089 N  
HETATM   28  C   UNL     1      -6.579   9.065  65.160  1.00  0.00    -0.072 C  
HETATM   29  O   UNL     1      -5.891   8.241  64.567  1.00  0.00    -0.054 OA 
HETATM   30  C   UNL     1      -7.579   9.024  68.393  1.00  0.00    -0.090 C  
HETATM   31  C   UNL     1      -6.235   8.312  68.633  1.00  0.00    -0.045 C  
HETATM   32  O   UNL     1      -7.663   9.616  64.574  1.00  0.00    -0.119 OA 
HETATM   33  C   UNL     1      -5.424   8.612  67.355  1.00  0.00    -0.038 C  
BRANCH  31  34
HETATM   34  C   UNL     1      -5.457   8.728  69.920  1.00  0.00    -0.029 C  
HETATM   35  C   UNL     1      -7.480   9.231  71.370  1.00  0.00     0.078 C  
HETATM   36  C   UNL     1      -7.209   8.028  72.266  1.00  0.00    -0.105 C  
HETATM   37  C   UNL     1      -6.350   6.962  71.590  1.00  0.00    -0.042 C  
HETATM   38  C   UNL     1      -6.179   9.773  70.788  1.00  0.00    -0.096 C  
HETATM   39  C   UNL     1      -5.135   7.524  70.841  1.00  0.00    -0.023 C  
ENDBRANCH  31  34
ENDBRANCH  23  24
ENDBRANCH  11  23
ENDBRANCH  10  11
ENDBRANCH   6  10
ENDBRANCH   5   6
ENDBRANCH   3   5
ENDBRANCH   2   3
TORSDOF 13
ENDMDL
MODEL      254
REMARK 921   NORMALIZED FREE ENERGY PREDICTED BY IDOCK:   -2.69 KCAL/MOL
REMARK 922        TOTAL FREE ENERGY PREDICTED BY IDOCK:   -7.21 KCAL/MOL
REMARK 923 INTER-LIGAND FREE ENERGY PREDICTED BY IDOCK:   -6.85 KCAL/MOL
REMARK 924 INTRA-LIGAND FREE ENERGY PREDICTED BY IDOCK:   -0.36 KCAL/MOL
REMARK 927      BINDING AFFINITY PREDICTED BY RF-SCORE:    0.00 PKD
ROOT
HETATM    1  C   UNL     1      -7.356   9.193  68.823  1.00  0.00    -0.075 C  
HETATM    2  C   UNL     1      -7.062   9.858  67.491  1.00  0.00    -0.088 C  
ENDROOT
BRANCH   2   3
HETATM    3  C   UNL     1      -6.434   9.006  66.391  1.00  0.00    -0.066 C  
HETATM    4  O   UNL     1      -5.250   9.097  66.083  1.00  0.00    -0.035 OA 
BRANCH   3   5
HETATM    5  O   UNL     1      -7.290   8.081  65.893  1.00  0.00    -0.073 OA 
BRANCH   5   6
HETATM    6  C   UNL     1      -6.748   7.026  65.036  1.00  0.00    -0.047 C  
HETATM    7  C   UNL     1      -7.487   7.123  63.652  1.00  0.00    -0.100 C  
HETATM    8  C   UNL     1      -7.051   6.067  62.638  1.00  0.00    -0.049 C  
HETATM    9  C   UNL     1      -7.373   8.506  63.008  1.00  0.00    -0.099 C  
BRANCH   6  10
HETATM   10  O   UNL     1      -6.816   5.672  65.579  1.00  0.00    -0.053 OA 
BRANCH  10  11
HETATM   11  P   UNL     1      -8.310   5.106  66.052  1.00  0.00    -0.122 P  
HETATM   12  O   UNL     1      -8.603   4.555  64.635  1.00  0.00    -0.126 OA 
BRANCH  11  13
HETATM   13  C   UNL     1      -9.520   6.623  65.738  1.00  0.00     0.268 C  
BRANCH  13  14
HETATM   14  C   UNL     1      -9.899   7.344  67.037  1.00  0.00    -0.273 C  
BRANCH  14  15
HETATM   15  C   UNL     1     -10.879   8.487  66.848  1.00  0.00     0.030 C  
BRANCH  15  16
HETATM   16  C   UNL     1     -10.160   9.664  66.168  1.00  0.00    -0.328 C  
BRANCH  16  17
HETATM   17  C   UNL     1     -10.779  10.970  66.581  1.00  0.00    -0.305 A  
HETATM   18  C   UNL     1     -10.851  11.329  67.933  1.00  0.00    -0.278 A  
HETATM   19  C   UNL     1     -11.234  11.864  65.605  1.00  0.00    -0.360 A  
HETATM   20  C   UNL     1     -11.823  13.457  67.325  1.00  0.00    -0.422 A  
HETATM   21  C   UNL     1     -11.381  12.571  68.301  1.00  0.00    -0.331 A  
HETATM   22  C   UNL     1     -11.749  13.105  65.980  1.00  0.00    -0.424 A  
ENDBRANCH  16  17
ENDBRANCH  15  16
ENDBRANCH  14  15
ENDBRANCH  13  14
ENDBRANCH  11  13
BRANCH  11  23
HETATM   23  C   UNL     1      -7.964   5.757  67.727  1.00  0.00    -0.098 C  
BRANCH  23  24
HETATM   24  C   UNL     1      -8.141   4.725  68.856  1.00  0.00    -0.082 C  
HETATM   25  C   UNL     1      -9.056   3.978  71.067  1.00  0.00    -0.116 C  
HETATM   26  O   UNL     1      -7.475   3.682  68.842  1.00  0.00    -0.053 OA 
HETATM   27  N   UNL     1      -9.053   4.870  69.879  1.00  0.00    -0.111 N  
HETATM   28  C   UNL     1      -9.559   2.517  70.908  1.00  0.00    -0.122 C  
HETATM   29  O   UNL     1     -10.084   1.873  71.810  1.00  0.00    -0.154 OA 
HETATM   30  C   UNL     1     -10.264   5.666  69.890  1.00  0.00    -0.250 C  
HETATM   31  C   UNL     1     -10.606   5.898  71.373  1.00  0.00    -0.309 C  
HETATM   32  O   UNL     1      -9.256   1.937  69.726  1.00  0.00    -0.090 OA 
HETATM   33  C   UNL     1      -9.943   4.706  72.096  1.00  0.00    -0.241 C  
BRANCH  31  34
HETATM   34  C   UNL     1     -10.155   7.263  71.978  1.00  0.00    -0.207 C  
HETATM   35  C   UNL     1     -11.225   8.759  70.228  1.00  0.00    -0.212 C  
HETATM   36  C   UNL     1     -12.249   9.290  71.225  1.00  0.00    -0.410 C  
HETATM   37  C   UNL     1     -12.459   8.358  72.417  1.00  0.00    -0.390 C  
HETATM   38  C   UNL     1      -9.932   8.374  70.938  1.00  0.00    -0.230 C  
HETATM   39  C   UNL     1     -11.157   7.818  73.022  1.00  0.00    -0.419 C  
ENDBRANCH  31  34
ENDBRANCH  23  24
ENDBRANCH  11  23
ENDBRANCH  10  11
ENDBRANCH   6  10
ENDBRANCH   5   6
ENDBRANCH   3   5
ENDBRANCH   2   3
TORSDOF 13
ENDMDL
MODEL      255
REMARK 921   NORMALIZED FREE ENERGY PREDICTED BY IDOCK:   -2.68 KCAL/MOL
REMARK 922        TOTAL FREE ENERGY PREDICTED BY IDOCK:   -7.17 KCAL/MOL
REMARK 923 INTER-LIGAND FREE ENERGY PREDICTED BY IDOCK:   -6.97 KCAL/MOL
REMARK 924 INTRA-LIGAND FREE ENERGY PREDICTED BY IDOCK:   -0.21 KCAL/MOL
REMARK 927      BINDING AFFINITY PREDICTED BY RF-SCORE:    0.00 PKD
ROOT
HETATM    1  C   UNL     1      -6.755   5.556  69.343  1.00  0.00    -0.059 C  
HETATM    2  C   UNL     1      -7.796   6.564  69.795  1.00  0.00    -0.115 C  
ENDROOT
BRANCH   2   3
HETATM    3  C   UNL     1      -9.235   6.361  69.329  1.00  0.00    -0.135 C  
HETATM    4  O   UNL     1      -9.527   5.610  68.404  1.00  0.00    -0.116 OA 
BRANCH   3   5
HETATM    5  O   UNL     1     -10.135   7.002  70.114  1.00  0.00    -0.185 OA 
BRANCH   5   6
HETATM    6  C   UNL     1     -10.055   8.459  70.213  1.00  0.00    -0.189 C  
HETATM    7  C   UNL     1     -11.525   8.999  70.349  1.00  0.00    -0.202 C  
HETATM    8  C   UNL     1     -11.622  10.521  70.442  1.00  0.00    -0.430 C  
HETATM    9  C   UNL     1     -12.284   8.381  71.525  1.00  0.00    -0.340 C  
BRANCH   6  10
HETATM   10  O   UNL     1      -9.342   9.130  69.130  1.00  0.00    -0.149 OA 
BRANCH  10  11
HETATM   11  P   UNL     1     -10.254   9.932  67.989  1.00  0.00    -0.208 P  
HETATM   12  O   UNL     1     -10.984   8.628  67.586  1.00  0.00    -0.096 OA 
BRANCH  11  13
HETATM   13  C   UNL     1      -9.161   9.853  66.357  1.00  0.00    -0.158 C  
BRANCH  13  14
HETATM   14  C   UNL     1      -8.128   8.723  66.403  1.00  0.00    -0.103 C  
BRANCH  14  15
HETATM   15  C   UNL     1      -8.275   7.702  65.289  1.00  0.00    -0.136 C  
BRANCH  15  16
HETATM   16  C   UNL     1      -7.216   6.602  65.467  1.00  0.00    -0.070 C  
BRANCH  16  17
HETATM   17  C   UNL     1      -7.782   5.260  65.099  1.00  0.00    -0.085 A  
HETATM   18  C   UNL     1      -7.630   4.163  65.958  1.00  0.00    -0.089 A  
HETATM   19  C   UNL     1      -8.520   5.113  63.919  1.00  0.00    -0.119 A  
HETATM   20  C   UNL     1      -8.946   2.796  64.460  1.00  0.00    -0.120 A  
HETATM   21  C   UNL     1      -8.208   2.931  65.631  1.00  0.00    -0.089 A  
HETATM   22  C   UNL     1      -9.102   3.885  63.607  1.00  0.00    -0.122 A  
ENDBRANCH  16  17
ENDBRANCH  15  16
ENDBRANCH  14  15
ENDBRANCH  13  14
ENDBRANCH  11  13
BRANCH  11  23
HETATM   23  C   UNL     1      -9.391  11.474  68.465  1.00  0.00    -0.170 C  
BRANCH  23  24
HETATM   24  C   UNL     1      -9.935  12.742  67.780  1.00  0.00    -0.219 C  
HETATM   25  C   UNL     1     -11.254  14.873  67.763  1.00  0.00    -0.321 C  
HETATM   26  O   UNL     1      -9.786  12.889  66.560  1.00  0.00    -0.242 OA 
HETATM   27  N   UNL     1     -10.548  13.770  68.463  1.00  0.00    -0.249 N  
HETATM   28  C   UNL     1     -10.416  15.949  67.018  1.00  0.00    -0.306 C  
HETATM   29  O   UNL     1     -10.778  17.110  66.861  1.00  0.00    -0.248 OA 
HETATM   30  C   UNL     1     -10.412  14.117  69.864  1.00  0.00     0.435 C  
HETATM   31  C   UNL     1     -11.655  14.955  70.215  1.00  0.00    -0.332 C  
HETATM   32  O   UNL     1      -9.295  15.485  66.425  1.00  0.00    -0.249 OA 
HETATM   33  C   UNL     1     -12.089  15.558  68.862  1.00  0.00    -0.219 C  
BRANCH  31  34
HETATM   34  C   UNL     1     -12.825  14.191  70.908  1.00  0.00    -0.404 C  
HETATM   35  C   UNL     1     -11.987  14.411  73.293  1.00  0.00     0.154 C  
HETATM   36  C   UNL     1     -13.122  15.358  73.667  1.00  0.00    -0.509 C  
HETATM   37  C   UNL     1     -13.741  16.053  72.455  1.00  0.00    -0.298 C  
HETATM   38  C   UNL     1     -12.426  13.450  72.195  1.00  0.00     0.073 C  
HETATM   39  C   UNL     1     -14.014  15.116  71.272  1.00  0.00    -0.548 C  
ENDBRANCH  31  34
ENDBRANCH  23  24
ENDBRANCH  11  23
ENDBRANCH  10  11
ENDBRANCH   6  10
ENDBRANCH   5   6
ENDBRANCH   3   5
ENDBRANCH   2   3
TORSDOF 13
ENDMDL
MODEL      256
REMARK 921   NORMALIZED FREE ENERGY PREDICTED BY IDOCK:   -2.65 KCAL/MOL
REMARK 922        TOTAL FREE ENERGY PREDICTED BY IDOCK:   -7.14 KCAL/MOL
REMARK 923 INTER-LIGAND FREE ENERGY PREDICTED BY IDOCK:   -5.34 KCAL/MOL
REMARK 924 INTRA-LIGAND FREE ENERGY PREDICTED BY IDOCK:   -1.80 KCAL/MOL
REMARK 927      BINDING AFFINITY PREDICTED BY RF-SCORE:    0.00 PKD
ROOT
HETATM    1  C   UNL     1      -5.807   8.289  72.427  1.00  0.00    -0.052 C  
HETATM    2  C   UNL     1      -6.484   7.819  71.153  1.00  0.00    -0.038 C  
ENDROOT
BRANCH   2   3
HETATM    3  C   UNL     1      -7.542   8.726  70.531  1.00  0.00    -0.085 C  
HETATM    4  O   UNL     1      -7.680   9.899  70.862  1.00  0.00    -0.269 OA 
BRANCH   3   5
HETATM    5  O   UNL     1      -8.212   8.129  69.515  1.00  0.00    -0.117 OA 
BRANCH   5   6
HETATM    6  C   UNL     1      -7.795   8.421  68.143  1.00  0.00    -0.111 C  
HETATM    7  C   UNL     1      -7.025   7.158  67.611  1.00  0.00    -0.079 C  
HETATM    8  C   UNL     1      -6.497   7.308  66.185  1.00  0.00    -0.045 C  
HETATM    9  C   UNL     1      -7.848   5.872  67.703  1.00  0.00    -0.098 C  
BRANCH   6  10
HETATM   10  O   UNL     1      -7.006   9.637  67.966  1.00  0.00    -0.076 OA 
BRANCH  10  11
HETATM   11  P   UNL     1      -7.443  10.664  66.729  1.00  0.00    -0.132 P  
HETATM   12  O   UNL     1      -6.002  10.675  66.165  1.00  0.00    -0.094 OA 
BRANCH  11  13
HETATM   13  C   UNL     1      -7.186  12.461  67.484  1.00  0.00    -0.145 C  
BRANCH  13  14
HETATM   14  C   UNL     1      -5.866  12.587  68.252  1.00  0.00    -0.062 C  
BRANCH  14  15
HETATM   15  C   UNL     1      -5.305  13.997  68.297  1.00  0.00    -0.112 C  
BRANCH  15  16
HETATM   16  C   UNL     1      -6.402  14.991  67.882  1.00  0.00    -0.179 C  
BRANCH  16  17
HETATM   17  C   UNL     1      -6.271  16.274  68.653  1.00  0.00    -0.122 A  
HETATM   18  C   UNL     1      -5.468  16.337  69.800  1.00  0.00    -0.148 A  
HETATM   19  C   UNL     1      -6.905  17.433  68.191  1.00  0.00    -0.184 A  
HETATM   20  C   UNL     1      -5.939  18.699  70.009  1.00  0.00    -0.213 A  
HETATM   21  C   UNL     1      -5.311  17.551  70.479  1.00  0.00    -0.263 A  
HETATM   22  C   UNL     1      -6.733  18.640  68.868  1.00  0.00    -0.292 A  
ENDBRANCH  16  17
ENDBRANCH  15  16
ENDBRANCH  14  15
ENDBRANCH  13  14
ENDBRANCH  11  13
BRANCH  11  23
HETATM   23  C   UNL     1      -9.147  10.653  67.397  1.00  0.00    -0.139 C  
BRANCH  23  24
HETATM   24  C   UNL     1     -10.130  11.562  66.638  1.00  0.00    -0.210 C  
HETATM   25  C   UNL     1     -11.813  13.417  66.523  1.00  0.00    -0.396 C  
HETATM   26  O   UNL     1     -10.396  11.323  65.453  1.00  0.00    -0.253 OA 
HETATM   27  N   UNL     1     -10.709  12.683  67.193  1.00  0.00    -0.239 N  
HETATM   28  C   UNL     1     -11.491  14.278  65.270  1.00  0.00    -0.344 C  
HETATM   29  O   UNL     1     -12.122  15.279  64.948  1.00  0.00    -0.186 OA 
HETATM   30  C   UNL     1     -10.230  13.478  68.306  1.00  0.00    -0.250 C  
HETATM   31  C   UNL     1     -11.454  14.243  68.839  1.00  0.00    -0.318 C  
HETATM   32  O   UNL     1     -10.533  13.772  64.463  1.00  0.00    -0.434 OA 
HETATM   33  C   UNL     1     -12.398  14.326  67.621  1.00  0.00    -0.061 C  
BRANCH  31  34
HETATM   34  C   UNL     1     -12.167  13.622  70.080  1.00  0.00    -0.413 C  
HETATM   35  C   UNL     1     -11.416  15.351  71.781  1.00  0.00    -0.497 C  
HETATM   36  C   UNL     1     -12.831  15.896  71.938  1.00  0.00    -0.455 C  
HETATM   37  C   UNL     1     -13.728  15.578  70.743  1.00  0.00    -0.050 C  
HETATM   38  C   UNL     1     -11.447  13.871  71.416  1.00  0.00     0.977 C  
HETATM   39  C   UNL     1     -13.621  14.128  70.253  1.00  0.00     0.840 C  
ENDBRANCH  31  34
ENDBRANCH  23  24
ENDBRANCH  11  23
ENDBRANCH  10  11
ENDBRANCH   6  10
ENDBRANCH   5   6
ENDBRANCH   3   5
ENDBRANCH   2   3
TORSDOF 13
ENDMDL
MODEL      257
REMARK 921   NORMALIZED FREE ENERGY PREDICTED BY IDOCK:   -2.65 KCAL/MOL
REMARK 922        TOTAL FREE ENERGY PREDICTED BY IDOCK:   -7.12 KCAL/MOL
REMARK 923 INTER-LIGAND FREE ENERGY PREDICTED BY IDOCK:   -6.80 KCAL/MOL
REMARK 924 INTRA-LIGAND FREE ENERGY PREDICTED BY IDOCK:   -0.32 KCAL/MOL
REMARK 927      BINDING AFFINITY PREDICTED BY RF-SCORE:    0.00 PKD
ROOT
HETATM    1  C   UNL     1      -9.474  10.495  62.914  1.00  0.00    -0.360 C  
HETATM    2  C   UNL     1      -8.351  10.143  63.873  1.00  0.00    -0.172 C  
ENDROOT
BRANCH   2   3
HETATM    3  C   UNL     1      -8.668  10.123  65.366  1.00  0.00    -0.161 C  
HETATM    4  O   UNL     1      -8.796   9.080  65.998  1.00  0.00    -0.153 OA 
BRANCH   3   5
HETATM    5  O   UNL     1      -8.673  11.362  65.917  1.00  0.00    -0.179 OA 
BRANCH   5   6
HETATM    6  C   UNL     1      -8.866  11.477  67.362  1.00  0.00    -0.157 C  
HETATM    7  C   UNL     1     -10.301  12.075  67.595  1.00  0.00    -0.213 C  
HETATM    8  C   UNL     1     -10.657  12.282  69.067  1.00  0.00    -0.104 C  
HETATM    9  C   UNL     1     -11.408  11.255  66.928  1.00  0.00    -0.231 C  
BRANCH   6  10
HETATM   10  O   UNL     1      -7.850  12.244  68.078  1.00  0.00    -0.126 OA 
BRANCH  10  11
HETATM   11  P   UNL     1      -6.272  11.723  67.965  1.00  0.00    -0.063 P  
HETATM   12  O   UNL     1      -6.712  10.239  67.948  1.00  0.00    -0.065 OA 
BRANCH  11  13
HETATM   13  C   UNL     1      -5.686  11.553  69.834  1.00  0.00    -0.104 C  
BRANCH  13  14
HETATM   14  C   UNL     1      -6.605  10.637  70.651  1.00  0.00     0.133 C  
BRANCH  14  15
HETATM   15  C   UNL     1      -5.973   9.313  71.040  1.00  0.00    -0.064 C  
BRANCH  15  16
HETATM   16  C   UNL     1      -6.804   8.162  70.449  1.00  0.00    -0.037 C  
BRANCH  16  17
HETATM   17  C   UNL     1      -8.273   8.447  70.589  1.00  0.00    -0.117 A  
HETATM   18  C   UNL     1      -9.072   8.640  69.455  1.00  0.00    -0.149 A  
HETATM   19  C   UNL     1      -8.863   8.459  71.858  1.00  0.00    -0.267 A  
HETATM   20  C   UNL     1     -11.028   8.853  70.859  1.00  0.00    -0.325 A  
HETATM   21  C   UNL     1     -10.449   8.850  69.595  1.00  0.00    -0.218 A  
HETATM   22  C   UNL     1     -10.237   8.658  71.987  1.00  0.00    -0.407 A  
ENDBRANCH  16  17
ENDBRANCH  15  16
ENDBRANCH  14  15
ENDBRANCH  13  14
ENDBRANCH  11  13
BRANCH  11  23
HETATM   23  C   UNL     1      -5.751  13.477  67.985  1.00  0.00    -0.124 C  
BRANCH  23  24
HETATM   24  C   UNL     1      -6.762  14.430  68.649  1.00  0.00    -0.090 C  
HETATM   25  C   UNL     1      -7.992  16.608  68.817  1.00  0.00    -0.239 C  
HETATM   26  O   UNL     1      -7.265  14.126  69.739  1.00  0.00     0.014 OA 
HETATM   27  N   UNL     1      -7.190  15.605  68.071  1.00  0.00    -0.121 N  
HETATM   28  C   UNL     1      -9.480  16.294  69.137  1.00  0.00    -0.246 C  
HETATM   29  O   UNL     1     -10.348  17.151  69.259  1.00  0.00    -0.313 OA 
HETATM   30  C   UNL     1      -7.193  15.958  66.665  1.00  0.00     0.107 C  
HETATM   31  C   UNL     1      -7.258  17.495  66.614  1.00  0.00    -0.269 C  
HETATM   32  O   UNL     1      -9.741  14.997  69.409  1.00  0.00    -0.209 OA 
HETATM   33  C   UNL     1      -7.921  17.882  67.954  1.00  0.00    -0.235 C  
BRANCH  31  34
HETATM   34  C   UNL     1      -5.899  18.234  66.409  1.00  0.00    -0.197 C  
HETATM   35  C   UNL     1      -6.825  20.289  65.240  1.00  0.00    -0.318 C  
HETATM   36  C   UNL     1      -6.496  21.185  66.428  1.00  0.00    -0.280 C  
HETATM   37  C   UNL     1      -6.352  20.410  67.737  1.00  0.00    -0.292 C  
HETATM   38  C   UNL     1      -5.844  19.124  65.156  1.00  0.00    -0.274 C  
HETATM   39  C   UNL     1      -5.515  19.130  67.614  1.00  0.00    -0.175 C  
ENDBRANCH  31  34
ENDBRANCH  23  24
ENDBRANCH  11  23
ENDBRANCH  10  11
ENDBRANCH   6  10
ENDBRANCH   5   6
ENDBRANCH   3   5
ENDBRANCH   2   3
TORSDOF 13
ENDMDL
MODEL      258
REMARK 921   NORMALIZED FREE ENERGY PREDICTED BY IDOCK:   -2.63 KCAL/MOL
REMARK 922        TOTAL FREE ENERGY PREDICTED BY IDOCK:   -7.09 KCAL/MOL
REMARK 923 INTER-LIGAND FREE ENERGY PREDICTED BY IDOCK:   -6.47 KCAL/MOL
REMARK 924 INTRA-LIGAND FREE ENERGY PREDICTED BY IDOCK:   -0.62 KCAL/MOL
REMARK 927      BINDING AFFINITY PREDICTED BY RF-SCORE:    0.00 PKD
ROOT
HETATM    1  C   UNL     1      -8.355   3.817  62.878  1.00  0.00    -0.081 C  
HETATM    2  C   UNL     1      -8.203   5.309  63.112  1.00  0.00    -0.110 C  
ENDROOT
BRANCH   2   3
HETATM    3  C   UNL     1      -8.539   5.851  64.499  1.00  0.00     0.065 C  
HETATM    4  O   UNL     1      -9.140   5.187  65.337  1.00  0.00    -0.159 OA 
BRANCH   3   5
HETATM    5  O   UNL     1      -8.006   7.077  64.725  1.00  0.00    -0.121 OA 
BRANCH   5   6
HETATM    6  C   UNL     1      -7.429   7.349  66.042  1.00  0.00    -0.083 C  
HETATM    7  C   UNL     1      -6.139   6.462  66.178  1.00  0.00    -0.033 C  
HETATM    8  C   UNL     1      -5.420   6.611  67.519  1.00  0.00    -0.008 C  
HETATM    9  C   UNL     1      -5.132   6.689  65.048  1.00  0.00    -0.022 C  
BRANCH   6  10
HETATM   10  O   UNL     1      -8.326   7.159  67.178  1.00  0.00    -0.116 OA 
BRANCH  10  11
HETATM   11  P   UNL     1      -9.263   8.455  67.644  1.00  0.00    -0.135 P  
HETATM   12  O   UNL     1     -10.474   7.932  66.833  1.00  0.00    -0.325 OA 
BRANCH  11  13
HETATM   13  C   UNL     1      -8.908   9.822  66.277  1.00  0.00    -0.147 C  
BRANCH  13  14
HETATM   14  C   UNL     1     -10.152  10.151  65.445  1.00  0.00    -0.342 C  
BRANCH  14  15
HETATM   15  C   UNL     1     -10.620  11.590  65.571  1.00  0.00    -0.334 C  
BRANCH  15  16
HETATM   16  C   UNL     1      -9.755  12.313  66.616  1.00  0.00    -0.229 C  
BRANCH  16  17
HETATM   17  C   UNL     1     -10.621  13.022  67.618  1.00  0.00    -0.232 A  
HETATM   18  C   UNL     1     -11.156  14.285  67.332  1.00  0.00    -0.314 A  
HETATM   19  C   UNL     1     -10.949  12.393  68.825  1.00  0.00    -0.287 A  
HETATM   20  C   UNL     1     -12.332  14.277  69.444  1.00  0.00    -0.238 A  
HETATM   21  C   UNL     1     -12.005  14.912  68.251  1.00  0.00    -0.245 A  
HETATM   22  C   UNL     1     -11.805  13.020  69.730  1.00  0.00    -0.381 A  
ENDBRANCH  16  17
ENDBRANCH  15  16
ENDBRANCH  14  15
ENDBRANCH  13  14
ENDBRANCH  11  13
BRANCH  11  23
HETATM   23  C   UNL     1      -7.833   9.074  68.603  1.00  0.00    -0.101 C  
BRANCH  23  24
HETATM   24  C   UNL     1      -8.078   9.163  70.120  1.00  0.00    -0.140 C  
HETATM   25  C   UNL     1      -9.430   8.732  72.187  1.00  0.00    -0.239 C  
HETATM   26  O   UNL     1      -7.327   9.852  70.823  1.00  0.00    -0.312 OA 
HETATM   27  N   UNL     1      -9.075   8.467  70.769  1.00  0.00    -0.154 N  
HETATM   28  C   UNL     1      -8.459   8.264  73.305  1.00  0.00    -0.199 C  
HETATM   29  O   UNL     1      -8.818   7.952  74.436  1.00  0.00    -0.174 OA 
HETATM   30  C   UNL     1      -9.740   7.252  70.341  1.00  0.00    -0.172 C  
HETATM   31  C   UNL     1     -11.070   7.202  71.115  1.00  0.00    -0.281 C  
HETATM   32  O   UNL     1      -7.148   8.348  72.992  1.00  0.00    -0.165 OA 
HETATM   33  C   UNL     1     -10.793   8.040  72.381  1.00  0.00    -0.392 C  
BRANCH  31  34
HETATM   34  C   UNL     1     -12.330   7.713  70.350  1.00  0.00     0.292 C  
HETATM   35  C   UNL     1     -14.029   7.235  72.176  1.00  0.00    -0.149 C  
HETATM   36  C   UNL     1     -14.265   8.721  72.425  1.00  0.00    -0.464 C  
HETATM   37  C   UNL     1     -13.108   9.596  71.947  1.00  0.00    -0.530 C  
HETATM   38  C   UNL     1     -13.635   6.989  70.723  1.00  0.00     0.393 C  
HETATM   39  C   UNL     1     -12.583   9.228  70.554  1.00  0.00     0.195 C  
ENDBRANCH  31  34
ENDBRANCH  23  24
ENDBRANCH  11  23
ENDBRANCH  10  11
ENDBRANCH   6  10
ENDBRANCH   5   6
ENDBRANCH   3   5
ENDBRANCH   2   3
TORSDOF 13
ENDMDL
MODEL      259
REMARK 921   NORMALIZED FREE ENERGY PREDICTED BY IDOCK:   -2.62 KCAL/MOL
REMARK 922        TOTAL FREE ENERGY PREDICTED BY IDOCK:   -7.08 KCAL/MOL
REMARK 923 INTER-LIGAND FREE ENERGY PREDICTED BY IDOCK:   -7.35 KCAL/MOL
REMARK 924 INTRA-LIGAND FREE ENERGY PREDICTED BY IDOCK:    0.27 KCAL/MOL
REMARK 927      BINDING AFFINITY PREDICTED BY RF-SCORE:    0.00 PKD
ROOT
HETATM    1  C   UNL     1      -9.520   7.437  73.807  1.00  0.00    -0.328 C  
HETATM    2  C   UNL     1      -8.656   7.878  72.640  1.00  0.00    -0.208 C  
ENDROOT
BRANCH   2   3
HETATM    3  C   UNL     1      -9.348   8.540  71.451  1.00  0.00    -0.211 C  
HETATM    4  O   UNL     1     -10.236   9.376  71.588  1.00  0.00    -0.283 OA 
BRANCH   3   5
HETATM    5  O   UNL     1      -8.797   8.191  70.263  1.00  0.00    -0.138 OA 
BRANCH   5   6
HETATM    6  C   UNL     1      -8.456   9.253  69.318  1.00  0.00    -0.137 C  
HETATM    7  C   UNL     1      -7.363  10.153  70.002  1.00  0.00    -0.172 C  
HETATM    8  C   UNL     1      -6.908  11.336  69.148  1.00  0.00    -0.109 C  
HETATM    9  C   UNL     1      -6.133   9.364  70.453  1.00  0.00    -0.054 C  
BRANCH   6  10
HETATM   10  O   UNL     1      -9.576  10.055  68.834  1.00  0.00    -0.165 OA 
BRANCH  10  11
HETATM   11  P   UNL     1     -10.739   9.284  67.924  1.00  0.00    -0.036 P  
HETATM   12  O   UNL     1     -10.077   7.905  68.161  1.00  0.00    -0.178 OA 
BRANCH  11  13
HETATM   13  C   UNL     1     -10.029   9.336  66.091  1.00  0.00    -0.277 C  
BRANCH  13  14
HETATM   14  C   UNL     1      -9.508  10.726  65.709  1.00  0.00    -0.244 C  
BRANCH  14  15
HETATM   15  C   UNL     1      -8.152  10.714  65.027  1.00  0.00    -0.038 C  
BRANCH  15  16
HETATM   16  C   UNL     1      -7.080  10.278  66.039  1.00  0.00    -0.128 C  
BRANCH  16  17
HETATM   17  C   UNL     1      -6.606   8.884  65.738  1.00  0.00    -0.064 A  
HETATM   18  C   UNL     1      -6.115   8.062  66.760  1.00  0.00    -0.053 A  
HETATM   19  C   UNL     1      -6.710   8.379  64.436  1.00  0.00    -0.066 A  
HETATM   20  C   UNL     1      -5.840   6.250  65.183  1.00  0.00    -0.025 A  
HETATM   21  C   UNL     1      -5.726   6.747  66.476  1.00  0.00    -0.018 A  
HETATM   22  C   UNL     1      -6.331   7.064  64.166  1.00  0.00    -0.039 A  
ENDBRANCH  16  17
ENDBRANCH  15  16
ENDBRANCH  14  15
ENDBRANCH  13  14
ENDBRANCH  11  13
BRANCH  11  23
HETATM   23  C   UNL     1     -11.521  10.914  67.643  1.00  0.00    -0.200 C  
BRANCH  23  24
HETATM   24  C   UNL     1     -11.563  11.819  68.889  1.00  0.00    -0.309 C  
HETATM   25  C   UNL     1     -11.445  14.049  70.026  1.00  0.00    -0.168 C  
HETATM   26  O   UNL     1     -11.589  11.308  70.016  1.00  0.00    -0.297 OA 
HETATM   27  N   UNL     1     -11.625  13.194  68.826  1.00  0.00    -0.286 N  
HETATM   28  C   UNL     1     -12.582  14.107  71.084  1.00  0.00    -0.367 C  
HETATM   29  O   UNL     1     -12.804  15.082  71.795  1.00  0.00    -0.303 OA 
HETATM   30  C   UNL     1     -12.109  14.016  67.735  1.00  0.00    -0.290 C  
HETATM   31  C   UNL     1     -11.487  15.409  67.945  1.00  0.00    -0.306 C  
HETATM   32  O   UNL     1     -13.244  12.945  71.272  1.00  0.00    -0.226 OA 
HETATM   33  C   UNL     1     -11.209  15.464  69.463  1.00  0.00    -0.289 C  
BRANCH  31  34
HETATM   34  C   UNL     1     -10.205  15.722  67.113  1.00  0.00    -0.279 C  
HETATM   35  C   UNL     1      -8.990  17.067  68.890  1.00  0.00    -0.210 C  
HETATM   36  C   UNL     1      -7.933  15.983  69.070  1.00  0.00    -0.224 C  
HETATM   37  C   UNL     1      -8.404  14.608  68.601  1.00  0.00    -0.165 C  
HETATM   38  C   UNL     1      -9.532  17.059  67.466  1.00  0.00    -0.246 C  
HETATM   39  C   UNL     1      -9.120  14.624  67.245  1.00  0.00    -0.215 C  
ENDBRANCH  31  34
ENDBRANCH  23  24
ENDBRANCH  11  23
ENDBRANCH  10  11
ENDBRANCH   6  10
ENDBRANCH   5   6
ENDBRANCH   3   5
ENDBRANCH   2   3
TORSDOF 13
ENDMDL
MODEL      260
REMARK 921   NORMALIZED FREE ENERGY PREDICTED BY IDOCK:   -2.59 KCAL/MOL
REMARK 922        TOTAL FREE ENERGY PREDICTED BY IDOCK:   -7.03 KCAL/MOL
REMARK 923 INTER-LIGAND FREE ENERGY PREDICTED BY IDOCK:   -6.01 KCAL/MOL
REMARK 924 INTRA-LIGAND FREE ENERGY PREDICTED BY IDOCK:   -1.02 KCAL/MOL
REMARK 927      BINDING AFFINITY PREDICTED BY RF-SCORE:    0.00 PKD
ROOT
HETATM    1  C   UNL     1     -11.780  12.316  66.546  1.00  0.00    -0.420 C  
HETATM    2  C   UNL     1     -10.939  11.901  67.740  1.00  0.00    -0.278 C  
ENDROOT
BRANCH   2   3
HETATM    3  C   UNL     1     -10.898  10.419  68.103  1.00  0.00    -0.264 C  
HETATM    4  O   UNL     1     -10.786   9.538  67.257  1.00  0.00    -0.263 OA 
BRANCH   3   5
HETATM    5  O   UNL     1     -10.881  10.208  69.442  1.00  0.00    -0.214 OA 
BRANCH   5   6
HETATM    6  C   UNL     1     -12.111   9.748  70.086  1.00  0.00     0.046 C  
HETATM    7  C   UNL     1     -12.409  10.730  71.277  1.00  0.00    -0.470 C  
HETATM    8  C   UNL     1     -13.661  10.375  72.077  1.00  0.00    -0.257 C  
HETATM    9  C   UNL     1     -12.498  12.194  70.839  1.00  0.00    -0.374 C  
BRANCH   6  10
HETATM   10  O   UNL     1     -12.111   8.358  70.533  1.00  0.00    -0.059 OA 
BRANCH  10  11
HETATM   11  P   UNL     1     -10.722   7.781  71.251  1.00  0.00    -0.234 P  
HETATM   12  O   UNL     1     -11.117   8.393  72.617  1.00  0.00    -0.359 OA 
BRANCH  11  13
HETATM   13  C   UNL     1      -9.403   9.209  70.964  1.00  0.00    -0.263 C  
BRANCH  13  14
HETATM   14  C   UNL     1      -8.201   8.735  70.140  1.00  0.00    -0.117 C  
BRANCH  14  15
HETATM   15  C   UNL     1      -7.073   9.747  70.048  1.00  0.00    -0.118 C  
BRANCH  15  16
HETATM   16  C   UNL     1      -7.091  10.400  68.657  1.00  0.00    -0.076 C  
BRANCH  16  17
HETATM   17  C   UNL     1      -6.754   9.391  67.596  1.00  0.00    -0.068 A  
HETATM   18  C   UNL     1      -7.382   9.436  66.344  1.00  0.00    -0.093 A  
HETATM   19  C   UNL     1      -5.762   8.433  67.834  1.00  0.00    -0.039 A  
HETATM   20  C   UNL     1      -6.028   7.582  65.588  1.00  0.00    -0.038 A  
HETATM   21  C   UNL     1      -7.021   8.525  65.345  1.00  0.00    -0.078 A  
HETATM   22  C   UNL     1      -5.400   7.536  66.829  1.00  0.00    -0.024 A  
ENDBRANCH  16  17
ENDBRANCH  15  16
ENDBRANCH  14  15
ENDBRANCH  13  14
ENDBRANCH  11  13
BRANCH  11  23
HETATM   23  C   UNL     1     -10.256   7.056  69.636  1.00  0.00    -0.202 C  
BRANCH  23  24
HETATM   24  C   UNL     1     -10.014   5.536  69.671  1.00  0.00    -0.214 C  
HETATM   25  C   UNL     1      -9.347   3.362  68.616  1.00  0.00    -0.167 C  
HETATM   26  O   UNL     1     -10.361   4.883  70.664  1.00  0.00    -0.228 OA 
HETATM   27  N   UNL     1      -9.376   4.846  68.664  1.00  0.00    -0.127 N  
HETATM   28  C   UNL     1      -8.449   2.595  69.627  1.00  0.00    -0.054 C  
HETATM   29  O   UNL     1      -7.942   1.503  69.397  1.00  0.00    -0.045 OA 
HETATM   30  C   UNL     1      -8.446   5.362  67.678  1.00  0.00    -0.105 C  
HETATM   31  C   UNL     1      -8.452   4.351  66.518  1.00  0.00    -0.112 C  
HETATM   32  O   UNL     1      -8.366   3.156  70.852  1.00  0.00    -0.062 OA 
HETATM   33  C   UNL     1      -8.890   3.028  67.183  1.00  0.00    -0.161 C  
BRANCH  31  34
HETATM   34  C   UNL     1      -9.356   4.709  65.299  1.00  0.00    -0.159 C  
HETATM   35  C   UNL     1      -7.509   4.858  63.563  1.00  0.00    -0.055 C  
HETATM   36  C   UNL     1      -8.001   3.603  62.849  1.00  0.00    -0.071 C  
HETATM   37  C   UNL     1      -8.850   2.703  63.743  1.00  0.00    -0.086 C  
HETATM   38  C   UNL     1      -8.670   5.583  64.235  1.00  0.00     0.063 C  
HETATM   39  C   UNL     1      -9.902   3.457  64.567  1.00  0.00    -0.164 C  
ENDBRANCH  31  34
ENDBRANCH  23  24
ENDBRANCH  11  23
ENDBRANCH  10  11
ENDBRANCH   6  10
ENDBRANCH   5   6
ENDBRANCH   3   5
ENDBRANCH   2   3
TORSDOF 13
ENDMDL
MODEL      261
REMARK 921   NORMALIZED FREE ENERGY PREDICTED BY IDOCK:   -2.57 KCAL/MOL
REMARK 922        TOTAL FREE ENERGY PREDICTED BY IDOCK:   -6.98 KCAL/MOL
REMARK 923 INTER-LIGAND FREE ENERGY PREDICTED BY IDOCK:   -6.03 KCAL/MOL
REMARK 924 INTRA-LIGAND FREE ENERGY PREDICTED BY IDOCK:   -0.95 KCAL/MOL
REMARK 927      BINDING AFFINITY PREDICTED BY RF-SCORE:    0.00 PKD
ROOT
HETATM    1  C   UNL     1     -10.297  17.011  68.870  1.00  0.00    -0.337 C  
HETATM    2  C   UNL     1      -9.613  15.674  69.083  1.00  0.00    -0.251 C  
ENDROOT
BRANCH   2   3
HETATM    3  C   UNL     1     -10.451  14.409  68.920  1.00  0.00    -0.245 C  
HETATM    4  O   UNL     1     -11.650  14.376  69.179  1.00  0.00    -0.269 OA 
BRANCH   3   5
HETATM    5  O   UNL     1      -9.757  13.389  68.358  1.00  0.00    -0.221 OA 
BRANCH   5   6
HETATM    6  C   UNL     1     -10.462  12.494  67.440  1.00  0.00    -0.219 C  
HETATM    7  C   UNL     1     -11.099  13.387  66.314  1.00  0.00    -0.305 C  
HETATM    8  C   UNL     1     -11.898  12.601  65.276  1.00  0.00    -0.452 C  
HETATM    9  C   UNL     1     -10.074  14.264  65.593  1.00  0.00    -0.364 C  
BRANCH   6  10
HETATM   10  O   UNL     1     -11.458  11.618  68.050  1.00  0.00    -0.274 OA 
BRANCH  10  11
HETATM   11  P   UNL     1     -10.912  10.229  68.790  1.00  0.00    -0.216 P  
HETATM   12  O   UNL     1     -11.163  10.823  70.197  1.00  0.00    -0.284 OA 
BRANCH  11  13
HETATM   13  C   UNL     1      -8.977  10.518  68.987  1.00  0.00    -0.176 C  
BRANCH  13  14
HETATM   14  C   UNL     1      -8.385   9.717  70.152  1.00  0.00    -0.201 C  
BRANCH  14  15
HETATM   15  C   UNL     1      -8.170   8.245  69.847  1.00  0.00    -0.123 C  
BRANCH  15  16
HETATM   16  C   UNL     1      -6.848   7.785  70.483  1.00  0.00    -0.042 C  
BRANCH  16  17
HETATM   17  C   UNL     1      -6.622   8.482  71.795  1.00  0.00    -0.072 A  
HETATM   18  C   UNL     1      -7.522   8.314  72.855  1.00  0.00    -0.151 A  
HETATM   19  C   UNL     1      -5.473   9.259  71.983  1.00  0.00    -0.073 A  
HETATM   20  C   UNL     1      -6.125   9.688  74.270  1.00  0.00     0.342 A  
HETATM   21  C   UNL     1      -7.273   8.925  74.090  1.00  0.00     0.118 A  
HETATM   22  C   UNL     1      -5.227   9.854  73.220  1.00  0.00     0.062 A  
ENDBRANCH  16  17
ENDBRANCH  15  16
ENDBRANCH  14  15
ENDBRANCH  13  14
ENDBRANCH  11  13
BRANCH  11  23
HETATM   23  C   UNL     1     -10.615   9.526  67.127  1.00  0.00    -0.225 C  
BRANCH  23  24
HETATM   24  C   UNL     1     -10.411   7.999  67.112  1.00  0.00    -0.325 C  
HETATM   25  C   UNL     1      -9.297   5.909  66.291  1.00  0.00    -0.152 C  
HETATM   26  O   UNL     1     -11.196   7.271  67.732  1.00  0.00    -0.020 OA 
HETATM   27  N   UNL     1      -9.356   7.382  66.477  1.00  0.00    -0.175 N  
HETATM   28  C   UNL     1      -9.005   5.008  67.523  1.00  0.00    -0.110 C  
HETATM   29  O   UNL     1      -8.443   3.920  67.455  1.00  0.00    -0.097 OA 
HETATM   30  C   UNL     1      -8.066   7.947  66.134  1.00  0.00    -0.109 C  
HETATM   31  C   UNL     1      -7.495   7.054  65.017  1.00  0.00    -0.093 C  
HETATM   32  O   UNL     1      -9.538   5.443  68.685  1.00  0.00    -0.118 OA 
HETATM   33  C   UNL     1      -8.194   5.695  65.238  1.00  0.00    -0.134 C  
BRANCH  31  34
HETATM   34  C   UNL     1      -7.687   7.570  63.558  1.00  0.00    -0.126 C  
HETATM   35  C   UNL     1      -7.595  10.053  64.081  1.00  0.00    -0.140 C  
HETATM   36  C   UNL     1      -6.256  10.212  63.369  1.00  0.00    -0.142 C  
HETATM   37  C   UNL     1      -5.487   8.898  63.245  1.00  0.00    -0.068 C  
HETATM   38  C   UNL     1      -8.407   8.925  63.454  1.00  0.00    -0.177 C  
HETATM   39  C   UNL     1      -6.348   7.713  62.791  1.00  0.00    -0.067 C  
ENDBRANCH  31  34
ENDBRANCH  23  24
ENDBRANCH  11  23
ENDBRANCH  10  11
ENDBRANCH   6  10
ENDBRANCH   5   6
ENDBRANCH   3   5
ENDBRANCH   2   3
TORSDOF 13
ENDMDL
MODEL      262
REMARK 921   NORMALIZED FREE ENERGY PREDICTED BY IDOCK:   -2.53 KCAL/MOL
REMARK 922        TOTAL FREE ENERGY PREDICTED BY IDOCK:   -6.92 KCAL/MOL
REMARK 923 INTER-LIGAND FREE ENERGY PREDICTED BY IDOCK:   -4.20 KCAL/MOL
REMARK 924 INTRA-LIGAND FREE ENERGY PREDICTED BY IDOCK:   -2.72 KCAL/MOL
REMARK 927      BINDING AFFINITY PREDICTED BY RF-SCORE:    0.00 PKD
ROOT
HETATM    1  C   UNL     1      -5.511   3.440  69.313  1.00  0.00    -0.016 C  
HETATM    2  C   UNL     1      -6.283   4.745  69.246  1.00  0.00    -0.030 C  
ENDROOT
BRANCH   2   3
HETATM    3  C   UNL     1      -5.484   6.047  69.253  1.00  0.00    -0.005 C  
HETATM    4  O   UNL     1      -5.139   6.612  68.221  1.00  0.00    -0.007 OA 
BRANCH   3   5
HETATM    5  O   UNL     1      -5.311   6.548  70.501  1.00  0.00    -0.017 OA 
BRANCH   5   6
HETATM    6  C   UNL     1      -6.457   7.172  71.162  1.00  0.00    -0.044 C  
HETATM    7  C   UNL     1      -6.930   6.193  72.298  1.00  0.00    -0.075 C  
HETATM    8  C   UNL     1      -8.145   6.689  73.080  1.00  0.00    -0.108 C  
HETATM    9  C   UNL     1      -5.816   5.837  73.285  1.00  0.00    -0.036 C  
BRANCH   6  10
HETATM   10  O   UNL     1      -7.566   7.547  70.290  1.00  0.00    -0.086 OA 
BRANCH  10  11
HETATM   11  P   UNL     1      -7.741   9.161  69.917  1.00  0.00    -0.116 P  
HETATM   12  O   UNL     1      -7.111   9.589  71.265  1.00  0.00    -0.313 OA 
BRANCH  11  13
HETATM   13  C   UNL     1      -9.533   9.617  70.583  1.00  0.00    -0.124 C  
BRANCH  13  14
HETATM   14  C   UNL     1     -10.529   8.465  70.409  1.00  0.00    -0.228 C  
BRANCH  14  15
HETATM   15  C   UNL     1     -10.269   7.277  71.318  1.00  0.00    -0.198 C  
BRANCH  15  16
HETATM   16  C   UNL     1     -11.207   6.124  70.925  1.00  0.00    -0.365 C  
BRANCH  16  17
HETATM   17  C   UNL     1     -10.414   4.929  70.477  1.00  0.00    -0.170 A  
HETATM   18  C   UNL     1      -9.949   3.992  71.410  1.00  0.00    -0.210 A  
HETATM   19  C   UNL     1     -10.187   4.713  69.113  1.00  0.00    -0.046 A  
HETATM   20  C   UNL     1      -9.045   2.644  69.619  1.00  0.00    -0.186 A  
HETATM   21  C   UNL     1      -9.259   2.854  70.976  1.00  0.00    -0.200 A  
HETATM   22  C   UNL     1      -9.509   3.571  68.690  1.00  0.00    -0.209 A  
ENDBRANCH  16  17
ENDBRANCH  15  16
ENDBRANCH  14  15
ENDBRANCH  13  14
ENDBRANCH  11  13
BRANCH  11  23
HETATM   23  C   UNL     1      -8.485   8.656  68.324  1.00  0.00    -0.131 C  
BRANCH  23  24
HETATM   24  C   UNL     1      -7.544   8.796  67.113  1.00  0.00    -0.088 C  
HETATM   25  C   UNL     1      -6.644   8.055  64.894  1.00  0.00    -0.051 C  
HETATM   26  O   UNL     1      -6.636   9.637  67.138  1.00  0.00    -0.069 OA 
HETATM   27  N   UNL     1      -7.683   8.062  65.955  1.00  0.00    -0.085 N  
HETATM   28  C   UNL     1      -6.474   9.316  64.001  1.00  0.00    -0.091 C  
HETATM   29  O   UNL     1      -6.073   9.283  62.843  1.00  0.00    -0.093 OA 
HETATM   30  C   UNL     1      -8.877   7.419  65.444  1.00  0.00     0.105 C  
HETATM   31  C   UNL     1      -8.390   6.338  64.462  1.00  0.00    -0.004 C  
HETATM   32  O   UNL     1      -6.675  10.491  64.634  1.00  0.00    -0.069 OA 
HETATM   33  C   UNL     1      -7.008   6.852  64.002  1.00  0.00    -0.056 C  
BRANCH  31  34
HETATM   34  C   UNL     1      -8.306   4.886  65.024  1.00  0.00    -0.136 C  
HETATM   35  C   UNL     1     -10.501   4.044  64.066  1.00  0.00    -0.180 C  
HETATM   36  C   UNL     1      -9.786   3.113  63.093  1.00  0.00    -0.104 C  
HETATM   37  C   UNL     1      -8.344   3.533  62.817  1.00  0.00    -0.081 C  
HETATM   38  C   UNL     1      -9.670   4.244  65.328  1.00  0.00    -0.201 C  
HETATM   39  C   UNL     1      -7.556   3.917  64.075  1.00  0.00    -0.078 C  
ENDBRANCH  31  34
ENDBRANCH  23  24
ENDBRANCH  11  23
ENDBRANCH  10  11
ENDBRANCH   6  10
ENDBRANCH   5   6
ENDBRANCH   3   5
ENDBRANCH   2   3
TORSDOF 13
ENDMDL
MODEL      263
REMARK 921   NORMALIZED FREE ENERGY PREDICTED BY IDOCK:   -2.53 KCAL/MOL
REMARK 922        TOTAL FREE ENERGY PREDICTED BY IDOCK:   -6.91 KCAL/MOL
REMARK 923 INTER-LIGAND FREE ENERGY PREDICTED BY IDOCK:   -5.65 KCAL/MOL
REMARK 924 INTRA-LIGAND FREE ENERGY PREDICTED BY IDOCK:   -1.26 KCAL/MOL
REMARK 927      BINDING AFFINITY PREDICTED BY RF-SCORE:    0.00 PKD
ROOT
HETATM    1  C   UNL     1      -8.098  15.350  69.702  1.00  0.00    -0.134 C  
HETATM    2  C   UNL     1      -6.908  14.532  69.235  1.00  0.00    -0.134 C  
ENDROOT
BRANCH   2   3
HETATM    3  C   UNL     1      -7.133  13.522  68.112  1.00  0.00    -0.117 C  
HETATM    4  O   UNL     1      -7.356  13.864  66.955  1.00  0.00     0.043 OA 
BRANCH   3   5
HETATM    5  O   UNL     1      -6.944  12.241  68.514  1.00  0.00    -0.079 OA 
BRANCH   5   6
HETATM    6  C   UNL     1      -7.542  11.170  67.718  1.00  0.00    -0.100 C  
HETATM    7  C   UNL     1      -6.533  10.829  66.562  1.00  0.00    -0.119 C  
HETATM    8  C   UNL     1      -7.020   9.733  65.615  1.00  0.00    -0.101 C  
HETATM    9  C   UNL     1      -5.139  10.460  67.072  1.00  0.00    -0.040 C  
BRANCH   6  10
HETATM   10  O   UNL     1      -8.878  11.440  67.193  1.00  0.00    -0.149 OA 
BRANCH  10  11
HETATM   11  P   UNL     1      -9.966  10.178  67.173  1.00  0.00    -0.217 P  
HETATM   12  O   UNL     1     -10.589  10.674  65.845  1.00  0.00    -0.199 OA 
BRANCH  11  13
HETATM   13  C   UNL     1     -11.511  10.860  68.180  1.00  0.00    -0.295 C  
BRANCH  13  14
HETATM   14  C   UNL     1     -11.092  11.627  69.439  1.00  0.00    -0.268 C  
BRANCH  14  15
HETATM   15  C   UNL     1     -11.544  13.077  69.461  1.00  0.00    -0.342 C  
BRANCH  15  16
HETATM   16  C   UNL     1     -11.119  13.719  70.792  1.00  0.00     1.059 C  
BRANCH  16  17
HETATM   17  C   UNL     1     -12.260  14.490  71.393  1.00  0.00    -0.425 A  
HETATM   18  C   UNL     1     -12.248  14.841  72.749  1.00  0.00    -0.334 A  
HETATM   19  C   UNL     1     -13.318  14.917  70.581  1.00  0.00    -0.253 A  
HETATM   20  C   UNL     1     -14.332  16.032  72.470  1.00  0.00     0.002 A  
HETATM   21  C   UNL     1     -13.290  15.606  73.285  1.00  0.00    -0.618 A  
HETATM   22  C   UNL     1     -14.346  15.689  71.121  1.00  0.00     0.117 A  
ENDBRANCH  16  17
ENDBRANCH  15  16
ENDBRANCH  14  15
ENDBRANCH  13  14
ENDBRANCH  11  13
BRANCH  11  23
HETATM   23  C   UNL     1      -9.230   9.592  68.742  1.00  0.00    -0.141 C  
BRANCH  23  24
HETATM   24  C   UNL     1      -8.845   8.101  68.743  1.00  0.00    -0.138 C  
HETATM   25  C   UNL     1      -9.192   5.711  69.413  1.00  0.00    -0.121 C  
HETATM   26  O   UNL     1      -7.766   7.748  68.250  1.00  0.00    -0.113 OA 
HETATM   27  N   UNL     1      -9.667   7.105  69.223  1.00  0.00    -0.159 N  
HETATM   28  C   UNL     1      -8.949   4.823  68.161  1.00  0.00    -0.112 C  
HETATM   29  O   UNL     1      -9.065   3.602  68.157  1.00  0.00    -0.122 OA 
HETATM   30  C   UNL     1     -11.109   7.131  69.369  1.00  0.00    -0.110 C  
HETATM   31  C   UNL     1     -11.450   6.040  70.399  1.00  0.00    -0.234 C  
HETATM   32  O   UNL     1      -8.464   5.478  67.085  1.00  0.00    -0.111 OA 
HETATM   33  C   UNL     1     -10.269   5.052  70.297  1.00  0.00    -0.328 C  
BRANCH  31  34
HETATM   34  C   UNL     1     -11.672   6.523  71.866  1.00  0.00    -0.371 C  
HETATM   35  C   UNL     1     -12.779   8.739  71.310  1.00  0.00    -0.267 C  
HETATM   36  C   UNL     1     -14.124   8.268  71.852  1.00  0.00    -0.499 C  
HETATM   37  C   UNL     1     -14.250   6.747  71.894  1.00  0.00    -0.234 C  
HETATM   38  C   UNL     1     -11.633   8.051  72.043  1.00  0.00    -0.369 C  
HETATM   39  C   UNL     1     -13.016   6.035  72.462  1.00  0.00     0.482 C  
ENDBRANCH  31  34
ENDBRANCH  23  24
ENDBRANCH  11  23
ENDBRANCH  10  11
ENDBRANCH   6  10
ENDBRANCH   5   6
ENDBRANCH   3   5
ENDBRANCH   2   3
TORSDOF 13
ENDMDL
MODEL      264
REMARK 921   NORMALIZED FREE ENERGY PREDICTED BY IDOCK:   -2.52 KCAL/MOL
REMARK 922        TOTAL FREE ENERGY PREDICTED BY IDOCK:   -6.89 KCAL/MOL
REMARK 923 INTER-LIGAND FREE ENERGY PREDICTED BY IDOCK:   -7.81 KCAL/MOL
REMARK 924 INTRA-LIGAND FREE ENERGY PREDICTED BY IDOCK:    0.91 KCAL/MOL
REMARK 927      BINDING AFFINITY PREDICTED BY RF-SCORE:    0.00 PKD
ROOT
HETATM    1  C   UNL     1      -8.310   9.141  62.390  1.00  0.00    -0.183 C  
HETATM    2  C   UNL     1      -7.858   8.745  63.784  1.00  0.00    -0.145 C  
ENDROOT
BRANCH   2   3
HETATM    3  C   UNL     1      -8.680   9.244  64.969  1.00  0.00    -0.190 C  
HETATM    4  O   UNL     1      -9.436   8.513  65.600  1.00  0.00    -0.133 OA 
BRANCH   3   5
HETATM    5  O   UNL     1      -8.393  10.526  65.302  1.00  0.00    -0.161 OA 
BRANCH   5   6
HETATM    6  C   UNL     1      -9.332  11.246  66.163  1.00  0.00    -0.211 C  
HETATM    7  C   UNL     1     -10.165  12.209  65.242  1.00  0.00    -0.304 C  
HETATM    8  C   UNL     1     -11.187  13.060  65.995  1.00  0.00    -0.320 C  
HETATM    9  C   UNL     1     -10.872  11.482  64.097  1.00  0.00    -0.435 C  
BRANCH   6  10
HETATM   10  O   UNL     1      -8.738  11.967  67.285  1.00  0.00    -0.161 OA 
BRANCH  10  11
HETATM   11  P   UNL     1      -7.080  12.127  67.306  1.00  0.00    -0.084 P  
HETATM   12  O   UNL     1      -6.885  10.593  67.384  1.00  0.00    -0.074 OA 
BRANCH  11  13
HETATM   13  C   UNL     1      -6.637  12.305  69.213  1.00  0.00    -0.099 C  
BRANCH  13  14
HETATM   14  C   UNL     1      -5.780  11.141  69.722  1.00  0.00    -0.073 C  
BRANCH  14  15
HETATM   15  C   UNL     1      -6.436  10.322  70.820  1.00  0.00     0.002 C  
BRANCH  15  16
HETATM   16  C   UNL     1      -6.726   8.908  70.291  1.00  0.00    -0.043 C  
BRANCH  16  17
HETATM   17  C   UNL     1      -8.205   8.641  70.282  1.00  0.00    -0.119 A  
HETATM   18  C   UNL     1      -8.694   7.334  70.404  1.00  0.00    -0.146 A  
HETATM   19  C   UNL     1      -9.106   9.710  70.213  1.00  0.00    -0.272 A  
HETATM   20  C   UNL     1     -10.962   8.171  70.387  1.00  0.00    -0.248 A  
HETATM   21  C   UNL     1     -10.074   7.102  70.448  1.00  0.00    -0.199 A  
HETATM   22  C   UNL     1     -10.479   9.471  70.270  1.00  0.00    -0.319 A  
ENDBRANCH  16  17
ENDBRANCH  15  16
ENDBRANCH  14  15
ENDBRANCH  13  14
ENDBRANCH  11  13
BRANCH  11  23
HETATM   23  C   UNL     1      -7.310  13.940  67.213  1.00  0.00     0.006 C  
BRANCH  23  24
HETATM   24  C   UNL     1      -8.456  14.478  68.090  1.00  0.00    -0.157 C  
HETATM   25  C   UNL     1     -10.211  16.171  68.669  1.00  0.00    -0.244 C  
HETATM   26  O   UNL     1      -8.716  13.923  69.166  1.00  0.00     0.138 OA 
HETATM   27  N   UNL     1      -9.262  15.533  67.722  1.00  0.00    -0.180 N  
HETATM   28  C   UNL     1     -11.502  15.404  69.070  1.00  0.00    -0.337 C  
HETATM   29  O   UNL     1     -12.552  15.953  69.386  1.00  0.00    -0.001 OA 
HETATM   30  C   UNL     1      -9.536  16.023  66.385  1.00  0.00    -0.283 C  
HETATM   31  C   UNL     1     -10.031  17.470  66.557  1.00  0.00    -0.323 C  
HETATM   32  O   UNL     1     -11.357  14.066  69.179  1.00  0.00    -0.254 OA 
HETATM   33  C   UNL     1     -10.604  17.497  67.990  1.00  0.00    -0.384 C  
BRANCH  31  34
HETATM   34  C   UNL     1      -8.968  18.590  66.340  1.00  0.00    -0.276 C  
HETATM   35  C   UNL     1      -8.687  19.243  68.777  1.00  0.00    -0.383 C  
HETATM   36  C   UNL     1      -7.271  18.680  68.825  1.00  0.00    -0.330 C  
HETATM   37  C   UNL     1      -7.006  17.642  67.737  1.00  0.00    -0.187 C  
HETATM   38  C   UNL     1      -9.026  19.729  67.372  1.00  0.00    -0.402 C  
HETATM   39  C   UNL     1      -7.516  18.050  66.349  1.00  0.00    -0.297 C  
ENDBRANCH  31  34
ENDBRANCH  23  24
ENDBRANCH  11  23
ENDBRANCH  10  11
ENDBRANCH   6  10
ENDBRANCH   5   6
ENDBRANCH   3   5
ENDBRANCH   2   3
TORSDOF 13
ENDMDL
MODEL      265
REMARK 921   NORMALIZED FREE ENERGY PREDICTED BY IDOCK:   -2.51 KCAL/MOL
REMARK 922        TOTAL FREE ENERGY PREDICTED BY IDOCK:   -6.88 KCAL/MOL
REMARK 923 INTER-LIGAND FREE ENERGY PREDICTED BY IDOCK:   -7.11 KCAL/MOL
REMARK 924 INTRA-LIGAND FREE ENERGY PREDICTED BY IDOCK:    0.23 KCAL/MOL
REMARK 927      BINDING AFFINITY PREDICTED BY RF-SCORE:    0.00 PKD
ROOT
HETATM    1  C   UNL     1      -6.503  10.016  63.000  1.00  0.00    -0.130 C  
HETATM    2  C   UNL     1      -5.477  10.365  64.063  1.00  0.00    -0.149 C  
ENDROOT
BRANCH   2   3
HETATM    3  C   UNL     1      -5.866  10.161  65.525  1.00  0.00    -0.094 C  
HETATM    4  O   UNL     1      -5.320   9.328  66.241  1.00  0.00    -0.039 OA 
BRANCH   3   5
HETATM    5  O   UNL     1      -6.780  11.065  65.955  1.00  0.00    -0.109 OA 
BRANCH   5   6
HETATM    6  C   UNL     1      -7.229  10.990  67.345  1.00  0.00    -0.103 C  
HETATM    7  C   UNL     1      -6.066  11.550  68.242  1.00  0.00    -0.045 C  
HETATM    8  C   UNL     1      -6.367  11.520  69.740  1.00  0.00    -0.140 C  
HETATM    9  C   UNL     1      -5.635  12.965  67.851  1.00  0.00    -0.119 C  
BRANCH   6  10
HETATM   10  O   UNL     1      -7.662   9.671  67.800  1.00  0.00    -0.093 OA 
BRANCH  10  11
HETATM   11  P   UNL     1      -9.298   9.358  67.805  1.00  0.00    -0.128 P  
HETATM   12  O   UNL     1      -9.361   9.411  66.259  1.00  0.00    -0.168 OA 
BRANCH  11  13
HETATM   13  C   UNL     1     -10.128  11.136  67.924  1.00  0.00    -0.176 C  
BRANCH  13  14
HETATM   14  C   UNL     1     -11.066  11.261  69.130  1.00  0.00    -0.312 C  
BRANCH  14  15
HETATM   15  C   UNL     1     -12.249  12.184  68.902  1.00  0.00    -0.025 C  
BRANCH  15  16
HETATM   16  C   UNL     1     -11.749  13.635  68.816  1.00  0.00    -0.383 C  
BRANCH  16  17
HETATM   17  C   UNL     1     -11.453  14.007  67.390  1.00  0.00    -0.373 A  
HETATM   18  C   UNL     1     -10.296  14.729  67.067  1.00  0.00    -0.255 A  
HETATM   19  C   UNL     1     -12.306  13.580  66.366  1.00  0.00    -0.413 A  
HETATM   20  C   UNL     1     -10.852  14.587  64.719  1.00  0.00    -0.410 A  
HETATM   21  C   UNL     1     -10.003  15.023  65.730  1.00  0.00    -0.376 A  
HETATM   22  C   UNL     1     -12.000  13.867  65.036  1.00  0.00    -0.403 A  
ENDBRANCH  16  17
ENDBRANCH  15  16
ENDBRANCH  14  15
ENDBRANCH  13  14
ENDBRANCH  11  13
BRANCH  11  23
HETATM   23  C   UNL     1      -9.224   9.295  69.632  1.00  0.00    -0.175 C  
BRANCH  23  24
HETATM   24  C   UNL     1      -9.859   8.034  70.248  1.00  0.00    -0.184 C  
HETATM   25  C   UNL     1     -10.004   6.237  71.990  1.00  0.00    -0.168 C  
HETATM   26  O   UNL     1     -10.731   7.420  69.621  1.00  0.00    -0.236 OA 
HETATM   27  N   UNL     1      -9.546   7.564  71.505  1.00  0.00    -0.155 N  
HETATM   28  C   UNL     1     -11.502   6.047  72.358  1.00  0.00    -0.308 C  
HETATM   29  O   UNL     1     -11.902   5.252  73.201  1.00  0.00    -0.229 OA 
HETATM   30  C   UNL     1      -8.994   8.304  72.623  1.00  0.00    -0.246 C  
HETATM   31  C   UNL     1      -8.362   7.254  73.555  1.00  0.00    -0.159 C  
HETATM   32  O   UNL     1     -12.369   6.732  71.582  1.00  0.00    -0.345 OA 
HETATM   33  C   UNL     1      -9.141   5.959  73.235  1.00  0.00    -0.133 C  
BRANCH  31  34
HETATM   34  C   UNL     1      -6.822   7.049  73.417  1.00  0.00    -0.069 C  
HETATM   35  C   UNL     1      -6.807   4.526  73.698  1.00  0.00    -0.065 C  
HETATM   36  C   UNL     1      -6.404   4.309  72.243  1.00  0.00    -0.021 C  
HETATM   37  C   UNL     1      -6.746   5.498  71.347  1.00  0.00    -0.056 C  
HETATM   38  C   UNL     1      -6.267   5.856  74.213  1.00  0.00    -0.069 C  
HETATM   39  C   UNL     1      -6.371   6.858  71.947  1.00  0.00    -0.048 C  
ENDBRANCH  31  34
ENDBRANCH  23  24
ENDBRANCH  11  23
ENDBRANCH  10  11
ENDBRANCH   6  10
ENDBRANCH   5   6
ENDBRANCH   3   5
ENDBRANCH   2   3
TORSDOF 13
ENDMDL
MODEL      266
REMARK 921   NORMALIZED FREE ENERGY PREDICTED BY IDOCK:   -2.46 KCAL/MOL
REMARK 922        TOTAL FREE ENERGY PREDICTED BY IDOCK:   -6.80 KCAL/MOL
REMARK 923 INTER-LIGAND FREE ENERGY PREDICTED BY IDOCK:   -9.49 KCAL/MOL
REMARK 924 INTRA-LIGAND FREE ENERGY PREDICTED BY IDOCK:    2.69 KCAL/MOL
REMARK 927      BINDING AFFINITY PREDICTED BY RF-SCORE:    0.00 PKD
ROOT
HETATM    1  C   UNL     1     -12.503  10.146  70.759  1.00  0.00    -0.417 C  
HETATM    2  C   UNL     1     -11.574  10.870  69.801  1.00  0.00    -0.399 C  
ENDROOT
BRANCH   2   3
HETATM    3  C   UNL     1     -12.030  12.217  69.247  1.00  0.00    -0.262 C  
HETATM    4  O   UNL     1     -12.221  13.193  69.964  1.00  0.00    -0.306 OA 
BRANCH   3   5
HETATM    5  O   UNL     1     -12.083  12.235  67.892  1.00  0.00    -0.466 OA 
BRANCH   5   6
HETATM    6  C   UNL     1     -11.284  13.233  67.181  1.00  0.00    -0.299 C  
HETATM    7  C   UNL     1     -11.166  12.758  65.687  1.00  0.00    -0.335 C  
HETATM    8  C   UNL     1     -10.335  13.686  64.803  1.00  0.00    -0.414 C  
HETATM    9  C   UNL     1     -12.525  12.525  65.023  1.00  0.00    -0.494 C  
BRANCH   6  10
HETATM   10  O   UNL     1      -9.970  13.517  67.751  1.00  0.00    -0.222 OA 
BRANCH  10  11
HETATM   11  P   UNL     1      -8.668  12.676  67.142  1.00  0.00    -0.176 P  
HETATM   12  O   UNL     1      -9.539  11.422  66.882  1.00  0.00    -0.181 OA 
BRANCH  11  13
HETATM   13  C   UNL     1      -7.866  11.821  68.720  1.00  0.00    -0.076 C  
BRANCH  13  14
HETATM   14  C   UNL     1      -7.950  10.292  68.660  1.00  0.00    -0.111 C  
BRANCH  14  15
HETATM   15  C   UNL     1      -8.313   9.638  69.982  1.00  0.00    -0.197 C  
BRANCH  15  16
HETATM   16  C   UNL     1      -9.387   8.566  69.738  1.00  0.00    -0.161 C  
BRANCH  16  17
HETATM   17  C   UNL     1      -8.939   7.604  68.673  1.00  0.00    -0.133 A  
HETATM   18  C   UNL     1      -7.747   6.883  68.820  1.00  0.00    -0.110 A  
HETATM   19  C   UNL     1      -9.747   7.378  67.553  1.00  0.00    -0.186 A  
HETATM   20  C   UNL     1      -8.180   5.727  66.741  1.00  0.00    -0.105 A  
HETATM   21  C   UNL     1      -7.368   5.950  67.847  1.00  0.00    -0.077 A  
HETATM   22  C   UNL     1      -9.367   6.439  66.595  1.00  0.00    -0.175 A  
ENDBRANCH  16  17
ENDBRANCH  15  16
ENDBRANCH  14  15
ENDBRANCH  13  14
ENDBRANCH  11  13
BRANCH  11  23
HETATM   23  C   UNL     1      -7.638  14.157  67.449  1.00  0.00    -0.158 C  
BRANCH  23  24
HETATM   24  C   UNL     1      -8.420  15.373  67.980  1.00  0.00    -0.146 C  
HETATM   25  C   UNL     1      -8.886  17.831  68.127  1.00  0.00    -0.267 C  
HETATM   26  O   UNL     1      -9.249  15.218  68.887  1.00  0.00    -0.187 OA 
HETATM   27  N   UNL     1      -8.291  16.643  67.463  1.00  0.00    -0.173 N  
HETATM   28  C   UNL     1     -10.425  18.031  68.070  1.00  0.00    -0.375 C  
HETATM   29  O   UNL     1     -10.973  19.128  68.097  1.00  0.00    -0.134 OA 
HETATM   30  C   UNL     1      -7.830  17.027  66.144  1.00  0.00    -0.260 C  
HETATM   31  C   UNL     1      -7.382  18.495  66.262  1.00  0.00    -0.290 C  
HETATM   32  O   UNL     1     -11.149  16.892  68.122  1.00  0.00    -0.347 OA 
HETATM   33  C   UNL     1      -8.196  19.036  67.457  1.00  0.00    -0.301 C  
BRANCH  31  34
HETATM   34  C   UNL     1      -5.852  18.734  66.451  1.00  0.00    -0.180 C  
HETATM   35  C   UNL     1      -5.958  21.250  66.773  1.00  0.00    -0.385 C  
HETATM   36  C   UNL     1      -5.556  21.137  68.240  1.00  0.00    -0.365 C  
HETATM   37  C   UNL     1      -5.836  19.756  68.829  1.00  0.00    -0.264 C  
HETATM   38  C   UNL     1      -5.359  20.107  65.962  1.00  0.00    -0.183 C  
HETATM   39  C   UNL     1      -5.401  18.595  67.927  1.00  0.00    -0.170 C  
ENDBRANCH  31  34
ENDBRANCH  23  24
ENDBRANCH  11  23
ENDBRANCH  10  11
ENDBRANCH   6  10
ENDBRANCH   5   6
ENDBRANCH   3   5
ENDBRANCH   2   3
TORSDOF 13
ENDMDL
MODEL      267
REMARK 921   NORMALIZED FREE ENERGY PREDICTED BY IDOCK:   -2.45 KCAL/MOL
REMARK 922        TOTAL FREE ENERGY PREDICTED BY IDOCK:   -6.78 KCAL/MOL
REMARK 923 INTER-LIGAND FREE ENERGY PREDICTED BY IDOCK:   -7.48 KCAL/MOL
REMARK 924 INTRA-LIGAND FREE ENERGY PREDICTED BY IDOCK:    0.69 KCAL/MOL
REMARK 927      BINDING AFFINITY PREDICTED BY RF-SCORE:    0.00 PKD
ROOT
HETATM    1  C   UNL     1     -12.098  12.025  70.428  1.00  0.00    -0.407 C  
HETATM    2  C   UNL     1     -12.069  11.728  68.939  1.00  0.00    -0.238 C  
ENDROOT
BRANCH   2   3
HETATM    3  C   UNL     1     -11.715  12.870  67.990  1.00  0.00    -0.356 C  
HETATM    4  O   UNL     1     -12.418  13.869  67.873  1.00  0.00    -0.113 OA 
BRANCH   3   5
HETATM    5  O   UNL     1     -10.506  12.705  67.399  1.00  0.00    -0.222 OA 
BRANCH   5   6
HETATM    6  C   UNL     1      -9.371  13.467  67.919  1.00  0.00    -0.216 C  
HETATM    7  C   UNL     1      -8.790  14.309  66.726  1.00  0.00    -0.207 C  
HETATM    8  C   UNL     1      -7.572  15.154  67.097  1.00  0.00    -0.204 C  
HETATM    9  C   UNL     1      -9.834  15.209  66.062  1.00  0.00    -0.349 C  
BRANCH   6  10
HETATM   10  O   UNL     1      -8.327  12.682  68.572  1.00  0.00    -0.141 OA 
BRANCH  10  11
HETATM   11  P   UNL     1      -7.902  11.232  67.871  1.00  0.00    -0.129 P  
HETATM   12  O   UNL     1      -7.068  11.949  66.782  1.00  0.00    -0.107 OA 
BRANCH  11  13
HETATM   13  C   UNL     1      -9.339  10.884  66.576  1.00  0.00    -0.173 C  
BRANCH  13  14
HETATM   14  C   UNL     1      -8.813  10.759  65.142  1.00  0.00    -0.199 C  
BRANCH  14  15
HETATM   15  C   UNL     1      -9.065   9.405  64.504  1.00  0.00    -0.205 C  
BRANCH  15  16
HETATM   16  C   UNL     1      -8.984   8.314  65.584  1.00  0.00    -0.157 C  
BRANCH  16  17
HETATM   17  C   UNL     1      -7.830   7.389  65.314  1.00  0.00    -0.121 A  
HETATM   18  C   UNL     1      -6.511   7.822  65.500  1.00  0.00    -0.042 A  
HETATM   19  C   UNL     1      -8.073   6.065  64.930  1.00  0.00    -0.133 A  
HETATM   20  C   UNL     1      -5.698   5.619  64.924  1.00  0.00    -0.017 A  
HETATM   21  C   UNL     1      -5.447   6.935  65.297  1.00  0.00    -0.027 A  
HETATM   22  C   UNL     1      -7.008   5.186  64.742  1.00  0.00    -0.050 A  
ENDBRANCH  16  17
ENDBRANCH  15  16
ENDBRANCH  14  15
ENDBRANCH  13  14
ENDBRANCH  11  13
BRANCH  11  23
HETATM   23  C   UNL     1      -8.887  10.385  69.159  1.00  0.00    -0.172 C  
BRANCH  23  24
HETATM   24  C   UNL     1      -8.396   8.966  69.501  1.00  0.00    -0.119 C  
HETATM   25  C   UNL     1      -8.774   6.562  70.103  1.00  0.00    -0.140 C  
HETATM   26  O   UNL     1      -7.189   8.765  69.690  1.00  0.00    -0.053 OA 
HETATM   27  N   UNL     1      -9.228   7.869  69.563  1.00  0.00    -0.153 N  
HETATM   28  C   UNL     1      -7.798   5.698  69.259  1.00  0.00    -0.089 C  
HETATM   29  O   UNL     1      -7.753   4.473  69.307  1.00  0.00    -0.055 OA 
HETATM   30  C   UNL     1     -10.514   7.687  68.920  1.00  0.00    -0.199 C  
HETATM   31  C   UNL     1     -11.229   6.575  69.709  1.00  0.00    -0.456 C  
HETATM   32  O   UNL     1      -6.888   6.398  68.547  1.00  0.00    -0.065 OA 
HETATM   33  C   UNL     1     -10.073   5.768  70.340  1.00  0.00    -0.271 C  
BRANCH  31  34
HETATM   34  C   UNL     1     -12.256   7.046  70.784  1.00  0.00    -0.343 C  
HETATM   35  C   UNL     1     -11.068   6.081  72.809  1.00  0.00    -0.305 C  
HETATM   36  C   UNL     1     -10.721   7.468  73.339  1.00  0.00    -0.387 C  
HETATM   37  C   UNL     1     -10.737   8.541  72.252  1.00  0.00    -0.411 C  
HETATM   38  C   UNL     1     -12.364   6.120  72.007  1.00  0.00    -0.113 C  
HETATM   39  C   UNL     1     -11.954   8.467  71.322  1.00  0.00    -0.334 C  
ENDBRANCH  31  34
ENDBRANCH  23  24
ENDBRANCH  11  23
ENDBRANCH  10  11
ENDBRANCH   6  10
ENDBRANCH   5   6
ENDBRANCH   3   5
ENDBRANCH   2   3
TORSDOF 13
ENDMDL
MODEL      268
REMARK 921   NORMALIZED FREE ENERGY PREDICTED BY IDOCK:   -2.44 KCAL/MOL
REMARK 922        TOTAL FREE ENERGY PREDICTED BY IDOCK:   -6.76 KCAL/MOL
REMARK 923 INTER-LIGAND FREE ENERGY PREDICTED BY IDOCK:   -7.56 KCAL/MOL
REMARK 924 INTRA-LIGAND FREE ENERGY PREDICTED BY IDOCK:    0.79 KCAL/MOL
REMARK 927      BINDING AFFINITY PREDICTED BY RF-SCORE:    0.00 PKD
ROOT
HETATM    1  C   UNL     1      -8.982  10.832  63.145  1.00  0.00    -0.239 C  
HETATM    2  C   UNL     1      -8.920   9.865  64.313  1.00  0.00    -0.278 C  
ENDROOT
BRANCH   2   3
HETATM    3  C   UNL     1      -7.552   9.571  64.924  1.00  0.00    -0.111 C  
HETATM    4  O   UNL     1      -6.632   9.086  64.274  1.00  0.00    -0.081 OA 
BRANCH   3   5
HETATM    5  O   UNL     1      -7.445  10.008  66.203  1.00  0.00    -0.101 OA 
BRANCH   5   6
HETATM    6  C   UNL     1      -8.308  11.107  66.635  1.00  0.00    -0.160 C  
HETATM    7  C   UNL     1      -7.519  11.919  67.725  1.00  0.00    -0.121 C  
HETATM    8  C   UNL     1      -8.296  13.101  68.303  1.00  0.00    -0.152 C  
HETATM    9  C   UNL     1      -6.156  12.413  67.235  1.00  0.00    -0.143 C  
BRANCH   6  10
HETATM   10  O   UNL     1      -9.632  10.722  67.116  1.00  0.00    -0.159 OA 
BRANCH  10  11
HETATM   11  P   UNL     1      -9.725   9.991  68.610  1.00  0.00    -0.174 P  
HETATM   12  O   UNL     1      -8.283   9.442  68.484  1.00  0.00    -0.111 OA 
BRANCH  11  13
HETATM   13  C   UNL     1     -10.462   8.209  68.228  1.00  0.00    -0.160 C  
BRANCH  13  14
HETATM   14  C   UNL     1     -11.073   7.553  69.471  1.00  0.00    -0.063 C  
BRANCH  14  15
HETATM   15  C   UNL     1     -10.934   6.041  69.506  1.00  0.00    -0.467 C  
BRANCH  15  16
HETATM   16  C   UNL     1      -9.504   5.674  69.933  1.00  0.00    -0.197 C  
BRANCH  16  17
HETATM   17  C   UNL     1      -8.801   4.928  68.834  1.00  0.00    -0.115 A  
HETATM   18  C   UNL     1      -9.393   3.803  68.245  1.00  0.00    -0.225 A  
HETATM   19  C   UNL     1      -7.572   5.392  68.351  1.00  0.00    -0.080 A  
HETATM   20  C   UNL     1      -7.537   3.621  66.707  1.00  0.00    -0.080 A  
HETATM   21  C   UNL     1      -8.754   3.148  67.186  1.00  0.00    -0.137 A  
HETATM   22  C   UNL     1      -6.948   4.740  67.288  1.00  0.00    -0.061 A  
ENDBRANCH  16  17
ENDBRANCH  15  16
ENDBRANCH  14  15
ENDBRANCH  13  14
ENDBRANCH  11  13
BRANCH  11  23
HETATM   23  C   UNL     1     -11.430  10.639  68.758  1.00  0.00    -0.262 C  
BRANCH  23  24
HETATM   24  C   UNL     1     -11.556  11.895  69.641  1.00  0.00    -0.317 C  
HETATM   25  C   UNL     1     -11.680  14.375  69.981  1.00  0.00    -0.298 C  
HETATM   26  O   UNL     1     -11.502  11.785  70.872  1.00  0.00     0.415 OA 
HETATM   27  N   UNL     1     -11.779  13.157  69.136  1.00  0.00    -0.307 N  
HETATM   28  C   UNL     1     -12.797  14.660  71.023  1.00  0.00    -0.348 C  
HETATM   29  O   UNL     1     -13.119  15.786  71.388  1.00  0.00    -0.493 OA 
HETATM   30  C   UNL     1     -12.375  13.518  67.865  1.00  0.00     0.061 C  
HETATM   31  C   UNL     1     -11.916  14.959  67.576  1.00  0.00    -0.158 C  
HETATM   32  O   UNL     1     -13.315  13.563  71.615  1.00  0.00    -0.363 OA 
HETATM   33  C   UNL     1     -11.621  15.541  68.975  1.00  0.00    -0.377 C  
BRANCH  31  34
HETATM   34  C   UNL     1     -10.695  15.113  66.618  1.00  0.00    -0.310 C  
HETATM   35  C   UNL     1     -11.013  12.942  65.341  1.00  0.00    -0.305 C  
HETATM   36  C   UNL     1     -11.399  13.681  64.065  1.00  0.00    -0.247 C  
HETATM   37  C   UNL     1     -11.901  15.100  64.327  1.00  0.00    -0.263 C  
HETATM   38  C   UNL     1     -10.059  13.782  66.182  1.00  0.00    -0.314 C  
HETATM   39  C   UNL     1     -11.042  15.890  65.323  1.00  0.00    -0.255 C  
ENDBRANCH  31  34
ENDBRANCH  23  24
ENDBRANCH  11  23
ENDBRANCH  10  11
ENDBRANCH   6  10
ENDBRANCH   5   6
ENDBRANCH   3   5
ENDBRANCH   2   3
TORSDOF 13
ENDMDL
MODEL      269
REMARK 921   NORMALIZED FREE ENERGY PREDICTED BY IDOCK:   -2.41 KCAL/MOL
REMARK 922        TOTAL FREE ENERGY PREDICTED BY IDOCK:   -6.70 KCAL/MOL
REMARK 923 INTER-LIGAND FREE ENERGY PREDICTED BY IDOCK:   -7.38 KCAL/MOL
REMARK 924 INTRA-LIGAND FREE ENERGY PREDICTED BY IDOCK:    0.68 KCAL/MOL
REMARK 927      BINDING AFFINITY PREDICTED BY RF-SCORE:    0.00 PKD
ROOT
HETATM    1  C   UNL     1     -11.550  16.025  71.107  1.00  0.00    -0.492 C  
HETATM    2  C   UNL     1     -11.150  14.999  70.062  1.00  0.00    -0.290 C  
ENDROOT
BRANCH   2   3
HETATM    3  C   UNL     1     -10.651  15.513  68.714  1.00  0.00    -0.242 C  
HETATM    4  O   UNL     1     -11.002  16.592  68.249  1.00  0.00    -0.350 OA 
BRANCH   3   5
HETATM    5  O   UNL     1      -9.708  14.709  68.163  1.00  0.00    -0.210 OA 
BRANCH   5   6
HETATM    6  C   UNL     1     -10.108  13.372  67.725  1.00  0.00    -0.232 C  
HETATM    7  C   UNL     1     -11.215  13.553  66.624  1.00  0.00    -0.328 C  
HETATM    8  C   UNL     1     -11.763  12.239  66.070  1.00  0.00    -0.451 C  
HETATM    9  C   UNL     1     -10.761  14.432  65.457  1.00  0.00    -0.344 C  
BRANCH   6  10
HETATM   10  O   UNL     1     -10.553  12.465  68.780  1.00  0.00    -0.227 OA 
BRANCH  10  11
HETATM   11  P   UNL     1     -11.076  10.951  68.323  1.00  0.00    -0.311 P  
HETATM   12  O   UNL     1     -12.560  11.362  68.485  1.00  0.00    -0.205 OA 
BRANCH  11  13
HETATM   13  C   UNL     1     -11.147   9.938  70.006  1.00  0.00    -0.285 C  
BRANCH  13  14
HETATM   14  C   UNL     1     -10.090   8.830  70.064  1.00  0.00    -0.200 C  
BRANCH  14  15
HETATM   15  C   UNL     1     -10.145   7.985  71.324  1.00  0.00    -0.222 C  
BRANCH  15  16
HETATM   16  C   UNL     1     -10.578   6.556  70.958  1.00  0.00    -0.275 C  
BRANCH  16  17
HETATM   17  C   UNL     1      -9.413   5.612  71.049  1.00  0.00    -0.200 A  
HETATM   18  C   UNL     1      -8.189   6.039  71.582  1.00  0.00    -0.119 A  
HETATM   19  C   UNL     1      -9.564   4.277  70.657  1.00  0.00    -0.260 A  
HETATM   20  C   UNL     1      -7.289   3.810  71.326  1.00  0.00    -0.040 A  
HETATM   21  C   UNL     1      -7.127   5.137  71.712  1.00  0.00    -0.074 A  
HETATM   22  C   UNL     1      -8.505   3.382  70.801  1.00  0.00    -0.103 A  
ENDBRANCH  16  17
ENDBRANCH  15  16
ENDBRANCH  14  15
ENDBRANCH  13  14
ENDBRANCH  11  13
BRANCH  11  23
HETATM   23  C   UNL     1      -9.322  10.465  68.131  1.00  0.00    -0.145 C  
BRANCH  23  24
HETATM   24  C   UNL     1      -8.900  10.179  66.677  1.00  0.00    -0.132 C  
HETATM   25  C   UNL     1      -8.272   8.639  64.803  1.00  0.00    -0.160 C  
HETATM   26  O   UNL     1      -8.599  11.120  65.931  1.00  0.00    -0.175 OA 
HETATM   27  N   UNL     1      -8.885   8.916  66.127  1.00  0.00    -0.151 N  
HETATM   28  C   UNL     1      -9.002   9.123  63.520  1.00  0.00     0.059 C  
HETATM   29  O   UNL     1      -8.918   8.562  62.432  1.00  0.00    -0.069 OA 
HETATM   30  C   UNL     1      -9.635   7.749  66.547  1.00  0.00    -0.201 C  
HETATM   31  C   UNL     1      -8.884   6.534  65.975  1.00  0.00    -0.154 C  
HETATM   32  O   UNL     1      -9.648  10.303  63.644  1.00  0.00    -0.292 OA 
HETATM   33  C   UNL     1      -8.132   7.105  64.754  1.00  0.00    -0.092 C  
BRANCH  31  34
HETATM   34  C   UNL     1      -7.918   5.798  66.954  1.00  0.00    -0.102 C  
HETATM   35  C   UNL     1      -8.038   3.508  65.864  1.00  0.00    -0.093 C  
HETATM   36  C   UNL     1      -6.593   3.595  65.388  1.00  0.00    -0.037 C  
HETATM   37  C   UNL     1      -6.079   5.031  65.301  1.00  0.00    -0.030 C  
HETATM   38  C   UNL     1      -8.230   4.305  67.150  1.00  0.00    -0.100 C  
HETATM   39  C   UNL     1      -6.434   5.894  66.519  1.00  0.00    -0.047 C  
ENDBRANCH  31  34
ENDBRANCH  23  24
ENDBRANCH  11  23
ENDBRANCH  10  11
ENDBRANCH   6  10
ENDBRANCH   5   6
ENDBRANCH   3   5
ENDBRANCH   2   3
TORSDOF 13
ENDMDL
MODEL      270
REMARK 921   NORMALIZED FREE ENERGY PREDICTED BY IDOCK:   -2.40 KCAL/MOL
REMARK 922        TOTAL FREE ENERGY PREDICTED BY IDOCK:   -6.68 KCAL/MOL
REMARK 923 INTER-LIGAND FREE ENERGY PREDICTED BY IDOCK:   -7.41 KCAL/MOL
REMARK 924 INTRA-LIGAND FREE ENERGY PREDICTED BY IDOCK:    0.73 KCAL/MOL
REMARK 927      BINDING AFFINITY PREDICTED BY RF-SCORE:    0.00 PKD
ROOT
HETATM    1  C   UNL     1     -12.498  14.577  64.501  1.00  0.00    -0.346 C  
HETATM    2  C   UNL     1     -11.705  13.479  65.186  1.00  0.00    -0.341 C  
ENDROOT
BRANCH   2   3
HETATM    3  C   UNL     1     -10.588  13.895  66.140  1.00  0.00    -0.291 C  
HETATM    4  O   UNL     1      -9.482  14.249  65.743  1.00  0.00    -0.203 OA 
BRANCH   3   5
HETATM    5  O   UNL     1     -10.991  13.937  67.433  1.00  0.00    -0.280 OA 
BRANCH   5   6
HETATM    6  C   UNL     1     -11.741  12.798  67.962  1.00  0.00    -0.356 C  
HETATM    7  C   UNL     1     -11.790  12.958  69.526  1.00  0.00    -0.383 C  
HETATM    8  C   UNL     1     -12.526  11.828  70.244  1.00  0.00    -0.237 C  
HETATM    9  C   UNL     1     -12.380  14.297  69.974  1.00  0.00    -0.403 C  
BRANCH   6  10
HETATM   10  O   UNL     1     -11.245  11.479  67.580  1.00  0.00    -0.260 OA 
BRANCH  10  11
HETATM   11  P   UNL     1      -9.844  10.944  68.305  1.00  0.00    -0.183 P  
HETATM   12  O   UNL     1      -9.336  12.393  68.501  1.00  0.00    -0.178 OA 
BRANCH  11  13
HETATM   13  C   UNL     1      -8.597  10.684  66.808  1.00  0.00    -0.129 C  
BRANCH  13  14
HETATM   14  C   UNL     1      -7.335   9.921  67.227  1.00  0.00    -0.087 C  
BRANCH  14  15
HETATM   15  C   UNL     1      -6.553  10.584  68.347  1.00  0.00    -0.055 C  
BRANCH  15  16
HETATM   16  C   UNL     1      -5.691  11.714  67.762  1.00  0.00    -0.053 C  
BRANCH  16  17
HETATM   17  C   UNL     1      -5.994  13.017  68.447  1.00  0.00    -0.077 A  
HETATM   18  C   UNL     1      -6.483  14.109  67.717  1.00  0.00    -0.181 A  
HETATM   19  C   UNL     1      -5.845  13.127  69.834  1.00  0.00    -0.133 A  
HETATM   20  C   UNL     1      -6.669  15.398  69.754  1.00  0.00    -0.170 A  
HETATM   21  C   UNL     1      -6.812  15.300  68.375  1.00  0.00    -0.112 A  
HETATM   22  C   UNL     1      -6.187  14.313  70.482  1.00  0.00    -0.157 A  
ENDBRANCH  16  17
ENDBRANCH  15  16
ENDBRANCH  14  15
ENDBRANCH  13  14
ENDBRANCH  11  13
BRANCH  11  23
HETATM   23  C   UNL     1     -10.445   9.231  68.073  1.00  0.00    -0.223 C  
BRANCH  23  24
HETATM   24  C   UNL     1     -10.557   8.417  69.375  1.00  0.00    -0.197 C  
HETATM   25  C   UNL     1      -9.900   6.527  70.884  1.00  0.00    -0.183 C  
HETATM   26  O   UNL     1     -11.469   8.665  70.175  1.00  0.00    -0.158 OA 
HETATM   27  N   UNL     1      -9.655   7.442  69.740  1.00  0.00    -0.163 N  
HETATM   28  C   UNL     1      -9.789   7.085  72.330  1.00  0.00    -0.153 C  
HETATM   29  O   UNL     1      -9.462   6.409  73.300  1.00  0.00    -0.138 OA 
HETATM   30  C   UNL     1      -8.280   7.291  69.308  1.00  0.00    -0.131 C  
HETATM   31  C   UNL     1      -7.912   5.819  69.570  1.00  0.00    -0.097 C  
HETATM   32  O   UNL     1     -10.213   8.358  72.482  1.00  0.00    -0.306 OA 
HETATM   33  C   UNL     1      -8.872   5.394  70.702  1.00  0.00    -0.145 C  
BRANCH  31  34
HETATM   34  C   UNL     1      -8.006   4.859  68.344  1.00  0.00    -0.085 C  
HETATM   35  C   UNL     1     -10.487   5.154  67.894  1.00  0.00    -0.100 C  
HETATM   36  C   UNL     1     -10.221   5.894  66.588  1.00  0.00    -0.258 C  
HETATM   37  C   UNL     1      -8.825   6.510  66.526  1.00  0.00    -0.142 C  
HETATM   38  C   UNL     1      -9.368   4.161  68.187  1.00  0.00    -0.212 C  
HETATM   39  C   UNL     1      -7.709   5.571  67.000  1.00  0.00    -0.100 C  
ENDBRANCH  31  34
ENDBRANCH  23  24
ENDBRANCH  11  23
ENDBRANCH  10  11
ENDBRANCH   6  10
ENDBRANCH   5   6
ENDBRANCH   3   5
ENDBRANCH   2   3
TORSDOF 13
ENDMDL
MODEL      271
REMARK 921   NORMALIZED FREE ENERGY PREDICTED BY IDOCK:   -2.39 KCAL/MOL
REMARK 922        TOTAL FREE ENERGY PREDICTED BY IDOCK:   -6.67 KCAL/MOL
REMARK 923 INTER-LIGAND FREE ENERGY PREDICTED BY IDOCK:   -6.31 KCAL/MOL
REMARK 924 INTRA-LIGAND FREE ENERGY PREDICTED BY IDOCK:   -0.36 KCAL/MOL
REMARK 927      BINDING AFFINITY PREDICTED BY RF-SCORE:    0.00 PKD
ROOT
HETATM    1  C   UNL     1      -5.766   8.474  72.569  1.00  0.00    -0.061 C  
HETATM    2  C   UNL     1      -6.303   8.032  71.221  1.00  0.00    -0.035 C  
ENDROOT
BRANCH   2   3
HETATM    3  C   UNL     1      -7.540   8.743  70.678  1.00  0.00    -0.090 C  
HETATM    4  O   UNL     1      -8.043   9.711  71.239  1.00  0.00    -0.211 OA 
BRANCH   3   5
HETATM    5  O   UNL     1      -7.934   8.262  69.473  1.00  0.00    -0.107 OA 
BRANCH   5   6
HETATM    6  C   UNL     1      -7.299   8.802  68.270  1.00  0.00    -0.087 C  
HETATM    7  C   UNL     1      -6.025   7.927  67.982  1.00  0.00    -0.041 C  
HETATM    8  C   UNL     1      -5.227   8.376  66.760  1.00  0.00    -0.032 C  
HETATM    9  C   UNL     1      -6.340   6.436  67.850  1.00  0.00    -0.040 C  
BRANCH   6  10
HETATM   10  O   UNL     1      -6.968  10.224  68.312  1.00  0.00    -0.072 OA 
BRANCH  10  11
HETATM   11  P   UNL     1      -6.869  11.034  66.860  1.00  0.00    -0.138 P  
HETATM   12  O   UNL     1      -5.422  11.494  67.161  1.00  0.00    -0.066 OA 
BRANCH  11  13
HETATM   13  C   UNL     1      -7.551  12.832  67.265  1.00  0.00    -0.112 C  
BRANCH  13  14
HETATM   14  C   UNL     1      -7.102  13.328  68.643  1.00  0.00    -0.103 C  
BRANCH  14  15
HETATM   15  C   UNL     1      -6.633  14.772  68.661  1.00  0.00    -0.084 C  
BRANCH  15  16
HETATM   16  C   UNL     1      -7.230  15.513  67.453  1.00  0.00    -0.241 C  
BRANCH  16  17
HETATM   17  C   UNL     1      -7.615  16.915  67.831  1.00  0.00    -0.179 A  
HETATM   18  C   UNL     1      -6.870  17.627  68.781  1.00  0.00    -0.235 A  
HETATM   19  C   UNL     1      -8.689  17.541  67.188  1.00  0.00    -0.247 A  
HETATM   20  C   UNL     1      -8.269  19.568  68.436  1.00  0.00    -0.379 A  
HETATM   21  C   UNL     1      -7.205  18.952  69.086  1.00  0.00    -0.283 A  
HETATM   22  C   UNL     1      -9.008  18.865  67.490  1.00  0.00    -0.308 A  
ENDBRANCH  16  17
ENDBRANCH  15  16
ENDBRANCH  14  15
ENDBRANCH  13  14
ENDBRANCH  11  13
BRANCH  11  23
HETATM   23  C   UNL     1      -8.579  10.489  66.504  1.00  0.00    -0.137 C  
BRANCH  23  24
HETATM   24  C   UNL     1      -9.642  11.591  66.673  1.00  0.00    -0.197 C  
HETATM   25  C   UNL     1     -11.588  12.647  67.848  1.00  0.00    -0.349 C  
HETATM   26  O   UNL     1      -9.785  12.445  65.788  1.00  0.00    -0.248 OA 
HETATM   27  N   UNL     1     -10.429  11.720  67.796  1.00  0.00    -0.190 N  
HETATM   28  C   UNL     1     -11.323  14.176  67.933  1.00  0.00    -0.294 C  
HETATM   29  O   UNL     1     -12.084  14.972  68.474  1.00  0.00    -0.257 OA 
HETATM   30  C   UNL     1     -10.159  11.235  69.136  1.00  0.00    -0.069 C  
HETATM   31  C   UNL     1     -11.523  11.168  69.846  1.00  0.00    -0.386 C  
HETATM   32  O   UNL     1     -10.245  14.605  67.243  1.00  0.00    -0.239 OA 
HETATM   33  C   UNL     1     -12.384  12.205  69.091  1.00  0.00     0.091 C  
BRANCH  31  34
HETATM   34  C   UNL     1     -12.210   9.768  69.885  1.00  0.00     0.231 C  
HETATM   35  C   UNL     1     -10.969   8.858  71.904  1.00  0.00    -0.439 C  
HETATM   36  C   UNL     1     -12.229   8.883  72.762  1.00  0.00     0.027 C  
HETATM   37  C   UNL     1     -13.288   9.849  72.237  1.00  0.00    -0.429 C  
HETATM   38  C   UNL     1     -11.321   8.641  70.437  1.00  0.00    -0.203 C  
HETATM   39  C   UNL     1     -13.514   9.763  70.722  1.00  0.00    -0.070 C  
ENDBRANCH  31  34
ENDBRANCH  23  24
ENDBRANCH  11  23
ENDBRANCH  10  11
ENDBRANCH   6  10
ENDBRANCH   5   6
ENDBRANCH   3   5
ENDBRANCH   2   3
TORSDOF 13
ENDMDL
MODEL      272
REMARK 921   NORMALIZED FREE ENERGY PREDICTED BY IDOCK:   -2.34 KCAL/MOL
REMARK 922        TOTAL FREE ENERGY PREDICTED BY IDOCK:   -6.58 KCAL/MOL
REMARK 923 INTER-LIGAND FREE ENERGY PREDICTED BY IDOCK:   -6.22 KCAL/MOL
REMARK 924 INTRA-LIGAND FREE ENERGY PREDICTED BY IDOCK:   -0.36 KCAL/MOL
REMARK 927      BINDING AFFINITY PREDICTED BY RF-SCORE:    0.00 PKD
ROOT
HETATM    1  C   UNL     1     -11.779  12.316  66.547  1.00  0.00    -0.420 C  
HETATM    2  C   UNL     1     -10.935  11.903  67.739  1.00  0.00    -0.278 C  
ENDROOT
BRANCH   2   3
HETATM    3  C   UNL     1     -10.893  10.422  68.105  1.00  0.00    -0.264 C  
HETATM    4  O   UNL     1     -10.786   9.538  67.260  1.00  0.00    -0.263 OA 
BRANCH   3   5
HETATM    5  O   UNL     1     -10.871  10.214  69.444  1.00  0.00    -0.214 OA 
BRANCH   5   6
HETATM    6  C   UNL     1     -12.098   9.758  70.095  1.00  0.00     0.046 C  
HETATM    7  C   UNL     1     -12.390  10.745  71.284  1.00  0.00    -0.470 C  
HETATM    8  C   UNL     1     -13.640  10.394  72.090  1.00  0.00    -0.202 C  
HETATM    9  C   UNL     1     -12.480  12.206  70.840  1.00  0.00    -0.374 C  
BRANCH   6  10
HETATM   10  O   UNL     1     -12.098   8.369  70.548  1.00  0.00    -0.059 OA 
BRANCH  10  11
HETATM   11  P   UNL     1     -10.708   7.793  71.263  1.00  0.00    -0.234 P  
HETATM   12  O   UNL     1     -11.093   8.418  72.626  1.00  0.00    -0.359 OA 
BRANCH  11  13
HETATM   13  C   UNL     1      -9.385   9.215  70.957  1.00  0.00    -0.263 C  
BRANCH  13  14
HETATM   14  C   UNL     1      -8.189   8.730  70.131  1.00  0.00    -0.117 C  
BRANCH  14  15
HETATM   15  C   UNL     1      -7.059   9.738  70.024  1.00  0.00    -0.118 C  
BRANCH  15  16
HETATM   16  C   UNL     1      -7.082  10.378  68.626  1.00  0.00    -0.076 C  
BRANCH  16  17
HETATM   17  C   UNL     1      -7.021  11.876  68.731  1.00  0.00    -0.104 A  
HETATM   18  C   UNL     1      -6.285  12.490  69.753  1.00  0.00    -0.113 A  
HETATM   19  C   UNL     1      -7.653  12.668  67.765  1.00  0.00    -0.141 A  
HETATM   20  C   UNL     1      -6.816  14.664  68.840  1.00  0.00    -0.104 A  
HETATM   21  C   UNL     1      -6.191  13.885  69.808  1.00  0.00    -0.136 A  
HETATM   22  C   UNL     1      -7.544  14.057  67.821  1.00  0.00    -0.177 A  
ENDBRANCH  16  17
ENDBRANCH  15  16
ENDBRANCH  14  15
ENDBRANCH  13  14
ENDBRANCH  11  13
BRANCH  11  23
HETATM   23  C   UNL     1     -10.252   7.054  69.652  1.00  0.00    -0.202 C  
BRANCH  23  24
HETATM   24  C   UNL     1     -10.018   5.533  69.696  1.00  0.00    -0.214 C  
HETATM   25  C   UNL     1      -9.364   3.348  68.656  1.00  0.00    -0.167 C  
HETATM   26  O   UNL     1     -10.366   4.890  70.695  1.00  0.00    -0.228 OA 
HETATM   27  N   UNL     1      -9.385   4.833  68.693  1.00  0.00    -0.128 N  
HETATM   28  C   UNL     1      -8.468   2.584  69.670  1.00  0.00    -0.051 C  
HETATM   29  O   UNL     1      -7.967   1.488  69.447  1.00  0.00    -0.045 OA 
HETATM   30  C   UNL     1      -8.455   5.337  67.702  1.00  0.00    -0.105 C  
HETATM   31  C   UNL     1      -8.469   4.318  66.549  1.00  0.00    -0.108 C  
HETATM   32  O   UNL     1      -8.380   3.154  70.891  1.00  0.00    -0.062 OA 
HETATM   33  C   UNL     1      -8.912   3.002  67.224  1.00  0.00    -0.184 C  
BRANCH  31  34
HETATM   34  C   UNL     1      -9.374   4.672  65.329  1.00  0.00    -0.159 C  
HETATM   35  C   UNL     1      -7.543   5.589  63.827  1.00  0.00    -0.072 C  
HETATM   36  C   UNL     1      -7.663   4.412  62.865  1.00  0.00    -0.065 C  
HETATM   37  C   UNL     1      -8.297   3.180  63.507  1.00  0.00    -0.086 C  
HETATM   38  C   UNL     1      -8.881   5.871  64.501  1.00  0.00     0.259 C  
HETATM   39  C   UNL     1      -9.545   3.487  64.344  1.00  0.00    -0.162 C  
ENDBRANCH  31  34
ENDBRANCH  23  24
ENDBRANCH  11  23
ENDBRANCH  10  11
ENDBRANCH   6  10
ENDBRANCH   5   6
ENDBRANCH   3   5
ENDBRANCH   2   3
TORSDOF 13
ENDMDL
MODEL      273
REMARK 921   NORMALIZED FREE ENERGY PREDICTED BY IDOCK:   -2.33 KCAL/MOL
REMARK 922        TOTAL FREE ENERGY PREDICTED BY IDOCK:   -6.57 KCAL/MOL
REMARK 923 INTER-LIGAND FREE ENERGY PREDICTED BY IDOCK:   -6.73 KCAL/MOL
REMARK 924 INTRA-LIGAND FREE ENERGY PREDICTED BY IDOCK:    0.16 KCAL/MOL
REMARK 927      BINDING AFFINITY PREDICTED BY RF-SCORE:    0.00 PKD
ROOT
HETATM    1  C   UNL     1      -6.843   6.648  65.188  1.00  0.00    -0.050 C  
HETATM    2  C   UNL     1      -7.675   7.601  66.027  1.00  0.00    -0.090 C  
ENDROOT
BRANCH   2   3
HETATM    3  C   UNL     1      -8.571   8.598  65.296  1.00  0.00    -0.180 C  
HETATM    4  O   UNL     1      -8.173   9.270  64.350  1.00  0.00    -0.133 OA 
BRANCH   3   5
HETATM    5  O   UNL     1      -9.854   8.565  65.731  1.00  0.00    -0.070 OA 
BRANCH   5   6
HETATM    6  C   UNL     1     -10.107   8.178  67.118  1.00  0.00    -0.264 C  
HETATM    7  C   UNL     1     -10.883   6.811  67.088  1.00  0.00    -0.462 C  
HETATM    8  C   UNL     1     -11.247   6.272  68.470  1.00  0.00    -0.305 C  
HETATM    9  C   UNL     1     -10.145   5.720  66.308  1.00  0.00    -0.129 C  
BRANCH   6  10
HETATM   10  O   UNL     1     -10.806   9.166  67.935  1.00  0.00    -0.196 OA 
BRANCH  10  11
HETATM   11  P   UNL     1     -10.427  10.770  67.694  1.00  0.00    -0.251 P  
HETATM   12  O   UNL     1     -10.604  10.631  66.162  1.00  0.00    -0.219 OA 
BRANCH  11  13
HETATM   13  C   UNL     1      -8.471  10.777  67.491  1.00  0.00    -0.119 C  
BRANCH  13  14
HETATM   14  C   UNL     1      -7.950  12.104  66.928  1.00  0.00    -0.089 C  
BRANCH  14  15
HETATM   15  C   UNL     1      -7.753  13.187  67.973  1.00  0.00    -0.146 C  
BRANCH  15  16
HETATM   16  C   UNL     1      -8.228  14.533  67.403  1.00  0.00    -0.220 C  
BRANCH  16  17
HETATM   17  C   UNL     1      -9.531  14.942  68.031  1.00  0.00    -0.198 A  
HETATM   18  C   UNL     1     -10.677  15.117  67.245  1.00  0.00    -0.305 A  
HETATM   19  C   UNL     1      -9.618  15.091  69.420  1.00  0.00    -0.145 A  
HETATM   20  C   UNL     1     -11.977  15.584  69.229  1.00  0.00    -0.338 A  
HETATM   21  C   UNL     1     -11.897  15.446  67.848  1.00  0.00    -0.090 A  
HETATM   22  C   UNL     1     -10.840  15.407  70.013  1.00  0.00    -0.320 A  
ENDBRANCH  16  17
ENDBRANCH  15  16
ENDBRANCH  14  15
ENDBRANCH  13  14
ENDBRANCH  11  13
BRANCH  11  23
HETATM   23  C   UNL     1     -10.217  10.935  69.504  1.00  0.00    -0.062 C  
BRANCH  23  24
HETATM   24  C   UNL     1     -10.659   9.697  70.308  1.00  0.00    -0.278 C  
HETATM   25  C   UNL     1     -10.235   7.476  71.388  1.00  0.00    -0.186 C  
HETATM   26  O   UNL     1     -11.857   9.533  70.569  1.00  0.00    -0.256 OA 
HETATM   27  N   UNL     1      -9.777   8.765  70.809  1.00  0.00    -0.192 N  
HETATM   28  C   UNL     1     -10.927   7.480  72.780  1.00  0.00    -0.359 C  
HETATM   29  O   UNL     1     -10.884   6.541  73.567  1.00  0.00    -0.272 OA 
HETATM   30  C   UNL     1      -8.369   8.937  71.109  1.00  0.00    -0.183 C  
HETATM   31  C   UNL     1      -7.763   7.522  71.126  1.00  0.00    -0.089 C  
HETATM   32  O   UNL     1     -11.707   8.555  73.023  1.00  0.00    -0.137 OA 
HETATM   33  C   UNL     1      -8.962   6.610  71.462  1.00  0.00    -0.139 C  
BRANCH  31  34
HETATM   34  C   UNL     1      -7.042   7.068  69.820  1.00  0.00    -0.067 C  
HETATM   35  C   UNL     1      -5.300   5.581  70.915  1.00  0.00    -0.009 C  
HETATM   36  C   UNL     1      -5.934   4.318  70.342  1.00  0.00    -0.017 C  
HETATM   37  C   UNL     1      -7.400   4.508  69.961  1.00  0.00    -0.053 C  
HETATM   38  C   UNL     1      -5.543   6.771  69.994  1.00  0.00    -0.019 C  
HETATM   39  C   UNL     1      -7.680   5.804  69.190  1.00  0.00    -0.090 C  
ENDBRANCH  31  34
ENDBRANCH  23  24
ENDBRANCH  11  23
ENDBRANCH  10  11
ENDBRANCH   6  10
ENDBRANCH   5   6
ENDBRANCH   3   5
ENDBRANCH   2   3
TORSDOF 13
ENDMDL
MODEL      274
REMARK 921   NORMALIZED FREE ENERGY PREDICTED BY IDOCK:   -2.33 KCAL/MOL
REMARK 922        TOTAL FREE ENERGY PREDICTED BY IDOCK:   -6.57 KCAL/MOL
REMARK 923 INTER-LIGAND FREE ENERGY PREDICTED BY IDOCK:   -6.00 KCAL/MOL
REMARK 924 INTRA-LIGAND FREE ENERGY PREDICTED BY IDOCK:   -0.57 KCAL/MOL
REMARK 927      BINDING AFFINITY PREDICTED BY RF-SCORE:    0.00 PKD
ROOT
HETATM    1  C   UNL     1      -6.071   9.807  64.439  1.00  0.00    -0.104 C  
HETATM    2  C   UNL     1      -6.545   8.631  65.274  1.00  0.00    -0.064 C  
ENDROOT
BRANCH   2   3
HETATM    3  C   UNL     1      -7.411   7.575  64.593  1.00  0.00    -0.078 C  
HETATM    4  O   UNL     1      -7.670   7.610  63.394  1.00  0.00    -0.118 OA 
BRANCH   3   5
HETATM    5  O   UNL     1      -7.750   6.560  65.424  1.00  0.00    -0.087 OA 
BRANCH   5   6
HETATM    6  C   UNL     1      -7.253   6.595  66.799  1.00  0.00    -0.077 C  
HETATM    7  C   UNL     1      -6.736   5.151  67.145  1.00  0.00    -0.055 C  
HETATM    8  C   UNL     1      -6.198   5.008  68.569  1.00  0.00    -0.031 C  
HETATM    9  C   UNL     1      -5.680   4.641  66.163  1.00  0.00    -0.022 C  
BRANCH   6  10
HETATM   10  O   UNL     1      -8.200   7.073  67.803  1.00  0.00    -0.113 OA 
BRANCH  10  11
HETATM   11  P   UNL     1      -9.608   6.207  68.008  1.00  0.00    -0.121 P  
HETATM   12  O   UNL     1      -9.424   5.496  66.645  1.00  0.00    -0.134 OA 
BRANCH  11  13
HETATM   13  C   UNL     1     -11.000   7.365  67.243  1.00  0.00    -0.164 C  
BRANCH  13  14
HETATM   14  C   UNL     1     -10.454   8.736  66.829  1.00  0.00    -0.283 C  
BRANCH  14  15
HETATM   15  C   UNL     1     -10.640   9.820  67.876  1.00  0.00    -0.310 C  
BRANCH  15  16
HETATM   16  C   UNL     1     -11.371  11.015  67.244  1.00  0.00    -0.265 C  
BRANCH  16  17
HETATM   17  C   UNL     1     -10.904  11.233  65.833  1.00  0.00    -0.264 A  
HETATM   18  C   UNL     1     -11.417  12.288  65.067  1.00  0.00    -0.386 A  
HETATM   19  C   UNL     1      -9.903  10.415  65.295  1.00  0.00    -0.361 A  
HETATM   20  C   UNL     1      -9.935  11.702  63.249  1.00  0.00    -0.442 A  
HETATM   21  C   UNL     1     -10.935  12.514  63.772  1.00  0.00    -0.496 A  
HETATM   22  C   UNL     1      -9.420  10.655  64.009  1.00  0.00    -0.329 A  
ENDBRANCH  16  17
ENDBRANCH  15  16
ENDBRANCH  14  15
ENDBRANCH  13  14
ENDBRANCH  11  13
BRANCH  11  23
HETATM   23  C   UNL     1      -9.825   7.048  69.618  1.00  0.00    -0.164 C  
BRANCH  23  24
HETATM   24  C   UNL     1      -8.539   7.146  70.460  1.00  0.00    -0.144 C  
HETATM   25  C   UNL     1      -6.439   8.301  71.193  1.00  0.00    -0.041 C  
HETATM   26  O   UNL     1      -8.170   6.172  71.129  1.00  0.00    -0.119 OA 
HETATM   27  N   UNL     1      -7.781   8.292  70.557  1.00  0.00    -0.078 N  
HETATM   28  C   UNL     1      -6.339   8.177  72.739  1.00  0.00    -0.080 C  
HETATM   29  O   UNL     1      -5.431   8.662  73.406  1.00  0.00    -0.074 OA 
HETATM   30  C   UNL     1      -8.201   9.662  70.335  1.00  0.00    -0.160 C  
HETATM   31  C   UNL     1      -6.915  10.460  70.055  1.00  0.00    -0.159 C  
HETATM   32  O   UNL     1      -7.263   7.372  73.305  1.00  0.00    -0.071 OA 
HETATM   33  C   UNL     1      -5.811   9.638  70.754  1.00  0.00    -0.072 C  
BRANCH  31  34
HETATM   34  C   UNL     1      -6.579  10.717  68.554  1.00  0.00    -0.055 C  
HETATM   35  C   UNL     1      -7.710  12.981  68.355  1.00  0.00    -0.137 C  
HETATM   36  C   UNL     1      -6.374  13.700  68.202  1.00  0.00    -0.123 C  
HETATM   37  C   UNL     1      -5.199  12.898  68.757  1.00  0.00    -0.067 C  
HETATM   38  C   UNL     1      -7.624  11.562  67.805  1.00  0.00    -0.111 C  
HETATM   39  C   UNL     1      -5.210  11.418  68.357  1.00  0.00    -0.039 C  
ENDBRANCH  31  34
ENDBRANCH  23  24
ENDBRANCH  11  23
ENDBRANCH  10  11
ENDBRANCH   6  10
ENDBRANCH   5   6
ENDBRANCH   3   5
ENDBRANCH   2   3
TORSDOF 13
ENDMDL
MODEL      275
REMARK 921   NORMALIZED FREE ENERGY PREDICTED BY IDOCK:   -2.32 KCAL/MOL
REMARK 922        TOTAL FREE ENERGY PREDICTED BY IDOCK:   -6.54 KCAL/MOL
REMARK 923 INTER-LIGAND FREE ENERGY PREDICTED BY IDOCK:   -9.21 KCAL/MOL
REMARK 924 INTRA-LIGAND FREE ENERGY PREDICTED BY IDOCK:    2.67 KCAL/MOL
REMARK 927      BINDING AFFINITY PREDICTED BY RF-SCORE:    0.00 PKD
ROOT
HETATM    1  C   UNL     1     -10.637  20.047  68.674  1.00  0.00    -0.069 C  
HETATM    2  C   UNL     1     -10.491  18.974  67.610  1.00  0.00    -0.523 C  
ENDROOT
BRANCH   2   3
HETATM    3  C   UNL     1      -9.093  18.694  67.067  1.00  0.00    -0.291 C  
HETATM    4  O   UNL     1      -8.874  18.518  65.873  1.00  0.00    -0.482 OA 
BRANCH   3   5
HETATM    5  O   UNL     1      -8.133  18.780  68.021  1.00  0.00    -0.268 OA 
BRANCH   5   6
HETATM    6  C   UNL     1      -7.452  17.552  68.431  1.00  0.00    -0.247 C  
HETATM    7  C   UNL     1      -6.958  16.834  67.122  1.00  0.00    -0.226 C  
HETATM    8  C   UNL     1      -6.238  15.510  67.374  1.00  0.00    -0.072 C  
HETATM    9  C   UNL     1      -6.071  17.723  66.248  1.00  0.00    -0.255 C  
BRANCH   6  10
HETATM   10  O   UNL     1      -8.229  16.646  69.272  1.00  0.00    -0.183 OA 
BRANCH  10  11
HETATM   11  P   UNL     1      -8.947  15.337  68.534  1.00  0.00    -0.207 P  
HETATM   12  O   UNL     1      -9.953  16.248  67.790  1.00  0.00    -0.239 OA 
BRANCH  11  13
HETATM   13  C   UNL     1     -10.348  14.782  69.797  1.00  0.00    -0.012 C  
BRANCH  13  14
HETATM   14  C   UNL     1     -11.456  13.970  69.117  1.00  0.00    -0.340 C  
BRANCH  14  15
HETATM   15  C   UNL     1     -12.036  12.865  69.982  1.00  0.00    -0.380 C  
BRANCH  15  16
HETATM   16  C   UNL     1     -11.697  11.502  69.357  1.00  0.00    -0.413 C  
BRANCH  16  17
HETATM   17  C   UNL     1     -11.798  10.411  70.385  1.00  0.00    -0.418 A  
HETATM   18  C   UNL     1     -10.662   9.688  70.770  1.00  0.00    -0.401 A  
HETATM   19  C   UNL     1     -13.024  10.151  71.009  1.00  0.00    -0.473 A  
HETATM   20  C   UNL     1     -11.977   8.464  72.387  1.00  0.00    -0.451 A  
HETATM   21  C   UNL     1     -10.757   8.710  71.767  1.00  0.00    -0.392 A  
HETATM   22  C   UNL     1     -13.107   9.183  72.009  1.00  0.00    -0.497 A  
ENDBRANCH  16  17
ENDBRANCH  15  16
ENDBRANCH  14  15
ENDBRANCH  13  14
ENDBRANCH  11  13
BRANCH  11  23
HETATM   23  C   UNL     1      -7.758  14.259  69.413  1.00  0.00     0.126 C  
BRANCH  23  24
HETATM   24  C   UNL     1      -7.765  12.793  68.943  1.00  0.00     0.096 C  
HETATM   25  C   UNL     1      -8.549  10.935  67.454  1.00  0.00    -0.127 C  
HETATM   26  O   UNL     1      -7.166  11.935  69.604  1.00  0.00     0.102 OA 
HETATM   27  N   UNL     1      -8.367  12.373  67.777  1.00  0.00    -0.153 N  
HETATM   28  C   UNL     1      -7.308  10.094  67.044  1.00  0.00    -0.091 C  
HETATM   29  O   UNL     1      -7.358   9.123  66.296  1.00  0.00    -0.090 OA 
HETATM   30  C   UNL     1      -8.674  13.158  66.597  1.00  0.00    -0.004 C  
HETATM   31  C   UNL     1      -9.772  12.384  65.846  1.00  0.00    -0.237 C  
HETATM   32  O   UNL     1      -6.163  10.425  67.678  1.00  0.00    -0.056 OA 
HETATM   33  C   UNL     1      -9.570  10.922  66.300  1.00  0.00    -0.234 C  
BRANCH  31  34
HETATM   34  C   UNL     1     -11.237  12.864  66.084  1.00  0.00    -0.326 C  
HETATM   35  C   UNL     1     -11.239  14.746  64.381  1.00  0.00    -0.184 C  
HETATM   36  C   UNL     1     -12.218  14.006  63.477  1.00  0.00    -0.021 C  
HETATM   37  C   UNL     1     -12.231  12.498  63.721  1.00  0.00    -0.615 C  
HETATM   38  C   UNL     1     -11.460  14.366  65.840  1.00  0.00    -0.341 C  
HETATM   39  C   UNL     1     -12.266  12.109  65.204  1.00  0.00    -0.218 C  
ENDBRANCH  31  34
ENDBRANCH  23  24
ENDBRANCH  11  23
ENDBRANCH  10  11
ENDBRANCH   6  10
ENDBRANCH   5   6
ENDBRANCH   3   5
ENDBRANCH   2   3
TORSDOF 13
ENDMDL
MODEL      276
REMARK 921   NORMALIZED FREE ENERGY PREDICTED BY IDOCK:   -2.28 KCAL/MOL
REMARK 922        TOTAL FREE ENERGY PREDICTED BY IDOCK:   -6.48 KCAL/MOL
REMARK 923 INTER-LIGAND FREE ENERGY PREDICTED BY IDOCK:   -6.45 KCAL/MOL
REMARK 924 INTRA-LIGAND FREE ENERGY PREDICTED BY IDOCK:   -0.02 KCAL/MOL
REMARK 927      BINDING AFFINITY PREDICTED BY RF-SCORE:    0.00 PKD
ROOT
HETATM    1  C   UNL     1      -7.101   8.878  64.211  1.00  0.00    -0.090 C  
HETATM    2  C   UNL     1      -8.474   9.235  63.670  1.00  0.00    -0.200 C  
ENDROOT
BRANCH   2   3
HETATM    3  C   UNL     1      -9.336  10.193  64.488  1.00  0.00    -0.289 C  
HETATM    4  O   UNL     1      -9.337  11.404  64.295  1.00  0.00    -0.172 OA 
BRANCH   3   5
HETATM    5  O   UNL     1     -10.164   9.549  65.347  1.00  0.00    -0.109 OA 
BRANCH   5   6
HETATM    6  C   UNL     1     -10.055   9.853  66.773  1.00  0.00    -0.230 C  
HETATM    7  C   UNL     1     -10.965   8.826  67.540  1.00  0.00     0.076 C  
HETATM    8  C   UNL     1     -10.983   9.021  69.055  1.00  0.00    -0.001 C  
HETATM    9  C   UNL     1     -10.617   7.369  67.232  1.00  0.00    -0.393 C  
BRANCH   6  10
HETATM   10  O   UNL     1     -10.368  11.227  67.155  1.00  0.00    -0.195 OA 
BRANCH  10  11
HETATM   11  P   UNL     1      -9.692  11.809  68.562  1.00  0.00    -0.084 P  
HETATM   12  O   UNL     1     -10.942  12.670  68.863  1.00  0.00    -0.241 OA 
BRANCH  11  13
HETATM   13  C   UNL     1      -8.698  13.406  67.994  1.00  0.00    -0.178 C  
BRANCH  13  14
HETATM   14  C   UNL     1      -9.404  14.159  66.861  1.00  0.00    -0.274 C  
BRANCH  14  15
HETATM   15  C   UNL     1      -8.673  15.405  66.393  1.00  0.00    -0.307 C  
BRANCH  15  16
HETATM   16  C   UNL     1      -8.430  16.330  67.596  1.00  0.00    -0.178 C  
BRANCH  16  17
HETATM   17  C   UNL     1      -9.002  17.695  67.335  1.00  0.00    -0.231 A  
HETATM   18  C   UNL     1      -8.248  18.668  66.666  1.00  0.00    -0.289 A  
HETATM   19  C   UNL     1     -10.320  17.982  67.709  1.00  0.00    -0.403 A  
HETATM   20  C   UNL     1     -10.123  20.191  66.749  1.00  0.00    -0.591 A  
HETATM   21  C   UNL     1      -8.811  19.918  66.381  1.00  0.00    -0.420 A  
HETATM   22  C   UNL     1     -10.876  19.226  67.411  1.00  0.00    -0.554 A  
ENDBRANCH  16  17
ENDBRANCH  15  16
ENDBRANCH  14  15
ENDBRANCH  13  14
ENDBRANCH  11  13
BRANCH  11  23
HETATM   23  C   UNL     1      -8.214  10.790  68.207  1.00  0.00    -0.124 C  
BRANCH  23  24
HETATM   24  C   UNL     1      -7.787   9.868  69.364  1.00  0.00    -0.127 C  
HETATM   25  C   UNL     1      -6.693   7.810  70.285  1.00  0.00    -0.038 C  
HETATM   26  O   UNL     1      -8.194  10.098  70.511  1.00  0.00    -0.069 OA 
HETATM   27  N   UNL     1      -6.919   8.809  69.210  1.00  0.00    -0.057 N  
HETATM   28  C   UNL     1      -5.868   8.224  71.535  1.00  0.00    -0.037 C  
HETATM   29  O   UNL     1      -5.196   7.443  72.199  1.00  0.00    -0.035 OA 
HETATM   30  C   UNL     1      -5.925   8.613  68.174  1.00  0.00    -0.046 C  
HETATM   31  C   UNL     1      -5.625   7.103  68.154  1.00  0.00    -0.021 C  
HETATM   32  O   UNL     1      -6.045   9.502  71.935  1.00  0.00    -0.258 OA 
HETATM   33  C   UNL     1      -5.985   6.636  69.581  1.00  0.00    -0.019 C  
BRANCH  31  34
HETATM   34  C   UNL     1      -6.372   6.268  67.069  1.00  0.00    -0.041 C  
HETATM   35  C   UNL     1      -5.276   4.034  67.574  1.00  0.00    -0.011 C  
HETATM   36  C   UNL     1      -6.577   3.454  68.118  1.00  0.00    -0.037 C  
HETATM   37  C   UNL     1      -7.566   4.527  68.567  1.00  0.00    -0.064 C  
HETATM   38  C   UNL     1      -5.561   5.087  66.509  1.00  0.00    -0.017 C  
HETATM   39  C   UNL     1      -7.716   5.689  67.577  1.00  0.00    -0.097 C  
ENDBRANCH  31  34
ENDBRANCH  23  24
ENDBRANCH  11  23
ENDBRANCH  10  11
ENDBRANCH   6  10
ENDBRANCH   5   6
ENDBRANCH   3   5
ENDBRANCH   2   3
TORSDOF 13
ENDMDL
MODEL      277
REMARK 921   NORMALIZED FREE ENERGY PREDICTED BY IDOCK:   -2.26 KCAL/MOL
REMARK 922        TOTAL FREE ENERGY PREDICTED BY IDOCK:   -6.44 KCAL/MOL
REMARK 923 INTER-LIGAND FREE ENERGY PREDICTED BY IDOCK:   -6.80 KCAL/MOL
REMARK 924 INTRA-LIGAND FREE ENERGY PREDICTED BY IDOCK:    0.36 KCAL/MOL
REMARK 927      BINDING AFFINITY PREDICTED BY RF-SCORE:    0.00 PKD
ROOT
HETATM    1  C   UNL     1     -12.856  10.123  70.968  1.00  0.00    -0.474 C  
HETATM    2  C   UNL     1     -11.913  10.971  70.134  1.00  0.00    -0.443 C  
ENDROOT
BRANCH   2   3
HETATM    3  C   UNL     1     -12.335  12.403  69.815  1.00  0.00    -0.012 C  
HETATM    4  O   UNL     1     -12.685  13.195  70.684  1.00  0.00    -0.235 OA 
BRANCH   3   5
HETATM    5  O   UNL     1     -12.166  12.720  68.508  1.00  0.00    -0.182 OA 
BRANCH   5   6
HETATM    6  C   UNL     1     -11.522  13.991  68.180  1.00  0.00    -0.309 C  
HETATM    7  C   UNL     1     -11.504  14.115  66.613  1.00  0.00    -0.378 C  
HETATM    8  C   UNL     1     -10.838  15.390  66.097  1.00  0.00    -0.313 C  
HETATM    9  C   UNL     1     -12.894  13.993  65.986  1.00  0.00    -0.258 C  
BRANCH   6  10
HETATM   10  O   UNL     1     -10.190  14.191  68.743  1.00  0.00    -0.233 OA 
BRANCH  10  11
HETATM   11  P   UNL     1      -8.897  13.560  67.902  1.00  0.00    -0.210 P  
HETATM   12  O   UNL     1      -9.772  12.428  67.311  1.00  0.00    -0.196 OA 
BRANCH  11  13
HETATM   13  C   UNL     1      -8.073  12.297  69.163  1.00  0.00     0.429 C  
BRANCH  13  14
HETATM   14  C   UNL     1      -8.490  10.848  68.892  1.00  0.00    -0.142 C  
BRANCH  14  15
HETATM   15  C   UNL     1      -7.365   9.840  69.042  1.00  0.00    -0.078 C  
BRANCH  15  16
HETATM   16  C   UNL     1      -7.877   8.447  68.641  1.00  0.00    -0.116 C  
BRANCH  16  17
HETATM   17  C   UNL     1      -7.762   8.250  67.155  1.00  0.00    -0.097 A  
HETATM   18  C   UNL     1      -8.771   7.587  66.444  1.00  0.00    -0.158 A  
HETATM   19  C   UNL     1      -6.670   8.785  66.463  1.00  0.00    -0.071 A  
HETATM   20  C   UNL     1      -7.595   7.999  64.373  1.00  0.00    -0.116 A  
HETATM   21  C   UNL     1      -8.680   7.458  65.053  1.00  0.00     0.187 A  
HETATM   22  C   UNL     1      -6.593   8.661  65.076  1.00  0.00    -0.068 A  
ENDBRANCH  16  17
ENDBRANCH  15  16
ENDBRANCH  14  15
ENDBRANCH  13  14
ENDBRANCH  11  13
BRANCH  11  23
HETATM   23  C   UNL     1      -7.862  14.898  68.600  1.00  0.00    -0.134 C  
BRANCH  23  24
HETATM   24  C   UNL     1      -8.548  16.276  68.635  1.00  0.00    -0.222 C  
HETATM   25  C   UNL     1      -8.869  18.626  67.823  1.00  0.00    -0.275 C  
HETATM   26  O   UNL     1      -9.336  16.544  69.551  1.00  0.00    -0.114 OA 
HETATM   27  N   UNL     1      -8.375  17.234  67.660  1.00  0.00    -0.203 N  
HETATM   28  C   UNL     1     -10.397  18.896  67.731  1.00  0.00    -0.421 C  
HETATM   29  O   UNL     1     -10.881  19.953  67.342  1.00  0.00    -0.371 OA 
HETATM   30  C   UNL     1      -7.962  17.044  66.284  1.00  0.00    -0.308 C  
HETATM   31  C   UNL     1      -7.428  18.407  65.809  1.00  0.00    -0.127 C  
HETATM   32  O   UNL     1     -11.178  17.920  68.242  1.00  0.00     0.054 OA 
HETATM   33  C   UNL     1      -8.150  19.424  66.719  1.00  0.00    -0.302 C  
BRANCH  31  34
HETATM   34  C   UNL     1      -5.880  18.592  65.851  1.00  0.00    -0.212 C  
HETATM   35  C   UNL     1      -5.524  18.893  63.355  1.00  0.00    -0.121 C  
HETATM   36  C   UNL     1      -5.146  20.360  63.527  1.00  0.00    -0.210 C  
HETATM   37  C   UNL     1      -5.670  20.962  64.829  1.00  0.00    -0.282 C  
HETATM   38  C   UNL     1      -5.147  18.091  64.596  1.00  0.00     0.098 C  
HETATM   39  C   UNL     1      -5.458  20.069  66.058  1.00  0.00    -0.175 C  
ENDBRANCH  31  34
ENDBRANCH  23  24
ENDBRANCH  11  23
ENDBRANCH  10  11
ENDBRANCH   6  10
ENDBRANCH   5   6
ENDBRANCH   3   5
ENDBRANCH   2   3
TORSDOF 13
ENDMDL
MODEL      278
REMARK 921   NORMALIZED FREE ENERGY PREDICTED BY IDOCK:   -2.21 KCAL/MOL
REMARK 922        TOTAL FREE ENERGY PREDICTED BY IDOCK:   -6.35 KCAL/MOL
REMARK 923 INTER-LIGAND FREE ENERGY PREDICTED BY IDOCK:   -6.93 KCAL/MOL
REMARK 924 INTRA-LIGAND FREE ENERGY PREDICTED BY IDOCK:    0.58 KCAL/MOL
REMARK 927      BINDING AFFINITY PREDICTED BY RF-SCORE:    0.00 PKD
ROOT
HETATM    1  C   UNL     1      -6.148   8.934  74.292  1.00  0.00    -0.109 C  
HETATM    2  C   UNL     1      -7.320   8.274  73.589  1.00  0.00    -0.174 C  
ENDROOT
BRANCH   2   3
HETATM    3  C   UNL     1      -7.476   8.508  72.089  1.00  0.00    -0.071 C  
HETATM    4  O   UNL     1      -7.174   9.569  71.554  1.00  0.00    -0.320 OA 
BRANCH   3   5
HETATM    5  O   UNL     1      -7.865   7.393  71.423  1.00  0.00    -0.092 OA 
BRANCH   5   6
HETATM    6  C   UNL     1      -9.129   7.431  70.688  1.00  0.00    -0.156 C  
HETATM    7  C   UNL     1     -10.179   6.611  71.523  1.00  0.00    -0.218 C  
HETATM    8  C   UNL     1     -11.562   6.531  70.877  1.00  0.00    -0.417 C  
HETATM    9  C   UNL     1     -10.330   7.117  72.959  1.00  0.00    -0.310 C  
BRANCH   6  10
HETATM   10  O   UNL     1      -9.072   6.966  69.305  1.00  0.00    -0.140 OA 
BRANCH  10  11
HETATM   11  P   UNL     1     -10.313   7.419  68.289  1.00  0.00    -0.164 P  
HETATM   12  O   UNL     1     -10.880   5.979  68.261  1.00  0.00    -0.275 OA 
BRANCH  11  13
HETATM   13  C   UNL     1      -9.567   7.186  66.485  1.00  0.00    -0.144 C  
BRANCH  13  14
HETATM   14  C   UNL     1      -8.363   6.238  66.472  1.00  0.00    -0.114 C  
BRANCH  14  15
HETATM   15  C   UNL     1      -8.669   4.838  66.974  1.00  0.00    -0.103 C  
BRANCH  15  16
HETATM   16  C   UNL     1      -7.414   4.254  67.643  1.00  0.00    -0.069 C  
BRANCH  16  17
HETATM   17  C   UNL     1      -7.697   3.898  69.075  1.00  0.00    -0.053 A  
HETATM   18  C   UNL     1      -6.765   4.190  70.079  1.00  0.00    -0.034 A  
HETATM   19  C   UNL     1      -8.926   3.325  69.422  1.00  0.00    -0.176 A  
HETATM   20  C   UNL     1      -8.288   3.341  71.753  1.00  0.00    -0.076 A  
HETATM   21  C   UNL     1      -7.061   3.903  71.417  1.00  0.00    -0.032 A  
HETATM   22  C   UNL     1      -9.217   3.053  70.758  1.00  0.00    -0.206 A  
ENDBRANCH  16  17
ENDBRANCH  15  16
ENDBRANCH  14  15
ENDBRANCH  13  14
ENDBRANCH  11  13
BRANCH  11  23
HETATM   23  C   UNL     1      -9.642   9.121  68.322  1.00  0.00    -0.148 C  
BRANCH  23  24
HETATM   24  C   UNL     1     -10.241  10.058  67.256  1.00  0.00    -0.222 C  
HETATM   25  C   UNL     1     -10.520  12.296  66.161  1.00  0.00    -0.240 C  
HETATM   26  O   UNL     1     -11.142   9.646  66.516  1.00  0.00     0.174 OA 
HETATM   27  N   UNL     1      -9.791  11.342  67.036  1.00  0.00    -0.190 N  
HETATM   28  C   UNL     1     -10.481  12.084  64.623  1.00  0.00    -0.297 C  
HETATM   29  O   UNL     1     -10.569  12.994  63.805  1.00  0.00    -0.347 OA 
HETATM   30  C   UNL     1      -8.492  11.900  67.354  1.00  0.00    -0.166 C  
HETATM   31  C   UNL     1      -8.685  13.426  67.400  1.00  0.00    -0.209 C  
HETATM   32  O   UNL     1     -10.477  10.793  64.227  1.00  0.00    -0.367 OA 
HETATM   33  C   UNL     1      -9.912  13.671  66.495  1.00  0.00    -0.288 C  
BRANCH  31  34
HETATM   34  C   UNL     1      -8.879  14.052  68.816  1.00  0.00    -0.031 C  
HETATM   35  C   UNL     1      -8.002  16.370  68.266  1.00  0.00    -0.170 C  
HETATM   36  C   UNL     1      -9.386  16.992  68.412  1.00  0.00    -0.266 C  
HETATM   37  C   UNL     1     -10.516  15.976  68.250  1.00  0.00    -0.269 C  
HETATM   38  C   UNL     1      -7.862  15.150  69.170  1.00  0.00    -0.199 C  
HETATM   39  C   UNL     1     -10.289  14.665  69.013  1.00  0.00    -0.237 C  
ENDBRANCH  31  34
ENDBRANCH  23  24
ENDBRANCH  11  23
ENDBRANCH  10  11
ENDBRANCH   6  10
ENDBRANCH   5   6
ENDBRANCH   3   5
ENDBRANCH   2   3
TORSDOF 13
ENDMDL
MODEL      279
REMARK 921   NORMALIZED FREE ENERGY PREDICTED BY IDOCK:   -2.19 KCAL/MOL
REMARK 922        TOTAL FREE ENERGY PREDICTED BY IDOCK:   -6.31 KCAL/MOL
REMARK 923 INTER-LIGAND FREE ENERGY PREDICTED BY IDOCK:   -6.35 KCAL/MOL
REMARK 924 INTRA-LIGAND FREE ENERGY PREDICTED BY IDOCK:    0.04 KCAL/MOL
REMARK 927      BINDING AFFINITY PREDICTED BY RF-SCORE:    0.00 PKD
ROOT
HETATM    1  C   UNL     1     -11.800  11.083  70.423  1.00  0.00    -0.460 C  
HETATM    2  C   UNL     1     -11.748   9.872  71.337  1.00  0.00    -0.449 C  
ENDROOT
BRANCH   2   3
HETATM    3  C   UNL     1     -10.563   8.919  71.192  1.00  0.00    -0.265 C  
HETATM    4  O   UNL     1     -10.706   7.717  70.997  1.00  0.00    -0.224 OA 
BRANCH   3   5
HETATM    5  O   UNL     1      -9.371   9.564  71.186  1.00  0.00    -0.222 OA 
BRANCH   5   6
HETATM    6  C   UNL     1      -8.169   8.795  70.864  1.00  0.00    -0.161 C  
HETATM    7  C   UNL     1      -7.450   8.463  72.222  1.00  0.00    -0.140 C  
HETATM    8  C   UNL     1      -6.151   7.674  72.060  1.00  0.00    -0.039 C  
HETATM    9  C   UNL     1      -8.354   7.731  73.215  1.00  0.00    -0.215 C  
BRANCH   6  10
HETATM   10  O   UNL     1      -7.251   9.422  69.917  1.00  0.00    -0.064 OA 
BRANCH  10  11
HETATM   11  P   UNL     1      -7.310   8.910  68.333  1.00  0.00    -0.083 P  
HETATM   12  O   UNL     1      -6.726  10.252  67.828  1.00  0.00    -0.072 OA 
BRANCH  11  13
HETATM   13  C   UNL     1      -9.105   9.434  67.725  1.00  0.00    -0.125 C  
BRANCH  13  14
HETATM   14  C   UNL     1      -9.542  10.786  68.300  1.00  0.00    -0.170 C  
BRANCH  14  15
HETATM   15  C   UNL     1      -9.863  11.833  67.248  1.00  0.00    -0.198 C  
BRANCH  15  16
HETATM   16  C   UNL     1      -9.199  13.163  67.638  1.00  0.00    -0.207 C  
BRANCH  16  17
HETATM   17  C   UNL     1     -10.124  13.985  68.491  1.00  0.00    -0.236 A  
HETATM   18  C   UNL     1      -9.665  15.144  69.128  1.00  0.00    -0.232 A  
HETATM   19  C   UNL     1     -11.472  13.625  68.603  1.00  0.00    -0.342 A  
HETATM   20  C   UNL     1     -11.888  15.571  69.975  1.00  0.00    -0.379 A  
HETATM   21  C   UNL     1     -10.549  15.931  69.876  1.00  0.00    -0.327 A  
HETATM   22  C   UNL     1     -12.348  14.421  69.340  1.00  0.00    -0.228 A  
ENDBRANCH  16  17
ENDBRANCH  15  16
ENDBRANCH  14  15
ENDBRANCH  13  14
ENDBRANCH  11  13
BRANCH  11  23
HETATM   23  C   UNL     1      -8.000   7.324  68.931  1.00  0.00    -0.123 C  
BRANCH  23  24
HETATM   24  C   UNL     1      -7.746   6.129  67.993  1.00  0.00    -0.102 C  
HETATM   25  C   UNL     1      -7.824   3.690  67.421  1.00  0.00    -0.079 C  
HETATM   26  O   UNL     1      -7.091   6.294  66.956  1.00  0.00    -0.069 OA 
HETATM   27  N   UNL     1      -8.257   4.869  68.214  1.00  0.00    -0.085 N  
HETATM   28  C   UNL     1      -8.302   3.559  65.949  1.00  0.00    -0.106 C  
HETATM   29  O   UNL     1      -8.466   2.486  65.377  1.00  0.00    -0.093 OA 
HETATM   30  C   UNL     1      -9.417   4.501  69.002  1.00  0.00    -0.162 C  
HETATM   31  C   UNL     1      -9.238   3.013  69.350  1.00  0.00    -0.214 C  
HETATM   32  O   UNL     1      -8.404   4.726  65.278  1.00  0.00    -0.118 OA 
HETATM   33  C   UNL     1      -8.328   2.476  68.225  1.00  0.00    -0.085 C  
BRANCH  31  34
HETATM   34  C   UNL     1      -8.653   2.703  70.762  1.00  0.00    -0.106 C  
HETATM   35  C   UNL     1      -6.394   1.838  69.990  1.00  0.00    -0.025 C  
HETATM   36  C   UNL     1      -5.668   3.049  70.567  1.00  0.00    -0.017 C  
HETATM   37  C   UNL     1      -6.583   4.258  70.755  1.00  0.00    -0.034 C  
HETATM   38  C   UNL     1      -7.654   1.533  70.792  1.00  0.00    -0.032 C  
HETATM   39  C   UNL     1      -7.935   3.922  71.396  1.00  0.00    -0.068 C  
ENDBRANCH  31  34
ENDBRANCH  23  24
ENDBRANCH  11  23
ENDBRANCH  10  11
ENDBRANCH   6  10
ENDBRANCH   5   6
ENDBRANCH   3   5
ENDBRANCH   2   3
TORSDOF 13
ENDMDL
MODEL      280
REMARK 921   NORMALIZED FREE ENERGY PREDICTED BY IDOCK:   -2.18 KCAL/MOL
REMARK 922        TOTAL FREE ENERGY PREDICTED BY IDOCK:   -6.30 KCAL/MOL
REMARK 923 INTER-LIGAND FREE ENERGY PREDICTED BY IDOCK:   -6.08 KCAL/MOL
REMARK 924 INTRA-LIGAND FREE ENERGY PREDICTED BY IDOCK:   -0.22 KCAL/MOL
REMARK 927      BINDING AFFINITY PREDICTED BY RF-SCORE:    0.00 PKD
ROOT
HETATM    1  C   UNL     1     -11.318  13.040  67.364  1.00  0.00    -0.347 C  
HETATM    2  C   UNL     1     -10.586  12.296  68.467  1.00  0.00    -0.254 C  
ENDROOT
BRANCH   2   3
HETATM    3  C   UNL     1     -10.819  10.793  68.590  1.00  0.00    -0.220 C  
HETATM    4  O   UNL     1     -10.909  10.059  67.611  1.00  0.00    -0.270 OA 
BRANCH   3   5
HETATM    5  O   UNL     1     -10.796  10.363  69.875  1.00  0.00    -0.268 OA 
BRANCH   5   6
HETATM    6  C   UNL     1     -11.889   9.510  70.340  1.00  0.00    -0.124 C  
HETATM    7  C   UNL     1     -12.436  10.137  71.674  1.00  0.00    -0.506 C  
HETATM    8  C   UNL     1     -13.579   9.348  72.310  1.00  0.00    -0.532 C  
HETATM    9  C   UNL     1     -12.869  11.596  71.516  1.00  0.00    -0.469 C  
BRANCH   6  10
HETATM   10  O   UNL     1     -11.561   8.097  70.515  1.00  0.00    -0.238 OA 
BRANCH  10  11
HETATM   11  P   UNL     1     -10.063   7.728  71.144  1.00  0.00    -0.187 P  
HETATM   12  O   UNL     1     -10.499   8.161  72.564  1.00  0.00    -0.291 OA 
BRANCH  11  13
HETATM   13  C   UNL     1      -9.029   9.386  70.930  1.00  0.00    -0.132 C  
BRANCH  13  14
HETATM   14  C   UNL     1      -7.664   9.141  70.276  1.00  0.00    -0.115 C  
BRANCH  14  15
HETATM   15  C   UNL     1      -6.787  10.377  70.190  1.00  0.00    -0.155 C  
BRANCH  15  16
HETATM   16  C   UNL     1      -7.017  11.068  68.836  1.00  0.00    -0.088 C  
BRANCH  16  17
HETATM   17  C   UNL     1      -6.729  12.539  68.939  1.00  0.00    -0.098 A  
HETATM   18  C   UNL     1      -7.424  13.458  68.143  1.00  0.00    -0.133 A  
HETATM   19  C   UNL     1      -5.803  13.004  69.880  1.00  0.00    -0.132 A  
HETATM   20  C   UNL     1      -6.270  15.285  69.228  1.00  0.00    -0.118 A  
HETATM   21  C   UNL     1      -7.186  14.830  68.285  1.00  0.00    -0.115 A  
HETATM   22  C   UNL     1      -5.581  14.374  70.024  1.00  0.00    -0.112 A  
ENDBRANCH  16  17
ENDBRANCH  15  16
ENDBRANCH  14  15
ENDBRANCH  13  14
ENDBRANCH  11  13
BRANCH  11  23
HETATM   23  C   UNL     1      -9.547   7.216  69.464  1.00  0.00    -0.154 C  
BRANCH  23  24
HETATM   24  C   UNL     1      -8.703   5.928  69.426  1.00  0.00    -0.116 C  
HETATM   25  C   UNL     1      -7.083   4.358  68.333  1.00  0.00    -0.056 C  
HETATM   26  O   UNL     1      -8.855   5.070  70.305  1.00  0.00    -0.110 OA 
HETATM   27  N   UNL     1      -7.729   5.687  68.481  1.00  0.00    -0.088 N  
HETATM   28  C   UNL     1      -6.066   3.892  69.411  1.00  0.00    -0.027 C  
HETATM   29  O   UNL     1      -5.130   3.133  69.184  1.00  0.00    -0.010 OA 
HETATM   30  C   UNL     1      -6.994   6.654  67.690  1.00  0.00    -0.083 C  
HETATM   31  C   UNL     1      -6.453   5.882  66.473  1.00  0.00    -0.047 C  
HETATM   32  O   UNL     1      -6.358   4.277  70.672  1.00  0.00    -0.021 OA 
HETATM   33  C   UNL     1      -6.374   4.421  66.966  1.00  0.00    -0.040 C  
BRANCH  31  34
HETATM   34  C   UNL     1      -7.284   6.002  65.158  1.00  0.00    -0.070 C  
HETATM   35  C   UNL     1      -7.519   8.529  65.155  1.00  0.00    -0.091 C  
HETATM   36  C   UNL     1      -6.613   8.671  63.938  1.00  0.00    -0.076 C  
HETATM   37  C   UNL     1      -5.693   7.468  63.738  1.00  0.00    -0.044 C  
HETATM   38  C   UNL     1      -8.255   7.194  65.127  1.00  0.00    -0.114 C  
HETATM   39  C   UNL     1      -6.395   6.114  63.894  1.00  0.00    -0.029 C  
ENDBRANCH  31  34
ENDBRANCH  23  24
ENDBRANCH  11  23
ENDBRANCH  10  11
ENDBRANCH   6  10
ENDBRANCH   5   6
ENDBRANCH   3   5
ENDBRANCH   2   3
TORSDOF 13
ENDMDL
MODEL      281
REMARK 921   NORMALIZED FREE ENERGY PREDICTED BY IDOCK:   -2.10 KCAL/MOL
REMARK 922        TOTAL FREE ENERGY PREDICTED BY IDOCK:   -6.16 KCAL/MOL
REMARK 923 INTER-LIGAND FREE ENERGY PREDICTED BY IDOCK:   -6.38 KCAL/MOL
REMARK 924 INTRA-LIGAND FREE ENERGY PREDICTED BY IDOCK:    0.22 KCAL/MOL
REMARK 927      BINDING AFFINITY PREDICTED BY RF-SCORE:    0.00 PKD
ROOT
HETATM    1  C   UNL     1      -8.529   3.376  63.712  1.00  0.00    -0.090 C  
HETATM    2  C   UNL     1      -8.375   4.870  63.928  1.00  0.00    -0.127 C  
ENDROOT
BRANCH   2   3
HETATM    3  C   UNL     1      -9.078   5.492  65.132  1.00  0.00     0.039 C  
HETATM    4  O   UNL     1     -10.107   5.025  65.607  1.00  0.00    -0.142 OA 
BRANCH   3   5
HETATM    5  O   UNL     1      -8.381   6.524  65.669  1.00  0.00    -0.135 OA 
BRANCH   5   6
HETATM    6  C   UNL     1      -8.142   6.523  67.112  1.00  0.00    -0.113 C  
HETATM    7  C   UNL     1      -7.280   5.249  67.440  1.00  0.00    -0.075 C  
HETATM    8  C   UNL     1      -6.956   5.083  68.924  1.00  0.00    -0.052 C  
HETATM    9  C   UNL     1      -5.978   5.183  66.638  1.00  0.00    -0.023 C  
BRANCH   6  10
HETATM   10  O   UNL     1      -9.334   6.587  67.952  1.00  0.00    -0.115 OA 
BRANCH  10  11
HETATM   11  P   UNL     1     -10.042   8.079  68.171  1.00  0.00    -0.205 P  
HETATM   12  O   UNL     1     -10.820   7.958  66.838  1.00  0.00    -0.288 OA 
BRANCH  11  13
HETATM   13  C   UNL     1      -8.776   9.337  67.347  1.00  0.00    -0.118 C  
BRANCH  13  14
HETATM   14  C   UNL     1      -9.473  10.341  66.422  1.00  0.00    -0.218 C  
BRANCH  14  15
HETATM   15  C   UNL     1     -10.234  11.433  67.153  1.00  0.00    -0.234 C  
BRANCH  15  16
HETATM   16  C   UNL     1      -9.326  12.663  67.312  1.00  0.00    -0.195 C  
BRANCH  16  17
HETATM   17  C   UNL     1     -10.104  13.825  67.863  1.00  0.00    -0.246 A  
HETATM   18  C   UNL     1     -11.445  13.671  68.238  1.00  0.00    -0.348 A  
HETATM   19  C   UNL     1      -9.470  15.057  68.062  1.00  0.00    -0.193 A  
HETATM   20  C   UNL     1     -11.504  15.964  69.001  1.00  0.00    -0.380 A  
HETATM   21  C   UNL     1     -12.144  14.746  68.800  1.00  0.00    -0.225 A  
HETATM   22  C   UNL     1     -10.170  16.119  68.634  1.00  0.00    -0.244 A  
ENDBRANCH  16  17
ENDBRANCH  15  16
ENDBRANCH  14  15
ENDBRANCH  13  14
ENDBRANCH  11  13
BRANCH  11  23
HETATM   23  C   UNL     1      -9.123   8.221  69.747  1.00  0.00    -0.147 C  
BRANCH  23  24
HETATM   24  C   UNL     1      -9.432   7.106  70.763  1.00  0.00    -0.164 C  
HETATM   25  C   UNL     1      -9.236   6.032  73.020  1.00  0.00    -0.133 C  
HETATM   26  O   UNL     1     -10.024   6.085  70.390  1.00  0.00    -0.174 OA 
HETATM   27  N   UNL     1      -9.128   7.197  72.104  1.00  0.00    -0.130 N  
HETATM   28  C   UNL     1     -10.647   5.531  73.435  1.00  0.00    -0.258 C  
HETATM   29  O   UNL     1     -10.888   4.978  74.503  1.00  0.00    -0.331 OA 
HETATM   30  C   UNL     1      -8.927   8.395  72.895  1.00  0.00    -0.196 C  
HETATM   31  C   UNL     1      -8.121   7.956  74.132  1.00  0.00    -0.290 C  
HETATM   32  O   UNL     1     -11.589   5.624  72.472  1.00  0.00    -0.300 OA 
HETATM   33  C   UNL     1      -8.461   6.458  74.282  1.00  0.00    -0.136 C  
BRANCH  31  34
HETATM   34  C   UNL     1      -6.581   8.194  74.069  1.00  0.00    -0.142 C  
HETATM   35  C   UNL     1      -5.901   5.785  73.648  1.00  0.00    -0.051 C  
HETATM   36  C   UNL     1      -5.446   6.100  72.228  1.00  0.00    -0.031 C  
HETATM   37  C   UNL     1      -6.084   7.369  71.666  1.00  0.00    -0.036 C  
HETATM   38  C   UNL     1      -5.735   7.003  74.550  1.00  0.00    -0.063 C  
HETATM   39  C   UNL     1      -6.086   8.551  72.644  1.00  0.00    -0.076 C  
ENDBRANCH  31  34
ENDBRANCH  23  24
ENDBRANCH  11  23
ENDBRANCH  10  11
ENDBRANCH   6  10
ENDBRANCH   5   6
ENDBRANCH   3   5
ENDBRANCH   2   3
TORSDOF 13
ENDMDL
MODEL      282
REMARK 921   NORMALIZED FREE ENERGY PREDICTED BY IDOCK:   -1.98 KCAL/MOL
REMARK 922        TOTAL FREE ENERGY PREDICTED BY IDOCK:   -5.96 KCAL/MOL
REMARK 923 INTER-LIGAND FREE ENERGY PREDICTED BY IDOCK:   -8.52 KCAL/MOL
REMARK 924 INTRA-LIGAND FREE ENERGY PREDICTED BY IDOCK:    2.57 KCAL/MOL
REMARK 927      BINDING AFFINITY PREDICTED BY RF-SCORE:    0.00 PKD
ROOT
HETATM    1  C   UNL     1      -9.952  11.010  63.357  1.00  0.00    -0.428 C  
HETATM    2  C   UNL     1     -11.162  11.906  63.167  1.00  0.00    -0.248 C  
ENDROOT
BRANCH   2   3
HETATM    3  C   UNL     1     -12.054  12.167  64.378  1.00  0.00    -0.357 C  
HETATM    4  O   UNL     1     -13.270  12.014  64.345  1.00  0.00    -0.669 OA 
BRANCH   3   5
HETATM    5  O   UNL     1     -11.346  12.467  65.495  1.00  0.00    -0.319 OA 
BRANCH   5   6
HETATM    6  C   UNL     1     -11.942  13.378  66.470  1.00  0.00    -0.400 C  
HETATM    7  C   UNL     1     -11.168  14.743  66.367  1.00  0.00    -0.342 C  
HETATM    8  C   UNL     1     -11.657  15.810  67.345  1.00  0.00     0.088 C  
HETATM    9  C   UNL     1     -11.170  15.328  64.954  1.00  0.00    -0.422 C  
BRANCH   6  10
HETATM   10  O   UNL     1     -11.983  12.895  67.847  1.00  0.00    -0.349 OA 
BRANCH  10  11
HETATM   11  P   UNL     1     -10.528  12.645  68.619  1.00  0.00    -0.103 P  
HETATM   12  O   UNL     1     -10.365  14.157  68.904  1.00  0.00    -0.236 OA 
BRANCH  11  13
HETATM   13  C   UNL     1      -9.195  12.749  67.177  1.00  0.00    -0.219 C  
BRANCH  13  14
HETATM   14  C   UNL     1      -8.228  13.923  67.362  1.00  0.00    -0.198 C  
BRANCH  14  15
HETATM   15  C   UNL     1      -7.304  13.783  68.559  1.00  0.00    -0.117 C  
BRANCH  15  16
HETATM   16  C   UNL     1      -6.181  14.827  68.456  1.00  0.00    -0.088 C  
BRANCH  16  17
HETATM   17  C   UNL     1      -6.739  16.167  68.068  1.00  0.00    -0.143 A  
HETATM   18  C   UNL     1      -6.271  16.831  66.927  1.00  0.00    -0.222 A  
HETATM   19  C   UNL     1      -7.779  16.732  68.816  1.00  0.00    -0.242 A  
HETATM   20  C   UNL     1      -7.874  18.604  67.290  1.00  0.00    -0.240 A  
HETATM   21  C   UNL     1      -6.836  18.054  66.546  1.00  0.00    -0.254 A  
HETATM   22  C   UNL     1      -8.344  17.944  68.422  1.00  0.00    -0.307 A  
ENDBRANCH  16  17
ENDBRANCH  15  16
ENDBRANCH  14  15
ENDBRANCH  13  14
ENDBRANCH  11  13
BRANCH  11  23
HETATM   23  C   UNL     1     -10.720  10.856  68.282  1.00  0.00    -0.204 C  
BRANCH  23  24
HETATM   24  C   UNL     1      -9.458  10.020  68.561  1.00  0.00    -0.148 C  
HETATM   25  C   UNL     1      -7.985   8.024  68.205  1.00  0.00    -0.128 C  
HETATM   26  O   UNL     1      -8.705  10.340  69.490  1.00  0.00    -0.175 OA 
HETATM   27  N   UNL     1      -9.077   8.942  67.793  1.00  0.00    -0.134 N  
HETATM   28  C   UNL     1      -6.515   8.521  68.126  1.00  0.00    -0.057 C  
HETATM   29  O   UNL     1      -5.554   7.784  67.933  1.00  0.00    -0.030 OA 
HETATM   30  C   UNL     1      -9.433   8.655  66.417  1.00  0.00    -0.230 C  
HETATM   31  C   UNL     1      -9.206   7.145  66.225  1.00  0.00    -0.169 C  
HETATM   32  O   UNL     1      -6.341   9.827  68.420  1.00  0.00    -0.054 OA 
HETATM   33  C   UNL     1      -8.149   6.792  67.294  1.00  0.00    -0.118 C  
BRANCH  31  34
HETATM   34  C   UNL     1     -10.470   6.239  66.344  1.00  0.00    -0.065 C  
HETATM   35  C   UNL     1      -9.272   4.100  67.003  1.00  0.00    -0.173 C  
HETATM   36  C   UNL     1      -9.853   4.140  68.412  1.00  0.00    -0.082 C  
HETATM   37  C   UNL     1     -10.305   5.538  68.830  1.00  0.00    -0.271 C  
HETATM   38  C   UNL     1     -10.223   4.758  66.009  1.00  0.00    -0.308 C  
HETATM   39  C   UNL     1     -11.108   6.281  67.755  1.00  0.00    -0.361 C  
ENDBRANCH  31  34
ENDBRANCH  23  24
ENDBRANCH  11  23
ENDBRANCH  10  11
ENDBRANCH   6  10
ENDBRANCH   5   6
ENDBRANCH   3   5
ENDBRANCH   2   3
TORSDOF 13
ENDMDL
MODEL      283
REMARK 921   NORMALIZED FREE ENERGY PREDICTED BY IDOCK:   -1.96 KCAL/MOL
REMARK 922        TOTAL FREE ENERGY PREDICTED BY IDOCK:   -5.92 KCAL/MOL
REMARK 923 INTER-LIGAND FREE ENERGY PREDICTED BY IDOCK:   -6.53 KCAL/MOL
REMARK 924 INTRA-LIGAND FREE ENERGY PREDICTED BY IDOCK:    0.61 KCAL/MOL
REMARK 927      BINDING AFFINITY PREDICTED BY RF-SCORE:    0.00 PKD
ROOT
HETATM    1  C   UNL     1      -7.865   4.525  62.977  1.00  0.00    -0.068 C  
HETATM    2  C   UNL     1      -7.696   6.033  62.991  1.00  0.00    -0.094 C  
ENDROOT
BRANCH   2   3
HETATM    3  C   UNL     1      -7.800   6.750  64.335  1.00  0.00    -0.113 C  
HETATM    4  O   UNL     1      -7.317   6.290  65.365  1.00  0.00    -0.071 OA 
BRANCH   3   5
HETATM    5  O   UNL     1      -8.371   7.975  64.232  1.00  0.00    -0.110 OA 
BRANCH   5   6
HETATM    6  C   UNL     1      -7.745   9.093  64.937  1.00  0.00    -0.110 C  
HETATM    7  C   UNL     1      -6.385   9.401  64.211  1.00  0.00    -0.089 C  
HETATM    8  C   UNL     1      -5.587  10.540  64.842  1.00  0.00    -0.135 C  
HETATM    9  C   UNL     1      -6.555   9.683  62.716  1.00  0.00    -0.103 C  
BRANCH   6  10
HETATM   10  O   UNL     1      -7.548   8.907  66.372  1.00  0.00    -0.090 OA 
BRANCH  10  11
HETATM   11  P   UNL     1      -8.481   9.826  67.402  1.00  0.00    -0.120 P  
HETATM   12  O   UNL     1      -9.776   9.452  66.641  1.00  0.00    -0.186 OA 
BRANCH  11  13
HETATM   13  C   UNL     1      -8.486  11.612  66.582  1.00  0.00    -0.165 C  
BRANCH  13  14
HETATM   14  C   UNL     1      -8.450  12.733  67.626  1.00  0.00    -0.178 C  
BRANCH  14  15
HETATM   15  C   UNL     1      -8.718  14.117  67.061  1.00  0.00    -0.222 C  
BRANCH  15  16
HETATM   16  C   UNL     1      -7.566  15.055  67.455  1.00  0.00    -0.233 C  
BRANCH  16  17
HETATM   17  C   UNL     1      -8.032  16.484  67.473  1.00  0.00    -0.176 A  
HETATM   18  C   UNL     1      -8.514  17.061  68.655  1.00  0.00    -0.262 A  
HETATM   19  C   UNL     1      -7.929  17.266  66.317  1.00  0.00    -0.330 A  
HETATM   20  C   UNL     1      -8.782  19.180  67.522  1.00  0.00    -0.322 A  
HETATM   21  C   UNL     1      -8.895  18.408  68.673  1.00  0.00    -0.306 A  
HETATM   22  C   UNL     1      -8.300  18.610  66.347  1.00  0.00    -0.292 A  
ENDBRANCH  16  17
ENDBRANCH  15  16
ENDBRANCH  14  15
ENDBRANCH  13  14
ENDBRANCH  11  13
BRANCH  11  23
HETATM   23  C   UNL     1      -6.951  10.268  68.303  1.00  0.00    -0.073 C  
BRANCH  23  24
HETATM   24  C   UNL     1      -7.037  10.079  69.829  1.00  0.00    -0.119 C  
HETATM   25  C   UNL     1      -7.732   8.820  71.881  1.00  0.00    -0.006 C  
HETATM   26  O   UNL     1      -6.678  10.995  70.580  1.00  0.00    -0.219 OA 
HETATM   27  N   UNL     1      -7.451   8.909  70.426  1.00  0.00    -0.070 N  
HETATM   28  C   UNL     1      -6.542   8.837  72.880  1.00  0.00     0.051 C  
HETATM   29  O   UNL     1      -6.560   8.284  73.974  1.00  0.00    -0.117 OA 
HETATM   30  C   UNL     1      -7.434   7.569  69.871  1.00  0.00    -0.084 C  
HETATM   31  C   UNL     1      -8.451   6.757  70.694  1.00  0.00    -0.137 C  
HETATM   32  O   UNL     1      -5.508   9.627  72.518  1.00  0.00    -0.212 OA 
HETATM   33  C   UNL     1      -8.509   7.500  72.047  1.00  0.00    -0.123 C  
BRANCH  31  34
HETATM   34  C   UNL     1      -9.869   6.592  70.066  1.00  0.00    -0.178 C  
HETATM   35  C   UNL     1     -11.208   7.289  72.107  1.00  0.00    -0.288 C  
HETATM   36  C   UNL     1     -11.670   8.577  71.436  1.00  0.00    -0.346 C  
HETATM   37  C   UNL     1     -10.758   9.013  70.291  1.00  0.00    -0.262 C  
HETATM   38  C   UNL     1     -10.966   6.198  71.069  1.00  0.00    -0.354 C  
HETATM   39  C   UNL     1     -10.359   7.874  69.345  1.00  0.00    -0.220 C  
ENDBRANCH  31  34
ENDBRANCH  23  24
ENDBRANCH  11  23
ENDBRANCH  10  11
ENDBRANCH   6  10
ENDBRANCH   5   6
ENDBRANCH   3   5
ENDBRANCH   2   3
TORSDOF 13
ENDMDL
MODEL      284
REMARK 921   NORMALIZED FREE ENERGY PREDICTED BY IDOCK:   -1.94 KCAL/MOL
REMARK 922        TOTAL FREE ENERGY PREDICTED BY IDOCK:   -5.88 KCAL/MOL
REMARK 923 INTER-LIGAND FREE ENERGY PREDICTED BY IDOCK:   -5.94 KCAL/MOL
REMARK 924 INTRA-LIGAND FREE ENERGY PREDICTED BY IDOCK:    0.06 KCAL/MOL
REMARK 927      BINDING AFFINITY PREDICTED BY RF-SCORE:    0.00 PKD
ROOT
HETATM    1  C   UNL     1      -8.688   5.149  65.149  1.00  0.00    -0.151 C  
HETATM    2  C   UNL     1      -7.227   4.756  65.272  1.00  0.00    -0.068 C  
ENDROOT
BRANCH   2   3
HETATM    3  C   UNL     1      -6.270   5.756  65.916  1.00  0.00    -0.034 C  
HETATM    4  O   UNL     1      -5.132   5.940  65.498  1.00  0.00    -0.009 OA 
BRANCH   3   5
HETATM    5  O   UNL     1      -6.854   6.479  66.903  1.00  0.00    -0.061 OA 
BRANCH   5   6
HETATM    6  C   UNL     1      -7.473   7.757  66.552  1.00  0.00    -0.088 C  
HETATM    7  C   UNL     1      -6.622   8.889  67.234  1.00  0.00    -0.062 C  
HETATM    8  C   UNL     1      -7.152  10.301  66.984  1.00  0.00    -0.090 C  
HETATM    9  C   UNL     1      -5.142   8.840  66.852  1.00  0.00    -0.035 C  
BRANCH   6  10
HETATM   10  O   UNL     1      -8.890   7.887  66.881  1.00  0.00    -0.125 OA 
BRANCH  10  11
HETATM   11  P   UNL     1      -9.328   7.709  68.479  1.00  0.00    -0.147 P  
HETATM   12  O   UNL     1      -8.169   6.715  68.735  1.00  0.00    -0.118 OA 
BRANCH  11  13
HETATM   13  C   UNL     1     -10.624   6.231  68.460  1.00  0.00    -0.262 C  
BRANCH  13  14
HETATM   14  C   UNL     1      -9.942   4.859  68.470  1.00  0.00    -0.185 C  
BRANCH  14  15
HETATM   15  C   UNL     1      -9.903   4.195  69.834  1.00  0.00    -0.233 C  
BRANCH  15  16
HETATM   16  C   UNL     1      -8.718   3.217  69.887  1.00  0.00    -0.132 C  
BRANCH  16  17
HETATM   17  C   UNL     1      -7.779   3.585  71.001  1.00  0.00    -0.047 A  
HETATM   18  C   UNL     1      -8.154   4.528  71.967  1.00  0.00    -0.100 A  
HETATM   19  C   UNL     1      -6.543   2.939  71.113  1.00  0.00    -0.030 A  
HETATM   20  C   UNL     1      -6.070   4.171  73.138  1.00  0.00    -0.016 A  
HETATM   21  C   UNL     1      -7.293   4.823  73.030  1.00  0.00    -0.082 A  
HETATM   22  C   UNL     1      -5.696   3.231  72.182  1.00  0.00    -0.008 A  
ENDBRANCH  16  17
ENDBRANCH  15  16
ENDBRANCH  14  15
ENDBRANCH  13  14
ENDBRANCH  11  13
BRANCH  11  23
HETATM   23  C   UNL     1     -10.697   8.884  68.176  1.00  0.00    -0.092 C  
BRANCH  23  24
HETATM   24  C   UNL     1     -11.095   9.724  69.405  1.00  0.00    -0.170 C  
HETATM   25  C   UNL     1     -11.549  11.899  70.563  1.00  0.00     0.186 C  
HETATM   26  O   UNL     1     -11.214   9.175  70.508  1.00  0.00    -0.252 OA 
HETATM   27  N   UNL     1     -11.382  11.070  69.343  1.00  0.00    -0.258 N  
HETATM   28  C   UNL     1     -12.835  11.726  71.419  1.00  0.00    -0.335 C  
HETATM   29  O   UNL     1     -13.333  12.623  72.091  1.00  0.00    -0.524 OA 
HETATM   30  C   UNL     1     -11.818  11.838  68.193  1.00  0.00    -0.254 C  
HETATM   31  C   UNL     1     -11.488  13.307  68.515  1.00  0.00    -0.347 C  
HETATM   32  O   UNL     1     -13.308  10.463  71.485  1.00  0.00    -0.361 OA 
HETATM   33  C   UNL     1     -11.472  13.353  70.058  1.00  0.00    -0.126 C  
BRANCH  31  34
HETATM   34  C   UNL     1     -10.162  13.862  67.909  1.00  0.00    -0.241 C  
HETATM   35  C   UNL     1     -11.124  16.001  66.938  1.00  0.00    -0.039 C  
HETATM   36  C   UNL     1     -10.373  16.865  67.945  1.00  0.00    -0.332 C  
HETATM   37  C   UNL     1      -9.965  16.097  69.200  1.00  0.00    -0.251 C  
HETATM   38  C   UNL     1     -10.352  14.719  66.646  1.00  0.00    -0.273 C  
HETATM   39  C   UNL     1      -9.354  14.719  68.916  1.00  0.00    -0.184 C  
ENDBRANCH  31  34
ENDBRANCH  23  24
ENDBRANCH  11  23
ENDBRANCH  10  11
ENDBRANCH   6  10
ENDBRANCH   5   6
ENDBRANCH   3   5
ENDBRANCH   2   3
TORSDOF 13
ENDMDL
MODEL      285
REMARK 921   NORMALIZED FREE ENERGY PREDICTED BY IDOCK:   -1.92 KCAL/MOL
REMARK 922        TOTAL FREE ENERGY PREDICTED BY IDOCK:   -5.85 KCAL/MOL
REMARK 923 INTER-LIGAND FREE ENERGY PREDICTED BY IDOCK:   -7.44 KCAL/MOL
REMARK 924 INTRA-LIGAND FREE ENERGY PREDICTED BY IDOCK:    1.59 KCAL/MOL
REMARK 927      BINDING AFFINITY PREDICTED BY RF-SCORE:    0.00 PKD
ROOT
HETATM    1  C   UNL     1     -10.523   5.384  66.911  1.00  0.00    -0.337 C  
HETATM    2  C   UNL     1      -9.052   5.014  66.946  1.00  0.00    -0.117 C  
ENDROOT
BRANCH   2   3
HETATM    3  C   UNL     1      -8.093   5.817  66.070  1.00  0.00    -0.110 C  
HETATM    4  O   UNL     1      -7.062   5.336  65.611  1.00  0.00    -0.064 OA 
BRANCH   3   5
HETATM    5  O   UNL     1      -8.566   7.052  65.773  1.00  0.00    -0.145 OA 
BRANCH   5   6
HETATM    6  C   UNL     1      -8.167   8.171  66.626  1.00  0.00    -0.103 C  
HETATM    7  C   UNL     1      -6.763   8.667  66.120  1.00  0.00    -0.069 C  
HETATM    8  C   UNL     1      -6.187   9.829  66.926  1.00  0.00    -0.064 C  
HETATM    9  C   UNL     1      -6.760   9.042  64.637  1.00  0.00    -0.077 C  
BRANCH   6  10
HETATM   10  O   UNL     1      -8.146   7.898  68.061  1.00  0.00    -0.122 OA 
BRANCH  10  11
HETATM   11  P   UNL     1      -6.682   8.017  68.846  1.00  0.00    -0.055 P  
HETATM   12  O   UNL     1      -6.223   6.644  68.300  1.00  0.00    -0.027 OA 
BRANCH  11  13
HETATM   13  C   UNL     1      -7.019   7.228  70.615  1.00  0.00    -0.057 C  
BRANCH  13  14
HETATM   14  C   UNL     1      -7.249   5.715  70.543  1.00  0.00    -0.074 C  
BRANCH  14  15
HETATM   15  C   UNL     1      -6.608   4.935  71.678  1.00  0.00    -0.035 C  
BRANCH  15  16
HETATM   16  C   UNL     1      -7.251   5.359  73.008  1.00  0.00    -0.090 C  
BRANCH  16  17
HETATM   17  C   UNL     1      -8.616   4.747  73.153  1.00  0.00    -0.106 A  
HETATM   18  C   UNL     1      -8.793   3.363  73.027  1.00  0.00    -0.092 A  
HETATM   19  C   UNL     1      -9.712   5.556  73.477  1.00  0.00    -0.153 A  
HETATM   20  C   UNL     1     -11.142   3.608  73.547  1.00  0.00    -0.320 A  
HETATM   21  C   UNL     1     -10.060   2.799  73.218  1.00  0.00    -0.195 A  
HETATM   22  C   UNL     1     -10.967   4.983  73.677  1.00  0.00    -0.379 A  
ENDBRANCH  16  17
ENDBRANCH  15  16
ENDBRANCH  14  15
ENDBRANCH  13  14
ENDBRANCH  11  13
BRANCH  11  23
HETATM   23  C   UNL     1      -7.224   9.641  69.492  1.00  0.00    -0.080 C  
BRANCH  23  24
HETATM   24  C   UNL     1      -8.556   9.602  70.265  1.00  0.00    -0.197 C  
HETATM   25  C   UNL     1     -10.935  10.296  70.639  1.00  0.00    -0.214 C  
HETATM   26  O   UNL     1      -8.617   9.010  71.350  1.00  0.00    -0.269 OA 
HETATM   27  N   UNL     1      -9.725  10.155  69.789  1.00  0.00    -0.223 N  
HETATM   28  C   UNL     1     -11.754   9.026  70.999  1.00  0.00    -0.296 C  
HETATM   29  O   UNL     1     -12.960   9.030  71.218  1.00  0.00    -0.306 OA 
HETATM   30  C   UNL     1     -10.086  10.436  68.414  1.00  0.00    -0.163 C  
HETATM   31  C   UNL     1     -11.205  11.491  68.475  1.00  0.00    -0.315 C  
HETATM   32  O   UNL     1     -11.017   7.910  71.189  1.00  0.00    -0.233 OA 
HETATM   33  C   UNL     1     -11.840  11.276  69.866  1.00  0.00    -0.436 C  
BRANCH  31  34
HETATM   34  C   UNL     1     -10.765  12.972  68.265  1.00  0.00    -0.261 C  
HETATM   35  C   UNL     1      -9.723  12.676  65.969  1.00  0.00    -0.232 C  
HETATM   36  C   UNL     1     -10.824  13.492  65.301  1.00  0.00    -0.316 C  
HETATM   37  C   UNL     1     -12.106  13.554  66.129  1.00  0.00    -0.482 C  
HETATM   38  C   UNL     1      -9.503  13.144  67.403  1.00  0.00    -0.214 C  
HETATM   39  C   UNL     1     -11.873  13.841  67.617  1.00  0.00    -0.413 C  
ENDBRANCH  31  34
ENDBRANCH  23  24
ENDBRANCH  11  23
ENDBRANCH  10  11
ENDBRANCH   6  10
ENDBRANCH   5   6
ENDBRANCH   3   5
ENDBRANCH   2   3
TORSDOF 13
ENDMDL
MODEL      286
REMARK 921   NORMALIZED FREE ENERGY PREDICTED BY IDOCK:   -1.92 KCAL/MOL
REMARK 922        TOTAL FREE ENERGY PREDICTED BY IDOCK:   -5.84 KCAL/MOL
REMARK 923 INTER-LIGAND FREE ENERGY PREDICTED BY IDOCK:   -5.60 KCAL/MOL
REMARK 924 INTRA-LIGAND FREE ENERGY PREDICTED BY IDOCK:   -0.24 KCAL/MOL
REMARK 927      BINDING AFFINITY PREDICTED BY RF-SCORE:    0.00 PKD
ROOT
HETATM    1  C   UNL     1      -8.856   8.721  62.524  1.00  0.00    -0.043 C  
HETATM    2  C   UNL     1      -8.558   8.014  63.833  1.00  0.00     0.266 C  
ENDROOT
BRANCH   2   3
HETATM    3  C   UNL     1      -9.128   8.615  65.116  1.00  0.00     0.017 C  
HETATM    4  O   UNL     1     -10.078   9.391  65.112  1.00  0.00     0.011 OA 
BRANCH   3   5
HETATM    5  O   UNL     1      -8.550   8.109  66.233  1.00  0.00    -0.128 OA 
BRANCH   5   6
HETATM    6  C   UNL     1      -7.680   8.983  67.019  1.00  0.00    -0.098 C  
HETATM    7  C   UNL     1      -6.197   8.651  66.614  1.00  0.00    -0.058 C  
HETATM    8  C   UNL     1      -5.149   9.469  67.367  1.00  0.00    -0.036 C  
HETATM    9  C   UNL     1      -5.943   8.782  65.111  1.00  0.00    -0.055 C  
BRANCH   6  10
HETATM   10  O   UNL     1      -7.860   8.922  68.467  1.00  0.00    -0.100 OA 
BRANCH  10  11
HETATM   11  P   UNL     1      -8.572  10.232  69.210  1.00  0.00    -0.123 P  
HETATM   12  O   UNL     1      -8.461   9.563  70.601  1.00  0.00    -0.200 OA 
BRANCH  11  13
HETATM   13  C   UNL     1     -10.496   9.833  69.146  1.00  0.00    -0.215 C  
BRANCH  13  14
HETATM   14  C   UNL     1     -10.846   8.533  69.878  1.00  0.00    -0.205 C  
BRANCH  14  15
HETATM   15  C   UNL     1     -11.482   7.475  68.994  1.00  0.00     0.543 C  
BRANCH  15  16
HETATM   16  C   UNL     1     -10.898   6.099  69.354  1.00  0.00    -0.420 C  
BRANCH  16  17
HETATM   17  C   UNL     1     -10.156   5.518  68.183  1.00  0.00    -0.221 A  
HETATM   18  C   UNL     1      -8.800   5.182  68.295  1.00  0.00    -0.107 A  
HETATM   19  C   UNL     1     -10.835   5.253  66.989  1.00  0.00    -0.038 A  
HETATM   20  C   UNL     1      -8.817   4.325  66.035  1.00  0.00    -0.119 A  
HETATM   21  C   UNL     1      -8.133   4.592  67.215  1.00  0.00    -0.102 A  
HETATM   22  C   UNL     1     -10.165   4.655  65.922  1.00  0.00    -0.303 A  
ENDBRANCH  16  17
ENDBRANCH  15  16
ENDBRANCH  14  15
ENDBRANCH  13  14
ENDBRANCH  11  13
BRANCH  11  23
HETATM   23  C   UNL     1      -8.704  11.022  67.564  1.00  0.00    -0.128 C  
BRANCH  23  24
HETATM   24  C   UNL     1      -7.884  12.317  67.417  1.00  0.00    -0.171 C  
HETATM   25  C   UNL     1      -7.665  14.809  67.262  1.00  0.00    -0.184 C  
HETATM   26  O   UNL     1      -6.677  12.250  67.148  1.00  0.00    -0.149 OA 
HETATM   27  N   UNL     1      -8.409  13.575  67.619  1.00  0.00    -0.165 N  
HETATM   28  C   UNL     1      -6.457  15.239  68.140  1.00  0.00    -0.125 C  
HETATM   29  O   UNL     1      -6.103  16.404  68.292  1.00  0.00    -0.111 OA 
HETATM   30  C   UNL     1      -9.571  13.941  68.404  1.00  0.00    -0.215 C  
HETATM   31  C   UNL     1     -10.017  15.320  67.883  1.00  0.00    -0.228 C  
HETATM   32  O   UNL     1      -5.722  14.220  68.634  1.00  0.00    -0.080 OA 
HETATM   33  C   UNL     1      -8.728  15.924  67.287  1.00  0.00    -0.206 C  
BRANCH  31  34
HETATM   34  C   UNL     1     -11.185  15.319  66.850  1.00  0.00    -0.256 C  
HETATM   35  C   UNL     1     -10.082  13.825  65.119  1.00  0.00    -0.314 C  
HETATM   36  C   UNL     1     -11.063  12.689  65.390  1.00  0.00    -0.327 C  
HETATM   37  C   UNL     1     -11.725  12.789  66.763  1.00  0.00    -0.459 C  
HETATM   38  C   UNL     1     -10.736  15.176  65.385  1.00  0.00    -0.396 C  
HETATM   39  C   UNL     1     -12.221  14.197  67.114  1.00  0.00    -0.348 C  
ENDBRANCH  31  34
ENDBRANCH  23  24
ENDBRANCH  11  23
ENDBRANCH  10  11
ENDBRANCH   6  10
ENDBRANCH   5   6
ENDBRANCH   3   5
ENDBRANCH   2   3
TORSDOF 13
ENDMDL
MODEL      287
REMARK 921   NORMALIZED FREE ENERGY PREDICTED BY IDOCK:   -1.85 KCAL/MOL
REMARK 922        TOTAL FREE ENERGY PREDICTED BY IDOCK:   -5.73 KCAL/MOL
REMARK 923 INTER-LIGAND FREE ENERGY PREDICTED BY IDOCK:   -6.87 KCAL/MOL
REMARK 924 INTRA-LIGAND FREE ENERGY PREDICTED BY IDOCK:    1.14 KCAL/MOL
REMARK 927      BINDING AFFINITY PREDICTED BY RF-SCORE:    0.00 PKD
ROOT
HETATM    1  C   UNL     1     -12.234  12.434  63.558  1.00  0.00    -0.661 C  
HETATM    2  C   UNL     1     -11.076  11.983  64.429  1.00  0.00    -0.399 C  
ENDROOT
BRANCH   2   3
HETATM    3  C   UNL     1     -10.993  12.536  65.849  1.00  0.00    -0.279 C  
HETATM    4  O   UNL     1     -10.056  13.228  66.232  1.00  0.00    -0.280 OA 
BRANCH   3   5
HETATM    5  O   UNL     1     -12.106  12.276  66.578  1.00  0.00    -0.616 OA 
BRANCH   5   6
HETATM    6  C   UNL     1     -12.035  11.239  67.607  1.00  0.00     0.154 C  
HETATM    7  C   UNL     1     -11.443  11.905  68.901  1.00  0.00    -0.358 C  
HETATM    8  C   UNL     1     -11.280  10.943  70.077  1.00  0.00    -0.340 C  
HETATM    9  C   UNL     1     -12.240  13.126  69.366  1.00  0.00    -0.189 C  
BRANCH   6  10
HETATM   10  O   UNL     1     -11.292  10.035  67.243  1.00  0.00    -0.159 OA 
BRANCH  10  11
HETATM   11  P   UNL     1      -9.958   9.647  68.163  1.00  0.00    -0.176 P  
HETATM   12  O   UNL     1      -9.387  11.080  68.025  1.00  0.00    -0.154 OA 
BRANCH  11  13
HETATM   13  C   UNL     1      -8.652   8.975  66.856  1.00  0.00    -0.123 C  
BRANCH  13  14
HETATM   14  C   UNL     1      -7.206   9.204  67.309  1.00  0.00    -0.083 C  
BRANCH  14  15
HETATM   15  C   UNL     1      -6.707   8.192  68.325  1.00  0.00    -0.064 C  
BRANCH  15  16
HETATM   16  C   UNL     1      -6.233   8.933  69.586  1.00  0.00    -0.039 C  
BRANCH  16  17
HETATM   17  C   UNL     1      -6.205   8.003  70.766  1.00  0.00    -0.033 A  
HETATM   18  C   UNL     1      -6.919   8.308  71.932  1.00  0.00    -0.089 A  
HETATM   19  C   UNL     1      -5.509   6.791  70.681  1.00  0.00    -0.023 A  
HETATM   20  C   UNL     1      -6.241   6.203  72.908  1.00  0.00    -0.054 A  
HETATM   21  C   UNL     1      -6.929   7.408  73.004  1.00  0.00    -0.071 A  
HETATM   22  C   UNL     1      -5.534   5.895  71.750  1.00  0.00    -0.022 A  
ENDBRANCH  16  17
ENDBRANCH  15  16
ENDBRANCH  14  15
ENDBRANCH  13  14
ENDBRANCH  11  13
BRANCH  11  23
HETATM   23  C   UNL     1     -10.633   7.954  68.325  1.00  0.00    -0.109 C  
BRANCH  23  24
HETATM   24  C   UNL     1     -11.030   7.566  69.762  1.00  0.00    -0.184 C  
HETATM   25  C   UNL     1     -10.932   6.075  71.774  1.00  0.00    -0.269 C  
HETATM   26  O   UNL     1     -11.931   8.190  70.337  1.00  0.00    -0.027 OA 
HETATM   27  N   UNL     1     -10.397   6.578  70.483  1.00  0.00    -0.197 N  
HETATM   28  C   UNL     1     -10.826   6.979  73.034  1.00  0.00    -0.309 C  
HETATM   29  O   UNL     1     -10.737   6.547  74.179  1.00  0.00    -0.207 OA 
HETATM   30  C   UNL     1      -9.056   6.059  70.300  1.00  0.00    -0.151 C  
HETATM   31  C   UNL     1      -9.042   4.674  70.972  1.00  0.00    -0.181 C  
HETATM   32  O   UNL     1     -10.973   8.300  72.800  1.00  0.00    -0.354 OA 
HETATM   33  C   UNL     1     -10.164   4.764  72.029  1.00  0.00    -0.261 C  
BRANCH  31  34
HETATM   34  C   UNL     1      -9.238   3.449  70.027  1.00  0.00    -0.220 C  
HETATM   35  C   UNL     1      -6.988   3.582  68.859  1.00  0.00    -0.046 C  
HETATM   36  C   UNL     1      -6.506   2.293  69.514  1.00  0.00    -0.029 C  
HETATM   37  C   UNL     1      -7.268   1.954  70.794  1.00  0.00    -0.033 C  
HETATM   38  C   UNL     1      -8.502   3.562  68.681  1.00  0.00    -0.102 C  
HETATM   39  C   UNL     1      -8.789   2.114  70.673  1.00  0.00    -0.131 C  
ENDBRANCH  31  34
ENDBRANCH  23  24
ENDBRANCH  11  23
ENDBRANCH  10  11
ENDBRANCH   6  10
ENDBRANCH   5   6
ENDBRANCH   3   5
ENDBRANCH   2   3
TORSDOF 13
ENDMDL
MODEL      288
REMARK 921   NORMALIZED FREE ENERGY PREDICTED BY IDOCK:   -1.84 KCAL/MOL
REMARK 922        TOTAL FREE ENERGY PREDICTED BY IDOCK:   -5.70 KCAL/MOL
REMARK 923 INTER-LIGAND FREE ENERGY PREDICTED BY IDOCK:   -6.82 KCAL/MOL
REMARK 924 INTRA-LIGAND FREE ENERGY PREDICTED BY IDOCK:    1.12 KCAL/MOL
REMARK 927      BINDING AFFINITY PREDICTED BY RF-SCORE:    0.00 PKD
ROOT
HETATM    1  C   UNL     1      -7.331   5.125  66.479  1.00  0.00    -0.086 C  
HETATM    2  C   UNL     1      -7.629   6.163  67.546  1.00  0.00    -0.093 C  
ENDROOT
BRANCH   2   3
HETATM    3  C   UNL     1      -8.999   6.122  68.217  1.00  0.00    -0.114 C  
HETATM    4  O   UNL     1      -9.976   5.604  67.687  1.00  0.00    -0.130 OA 
BRANCH   3   5
HETATM    5  O   UNL     1      -8.977   6.608  69.483  1.00  0.00    -0.138 OA 
BRANCH   5   6
HETATM    6  C   UNL     1      -9.338   8.009  69.694  1.00  0.00    -0.156 C  
HETATM    7  C   UNL     1     -10.873   8.050  70.030  1.00  0.00    -0.235 C  
HETATM    8  C   UNL     1     -11.422   9.457  70.259  1.00  0.00    -0.223 C  
HETATM    9  C   UNL     1     -11.249   7.171  71.224  1.00  0.00    -0.287 C  
BRANCH   6  10
HETATM   10  O   UNL     1      -9.010   8.920  68.600  1.00  0.00    -0.137 OA 
BRANCH  10  11
HETATM   11  P   UNL     1     -10.277   9.654  67.804  1.00  0.00    -0.234 P  
HETATM   12  O   UNL     1     -10.758   8.301  67.225  1.00  0.00    -0.289 OA 
BRANCH  11  13
HETATM   13  C   UNL     1      -9.521  10.159  66.061  1.00  0.00    -0.197 C  
BRANCH  13  14
HETATM   14  C   UNL     1      -8.292   9.321  65.694  1.00  0.00    -0.128 C  
BRANCH  14  15
HETATM   15  C   UNL     1      -7.157  10.120  65.080  1.00  0.00    -0.137 C  
BRANCH  15  16
HETATM   16  C   UNL     1      -5.933  10.055  66.008  1.00  0.00    -0.074 C  
BRANCH  16  17
HETATM   17  C   UNL     1      -6.123  10.956  67.196  1.00  0.00    -0.068 A  
HETATM   18  C   UNL     1      -6.009  10.451  68.498  1.00  0.00    -0.043 A  
HETATM   19  C   UNL     1      -6.357  12.322  67.005  1.00  0.00    -0.054 A  
HETATM   20  C   UNL     1      -6.359  12.668  69.398  1.00  0.00    -0.112 A  
HETATM   21  C   UNL     1      -6.135  11.310  69.597  1.00  0.00    -0.102 A  
HETATM   22  C   UNL     1      -6.469  13.172  68.105  1.00  0.00    -0.105 A  
ENDBRANCH  16  17
ENDBRANCH  15  16
ENDBRANCH  14  15
ENDBRANCH  13  14
ENDBRANCH  11  13
BRANCH  11  23
HETATM   23  C   UNL     1      -9.707  11.252  68.490  1.00  0.00    -0.198 C  
BRANCH  23  24
HETATM   24  C   UNL     1     -10.157  12.483  67.681  1.00  0.00    -0.217 C  
HETATM   25  C   UNL     1     -11.390  14.651  67.425  1.00  0.00    -0.356 C  
HETATM   26  O   UNL     1      -9.923  12.537  66.467  1.00  0.00    -0.233 OA 
HETATM   27  N   UNL     1     -10.773  13.578  68.247  1.00  0.00    -0.250 N  
HETATM   28  C   UNL     1     -10.465  15.641  66.665  1.00  0.00    -0.301 C  
HETATM   29  O   UNL     1     -10.773  16.799  66.403  1.00  0.00    -0.234 OA 
HETATM   30  C   UNL     1     -10.717  14.021  69.626  1.00  0.00     0.106 C  
HETATM   31  C   UNL     1     -11.947  14.923  69.833  1.00  0.00    -0.376 C  
HETATM   32  O   UNL     1      -9.326  15.099  66.183  1.00  0.00    -0.291 OA 
HETATM   33  C   UNL     1     -12.269  15.441  68.414  1.00  0.00     0.139 C  
BRANCH  31  34
HETATM   34  C   UNL     1     -13.188  14.251  70.496  1.00  0.00    -0.061 C  
HETATM   35  C   UNL     1     -12.196  13.960  72.815  1.00  0.00     0.363 C  
HETATM   36  C   UNL     1     -13.137  15.000  73.411  1.00  0.00    -0.548 C  
HETATM   37  C   UNL     1     -13.697  15.965  72.368  1.00  0.00    -0.409 C  
HETATM   38  C   UNL     1     -12.848  13.263  71.625  1.00  0.00    -0.397 C  
HETATM   39  C   UNL     1     -14.186  15.280  71.085  1.00  0.00    -0.410 C  
ENDBRANCH  31  34
ENDBRANCH  23  24
ENDBRANCH  11  23
ENDBRANCH  10  11
ENDBRANCH   6  10
ENDBRANCH   5   6
ENDBRANCH   3   5
ENDBRANCH   2   3
TORSDOF 13
ENDMDL
MODEL      289
REMARK 921   NORMALIZED FREE ENERGY PREDICTED BY IDOCK:   -1.83 KCAL/MOL
REMARK 922        TOTAL FREE ENERGY PREDICTED BY IDOCK:   -5.68 KCAL/MOL
REMARK 923 INTER-LIGAND FREE ENERGY PREDICTED BY IDOCK:   -8.10 KCAL/MOL
REMARK 924 INTRA-LIGAND FREE ENERGY PREDICTED BY IDOCK:    2.43 KCAL/MOL
REMARK 927      BINDING AFFINITY PREDICTED BY RF-SCORE:    0.00 PKD
ROOT
HETATM    1  C   UNL     1     -11.290  15.414  71.320  1.00  0.00    -0.441 C  
HETATM    2  C   UNL     1     -11.596  14.325  70.308  1.00  0.00    -0.289 C  
ENDROOT
BRANCH   2   3
HETATM    3  C   UNL     1     -11.367  14.639  68.831  1.00  0.00    -0.283 C  
HETATM    4  O   UNL     1     -12.257  15.071  68.105  1.00  0.00    -0.142 OA 
BRANCH   3   5
HETATM    5  O   UNL     1     -10.071  14.500  68.461  1.00  0.00    -0.228 OA 
BRANCH   5   6
HETATM    6  C   UNL     1      -9.632  13.202  67.950  1.00  0.00    -0.218 C  
HETATM    7  C   UNL     1     -10.287  13.012  66.534  1.00  0.00    -0.278 C  
HETATM    8  C   UNL     1      -9.945  11.682  65.863  1.00  0.00    -0.264 C  
HETATM    9  C   UNL     1      -9.965  14.153  65.566  1.00  0.00    -0.323 C  
BRANCH   6  10
HETATM   10  O   UNL     1      -9.898  12.056  68.815  1.00  0.00    -0.158 OA 
BRANCH  10  11
HETATM   11  P   UNL     1     -10.780  10.796  68.174  1.00  0.00    -0.259 P  
HETATM   12  O   UNL     1     -11.942  11.743  67.788  1.00  0.00    -0.586 OA 
BRANCH  11  13
HETATM   13  C   UNL     1     -11.814  10.108  69.697  1.00  0.00    -0.045 C  
BRANCH  13  14
HETATM   14  C   UNL     1     -11.322   8.732  70.161  1.00  0.00    -0.099 C  
BRANCH  14  15
HETATM   15  C   UNL     1     -11.086   8.629  71.657  1.00  0.00    -0.375 C  
BRANCH  15  16
HETATM   16  C   UNL     1     -11.899   7.451  72.218  1.00  0.00    -0.307 C  
BRANCH  16  17
HETATM   17  C   UNL     1     -10.984   6.356  72.690  1.00  0.00    -0.284 A  
HETATM   18  C   UNL     1      -9.608   6.584  72.820  1.00  0.00    -0.157 A  
HETATM   19  C   UNL     1     -11.515   5.115  73.061  1.00  0.00    -0.349 A  
HETATM   20  C   UNL     1      -9.311   4.346  73.686  1.00  0.00    -0.119 A  
HETATM   21  C   UNL     1      -8.773   5.573  73.311  1.00  0.00    -0.115 A  
HETATM   22  C   UNL     1     -10.678   4.118  73.561  1.00  0.00    -0.310 A  
ENDBRANCH  16  17
ENDBRANCH  15  16
ENDBRANCH  14  15
ENDBRANCH  13  14
ENDBRANCH  11  13
BRANCH  11  23
HETATM   23  C   UNL     1      -9.405   9.677  68.630  1.00  0.00    -0.143 C  
BRANCH  23  24
HETATM   24  C   UNL     1      -8.725   8.989  67.431  1.00  0.00    -0.119 C  
HETATM   25  C   UNL     1      -8.377   7.053  65.878  1.00  0.00    -0.141 C  
HETATM   26  O   UNL     1      -7.756   9.531  66.884  1.00  0.00    -0.097 OA 
HETATM   27  N   UNL     1      -9.169   7.805  66.885  1.00  0.00    -0.144 N  
HETATM   28  C   UNL     1      -8.275   7.612  64.432  1.00  0.00    -0.028 C  
HETATM   29  O   UNL     1      -8.126   6.910  63.437  1.00  0.00    -0.096 OA 
HETATM   30  C   UNL     1     -10.499   7.232  66.955  1.00  0.00    -0.299 C  
HETATM   31  C   UNL     1     -10.329   5.730  66.664  1.00  0.00    -0.300 C  
HETATM   32  O   UNL     1      -8.228   8.959  64.345  1.00  0.00    -0.148 OA 
HETATM   33  C   UNL     1      -9.030   5.658  65.833  1.00  0.00    -0.160 C  
BRANCH  31  34
HETATM   34  C   UNL     1     -10.270   4.792  67.909  1.00  0.00    -0.067 C  
HETATM   35  C   UNL     1      -7.856   4.053  67.640  1.00  0.00    -0.090 C  
HETATM   36  C   UNL     1      -7.424   4.814  68.888  1.00  0.00    -0.061 C  
HETATM   37  C   UNL     1      -8.386   5.939  69.263  1.00  0.00    -0.113 C  
HETATM   38  C   UNL     1      -9.307   3.601  67.761  1.00  0.00    -0.242 C  
HETATM   39  C   UNL     1      -9.865   5.538  69.205  1.00  0.00    -0.227 C  
ENDBRANCH  31  34
ENDBRANCH  23  24
ENDBRANCH  11  23
ENDBRANCH  10  11
ENDBRANCH   6  10
ENDBRANCH   5   6
ENDBRANCH   3   5
ENDBRANCH   2   3
TORSDOF 13
ENDMDL
MODEL      290
REMARK 921   NORMALIZED FREE ENERGY PREDICTED BY IDOCK:   -1.78 KCAL/MOL
REMARK 922        TOTAL FREE ENERGY PREDICTED BY IDOCK:   -5.60 KCAL/MOL
REMARK 923 INTER-LIGAND FREE ENERGY PREDICTED BY IDOCK:   -6.02 KCAL/MOL
REMARK 924 INTRA-LIGAND FREE ENERGY PREDICTED BY IDOCK:    0.42 KCAL/MOL
REMARK 927      BINDING AFFINITY PREDICTED BY RF-SCORE:    0.00 PKD
ROOT
HETATM    1  C   UNL     1      -6.298  16.504  68.587  1.00  0.00    -0.139 C  
HETATM    2  C   UNL     1      -7.718  15.981  68.476  1.00  0.00    -0.158 C  
ENDROOT
BRANCH   2   3
HETATM    3  C   UNL     1      -8.861  16.983  68.620  1.00  0.00    -0.267 C  
HETATM    4  O   UNL     1      -8.672  18.194  68.666  1.00  0.00    -0.306 OA 
BRANCH   3   5
HETATM    5  O   UNL     1     -10.082  16.395  68.571  1.00  0.00    -0.230 OA 
BRANCH   5   6
HETATM    6  C   UNL     1     -10.428  15.614  67.384  1.00  0.00    -0.291 C  
HETATM    7  C   UNL     1     -10.662  16.631  66.208  1.00  0.00    -0.119 C  
HETATM    8  C   UNL     1     -11.058  15.974  64.887  1.00  0.00    -0.381 C  
HETATM    9  C   UNL     1      -9.465  17.552  65.964  1.00  0.00    -0.095 C  
BRANCH   6  10
HETATM   10  O   UNL     1     -11.562  14.705  67.532  1.00  0.00    -0.349 OA 
BRANCH  10  11
HETATM   11  P   UNL     1     -11.556  13.314  66.616  1.00  0.00    -0.404 P  
HETATM   12  O   UNL     1     -13.000  13.576  66.122  1.00  0.00    -0.172 OA 
BRANCH  11  13
HETATM   13  C   UNL     1     -12.204  11.925  67.847  1.00  0.00     0.366 C  
BRANCH  13  14
HETATM   14  C   UNL     1     -12.784  12.515  69.137  1.00  0.00     0.929 C  
BRANCH  14  15
HETATM   15  C   UNL     1     -11.849  12.437  70.330  1.00  0.00    -0.249 C  
BRANCH  15  16
HETATM   16  C   UNL     1     -12.652  12.031  71.576  1.00  0.00    -0.279 C  
BRANCH  16  17
HETATM   17  C   UNL     1     -12.669  10.535  71.728  1.00  0.00    -0.508 A  
HETATM   18  C   UNL     1     -13.632   9.912  72.531  1.00  0.00    -0.139 A  
HETATM   19  C   UNL     1     -11.754   9.752  71.015  1.00  0.00    -0.453 A  
HETATM   20  C   UNL     1     -12.764   7.744  71.905  1.00  0.00    -0.328 A  
HETATM   21  C   UNL     1     -13.672   8.515  72.622  1.00  0.00    -0.207 A  
HETATM   22  C   UNL     1     -11.808   8.361  71.103  1.00  0.00    -0.314 A  
ENDBRANCH  16  17
ENDBRANCH  15  16
ENDBRANCH  14  15
ENDBRANCH  13  14
ENDBRANCH  11  13
BRANCH  11  23
HETATM   23  C   UNL     1      -9.850  13.004  67.199  1.00  0.00    -0.230 C  
BRANCH  23  24
HETATM   24  C   UNL     1      -9.158  11.805  66.523  1.00  0.00    -0.203 C  
HETATM   25  C   UNL     1      -8.184   9.495  66.541  1.00  0.00    -0.119 C  
HETATM   26  O   UNL     1      -8.719  11.921  65.371  1.00  0.00     0.206 OA 
HETATM   27  N   UNL     1      -9.038  10.566  67.115  1.00  0.00    -0.143 N  
HETATM   28  C   UNL     1      -8.656   8.767  65.252  1.00  0.00    -0.187 C  
HETATM   29  O   UNL     1      -8.365   7.607  64.978  1.00  0.00    -0.135 OA 
HETATM   30  C   UNL     1      -9.855   9.997  68.168  1.00  0.00    -0.142 C  
HETATM   31  C   UNL     1      -9.009   8.878  68.803  1.00  0.00    -0.134 C  
HETATM   32  O   UNL     1      -9.312   9.546  64.367  1.00  0.00    -0.216 OA 
HETATM   33  C   UNL     1      -8.037   8.465  67.677  1.00  0.00    -0.118 C  
BRANCH  31  34
HETATM   34  C   UNL     1      -8.249   9.251  70.113  1.00  0.00    -0.176 C  
HETATM   35  C   UNL     1      -7.452   6.913  70.698  1.00  0.00    -0.082 C  
HETATM   36  C   UNL     1      -5.999   7.274  70.412  1.00  0.00    -0.027 C  
HETATM   37  C   UNL     1      -5.856   8.484  69.492  1.00  0.00    -0.030 C  
HETATM   38  C   UNL     1      -8.227   8.137  71.173  1.00  0.00    -0.123 C  
HETATM   39  C   UNL     1      -6.775   9.656  69.857  1.00  0.00    -0.069 C  
ENDBRANCH  31  34
ENDBRANCH  23  24
ENDBRANCH  11  23
ENDBRANCH  10  11
ENDBRANCH   6  10
ENDBRANCH   5   6
ENDBRANCH   3   5
ENDBRANCH   2   3
TORSDOF 13
ENDMDL
MODEL      291
REMARK 921   NORMALIZED FREE ENERGY PREDICTED BY IDOCK:   -1.78 KCAL/MOL
REMARK 922        TOTAL FREE ENERGY PREDICTED BY IDOCK:   -5.59 KCAL/MOL
REMARK 923 INTER-LIGAND FREE ENERGY PREDICTED BY IDOCK:   -5.67 KCAL/MOL
REMARK 924 INTRA-LIGAND FREE ENERGY PREDICTED BY IDOCK:    0.08 KCAL/MOL
REMARK 927      BINDING AFFINITY PREDICTED BY RF-SCORE:    0.00 PKD
ROOT
HETATM    1  C   UNL     1     -11.677  12.449  66.579  1.00  0.00    -0.443 C  
HETATM    2  C   UNL     1     -10.743  12.463  67.775  1.00  0.00    -0.247 C  
ENDROOT
BRANCH   2   3
HETATM    3  C   UNL     1     -10.033  11.162  68.141  1.00  0.00    -0.178 C  
HETATM    4  O   UNL     1      -9.272  10.588  67.369  1.00  0.00    -0.142 OA 
BRANCH   3   5
HETATM    5  O   UNL     1     -10.246  10.793  69.428  1.00  0.00    -0.217 OA 
BRANCH   5   6
HETATM    6  C   UNL     1     -11.501  10.117  69.756  1.00  0.00    -0.228 C  
HETATM    7  C   UNL     1     -12.109  10.845  71.010  1.00  0.00    -0.425 C  
HETATM    8  C   UNL     1     -13.425  10.242  71.501  1.00  0.00    -0.336 C  
HETATM    9  C   UNL     1     -12.302  12.348  70.795  1.00  0.00    -0.377 C  
BRANCH   6  10
HETATM   10  O   UNL     1     -11.406   8.676  69.975  1.00  0.00    -0.164 OA 
BRANCH  10  11
HETATM   11  P   UNL     1     -10.121   8.117  70.876  1.00  0.00    -0.195 P  
HETATM   12  O   UNL     1     -10.752   8.641  72.188  1.00  0.00    -0.327 OA 
BRANCH  11  13
HETATM   13  C   UNL     1      -8.842   9.610  70.866  1.00  0.00     0.235 C  
BRANCH  13  14
HETATM   14  C   UNL     1      -7.478   9.203  70.298  1.00  0.00    -0.099 C  
BRANCH  14  15
HETATM   15  C   UNL     1      -6.334   9.312  71.291  1.00  0.00    -0.072 C  
BRANCH  15  16
HETATM   16  C   UNL     1      -5.649  10.678  71.125  1.00  0.00    -0.023 C  
BRANCH  16  17
HETATM   17  C   UNL     1      -5.669  11.107  69.685  1.00  0.00    -0.061 A  
HETATM   18  C   UNL     1      -5.137  10.280  68.687  1.00  0.00    -0.038 A  
HETATM   19  C   UNL     1      -6.277  12.316  69.326  1.00  0.00    -0.098 A  
HETATM   20  C   UNL     1      -5.823  11.864  66.995  1.00  0.00    -0.153 A  
HETATM   21  C   UNL     1      -5.210  10.666  67.344  1.00  0.00    -0.040 A  
HETATM   22  C   UNL     1      -6.356  12.686  67.984  1.00  0.00    -0.093 A  
ENDBRANCH  16  17
ENDBRANCH  15  16
ENDBRANCH  14  15
ENDBRANCH  13  14
ENDBRANCH  11  13
BRANCH  11  23
HETATM   23  C   UNL     1      -9.375   7.497  69.324  1.00  0.00    -0.151 C  
BRANCH  23  24
HETATM   24  C   UNL     1      -9.737   6.039  68.986  1.00  0.00    -0.133 C  
HETATM   25  C   UNL     1      -9.540   3.959  67.602  1.00  0.00    -0.153 C  
HETATM   26  O   UNL     1     -10.663   5.482  69.590  1.00  0.00    -0.322 OA 
HETATM   27  N   UNL     1      -9.045   5.279  68.068  1.00  0.00    -0.109 N  
HETATM   28  C   UNL     1      -9.467   2.745  68.569  1.00  0.00    -0.134 C  
HETATM   29  O   UNL     1      -9.344   1.582  68.198  1.00  0.00    -0.154 OA 
HETATM   30  C   UNL     1      -7.681   5.455  67.610  1.00  0.00    -0.092 C  
HETATM   31  C   UNL     1      -7.588   4.717  66.262  1.00  0.00    -0.091 C  
HETATM   32  O   UNL     1      -9.685   3.040  69.868  1.00  0.00    -0.103 OA 
HETATM   33  C   UNL     1      -8.702   3.652  66.345  1.00  0.00    -0.121 C  
BRANCH  31  34
HETATM   34  C   UNL     1      -7.730   5.601  64.984  1.00  0.00    -0.094 C  
HETATM   35  C   UNL     1      -6.964   7.789  66.019  1.00  0.00    -0.061 C  
HETATM   36  C   UNL     1      -5.677   7.792  65.201  1.00  0.00    -0.037 C  
HETATM   37  C   UNL     1      -5.285   6.402  64.702  1.00  0.00    -0.021 C  
HETATM   38  C   UNL     1      -8.079   7.072  65.265  1.00  0.00    -0.134 C  
HETATM   39  C   UNL     1      -6.451   5.602  64.109  1.00  0.00    -0.033 C  
ENDBRANCH  31  34
ENDBRANCH  23  24
ENDBRANCH  11  23
ENDBRANCH  10  11
ENDBRANCH   6  10
ENDBRANCH   5   6
ENDBRANCH   3   5
ENDBRANCH   2   3
TORSDOF 13
ENDMDL
MODEL      292
REMARK 921   NORMALIZED FREE ENERGY PREDICTED BY IDOCK:   -1.75 KCAL/MOL
REMARK 922        TOTAL FREE ENERGY PREDICTED BY IDOCK:   -5.55 KCAL/MOL
REMARK 923 INTER-LIGAND FREE ENERGY PREDICTED BY IDOCK:   -7.23 KCAL/MOL
REMARK 924 INTRA-LIGAND FREE ENERGY PREDICTED BY IDOCK:    1.68 KCAL/MOL
REMARK 927      BINDING AFFINITY PREDICTED BY RF-SCORE:    0.00 PKD
ROOT
HETATM    1  C   UNL     1     -12.479  11.500  70.997  1.00  0.00    -0.458 C  
HETATM    2  C   UNL     1     -12.198  10.842  69.659  1.00  0.00    -0.354 C  
ENDROOT
BRANCH   2   3
HETATM    3  C   UNL     1     -11.650  11.718  68.535  1.00  0.00    -0.321 C  
HETATM    4  O   UNL     1     -12.183  12.771  68.201  1.00  0.00    -0.198 OA 
BRANCH   3   5
HETATM    5  O   UNL     1     -10.471  11.263  68.044  1.00  0.00    -0.177 OA 
BRANCH   5   6
HETATM    6  C   UNL     1      -9.247  11.971  68.415  1.00  0.00    -0.160 C  
HETATM    7  C   UNL     1      -8.672  12.627  67.106  1.00  0.00    -0.201 C  
HETATM    8  C   UNL     1      -7.368  13.395  67.316  1.00  0.00    -0.039 C  
HETATM    9  C   UNL     1      -9.678  13.540  66.403  1.00  0.00    -0.296 C  
BRANCH   6  10
HETATM   10  O   UNL     1      -8.232  11.171  69.096  1.00  0.00    -0.109 OA 
BRANCH  10  11
HETATM   11  P   UNL     1      -8.074   9.577  68.637  1.00  0.00    -0.099 P  
HETATM   12  O   UNL     1      -7.721   9.981  67.184  1.00  0.00    -0.092 OA 
BRANCH  11  13
HETATM   13  C   UNL     1      -9.885   9.056  68.077  1.00  0.00    -0.166 C  
BRANCH  13  14
HETATM   14  C   UNL     1      -9.903   8.419  66.683  1.00  0.00    -0.343 C  
BRANCH  14  15
HETATM   15  C   UNL     1     -10.643   7.095  66.615  1.00  0.00    -0.164 C  
BRANCH  15  16
HETATM   16  C   UNL     1     -10.500   6.366  67.961  1.00  0.00    -0.271 C  
BRANCH  16  17
HETATM   17  C   UNL     1      -9.915   4.996  67.759  1.00  0.00    -0.198 A  
HETATM   18  C   UNL     1      -9.528   4.568  66.483  1.00  0.00    -0.180 A  
HETATM   19  C   UNL     1      -9.697   4.162  68.862  1.00  0.00    -0.176 A  
HETATM   20  C   UNL     1      -8.714   2.492  67.417  1.00  0.00    -0.138 A  
HETATM   21  C   UNL     1      -8.934   3.311  66.315  1.00  0.00    -0.151 A  
HETATM   22  C   UNL     1      -9.094   2.917  68.687  1.00  0.00    -0.213 A  
ENDBRANCH  16  17
ENDBRANCH  15  16
ENDBRANCH  14  15
ENDBRANCH  13  14
ENDBRANCH  11  13
BRANCH  11  23
HETATM   23  C   UNL     1      -8.491   9.100  70.353  1.00  0.00    -0.199 C  
BRANCH  23  24
HETATM   24  C   UNL     1      -7.518   8.085  70.982  1.00  0.00    -0.071 C  
HETATM   25  C   UNL     1      -7.003   6.015  72.298  1.00  0.00    -0.082 C  
HETATM   26  O   UNL     1      -6.304   8.324  70.988  1.00  0.00    -0.036 OA 
HETATM   27  N   UNL     1      -7.919   6.876  71.507  1.00  0.00    -0.104 N  
HETATM   28  C   UNL     1      -5.867   5.251  71.563  1.00  0.00    -0.024 C  
HETATM   29  O   UNL     1      -5.404   4.182  71.945  1.00  0.00     0.000 OA 
HETATM   30  C   UNL     1      -9.117   6.121  71.198  1.00  0.00    -0.146 C  
HETATM   31  C   UNL     1      -9.339   5.171  72.388  1.00  0.00    -0.155 C  
HETATM   32  O   UNL     1      -5.315   5.915  70.524  1.00  0.00    -0.012 OA 
HETATM   33  C   UNL     1      -7.928   4.996  72.990  1.00  0.00    -0.101 C  
BRANCH  31  34
HETATM   34  C   UNL     1     -10.369   5.643  73.461  1.00  0.00    -0.254 C  
HETATM   35  C   UNL     1     -10.545   8.057  72.698  1.00  0.00    -0.419 C  
HETATM   36  C   UNL     1     -11.978   7.861  72.215  1.00  0.00    -0.387 C  
HETATM   37  C   UNL     1     -12.316   6.399  71.932  1.00  0.00    -0.279 C  
HETATM   38  C   UNL     1     -10.236   7.122  73.861  1.00  0.00    -0.358 C  
HETATM   39  C   UNL     1     -11.838   5.428  73.018  1.00  0.00    -0.096 C  
ENDBRANCH  31  34
ENDBRANCH  23  24
ENDBRANCH  11  23
ENDBRANCH  10  11
ENDBRANCH   6  10
ENDBRANCH   5   6
ENDBRANCH   3   5
ENDBRANCH   2   3
TORSDOF 13
ENDMDL
MODEL      293
REMARK 921   NORMALIZED FREE ENERGY PREDICTED BY IDOCK:   -1.74 KCAL/MOL
REMARK 922        TOTAL FREE ENERGY PREDICTED BY IDOCK:   -5.52 KCAL/MOL
REMARK 923 INTER-LIGAND FREE ENERGY PREDICTED BY IDOCK:   -5.73 KCAL/MOL
REMARK 924 INTRA-LIGAND FREE ENERGY PREDICTED BY IDOCK:    0.21 KCAL/MOL
REMARK 927      BINDING AFFINITY PREDICTED BY RF-SCORE:    0.00 PKD
ROOT
HETATM    1  C   UNL     1     -10.467  13.019  69.372  1.00  0.00     0.334 C  
HETATM    2  C   UNL     1     -10.108  11.798  68.546  1.00  0.00    -0.212 C  
ENDROOT
BRANCH   2   3
HETATM    3  C   UNL     1      -8.632  11.547  68.248  1.00  0.00    -0.161 C  
HETATM    4  O   UNL     1      -7.787  11.465  69.133  1.00  0.00    -0.085 OA 
BRANCH   3   5
HETATM    5  O   UNL     1      -8.395  11.314  66.934  1.00  0.00    -0.142 OA 
BRANCH   5   6
HETATM    6  C   UNL     1      -7.394  10.308  66.577  1.00  0.00    -0.113 C  
HETATM    7  C   UNL     1      -6.278  11.035  65.743  1.00  0.00     0.004 C  
HETATM    8  C   UNL     1      -5.157  10.113  65.267  1.00  0.00    -0.063 C  
HETATM    9  C   UNL     1      -5.662  12.228  66.476  1.00  0.00     0.682 C  
BRANCH   6  10
HETATM   10  O   UNL     1      -7.900   9.132  65.875  1.00  0.00    -0.102 OA 
BRANCH  10  11
HETATM   11  P   UNL     1      -9.360   9.276  65.086  1.00  0.00     0.029 P  
HETATM   12  O   UNL     1      -8.658   9.599  63.745  1.00  0.00    -0.177 OA 
BRANCH  11  13
HETATM   13  C   UNL     1      -9.846  11.167  65.314  1.00  0.00    -0.249 C  
BRANCH  13  14
HETATM   14  C   UNL     1     -11.206  11.498  64.690  1.00  0.00    -0.276 C  
BRANCH  14  15
HETATM   15  C   UNL     1     -11.602  12.960  64.804  1.00  0.00    -0.373 C  
BRANCH  15  16
HETATM   16  C   UNL     1     -10.343  13.835  64.690  1.00  0.00    -0.393 C  
BRANCH  16  17
HETATM   17  C   UNL     1     -10.276  14.814  65.828  1.00  0.00    -0.359 A  
HETATM   18  C   UNL     1      -9.046  15.332  66.251  1.00  0.00    -0.337 A  
HETATM   19  C   UNL     1     -11.457  15.261  66.433  1.00  0.00    -0.087 A  
HETATM   20  C   UNL     1     -10.179  16.729  67.866  1.00  0.00    -0.300 A  
HETATM   21  C   UNL     1      -9.001  16.284  67.276  1.00  0.00    -0.209 A  
HETATM   22  C   UNL     1     -11.404  16.219  67.445  1.00  0.00     0.113 A  
ENDBRANCH  16  17
ENDBRANCH  15  16
ENDBRANCH  14  15
ENDBRANCH  13  14
ENDBRANCH  11  13
BRANCH  11  23
HETATM   23  C   UNL     1     -10.191   8.894  66.671  1.00  0.00    -0.268 C  
BRANCH  23  24
HETATM   24  C   UNL     1      -9.772   7.552  67.298  1.00  0.00    -0.167 C  
HETATM   25  C   UNL     1      -9.686   5.905  69.186  1.00  0.00    -0.140 C  
HETATM   26  O   UNL     1      -8.990   6.809  66.689  1.00  0.00    -0.133 OA 
HETATM   27  N   UNL     1     -10.262   7.090  68.500  1.00  0.00    -0.166 N  
HETATM   28  C   UNL     1      -9.958   4.492  68.601  1.00  0.00    -0.041 C  
HETATM   29  O   UNL     1     -10.006   3.470  69.278  1.00  0.00     0.068 OA 
HETATM   30  C   UNL     1     -11.503   7.451  69.156  1.00  0.00     0.432 C  
HETATM   31  C   UNL     1     -11.320   7.086  70.640  1.00  0.00    -0.349 C  
HETATM   32  O   UNL     1     -10.011   4.435  67.253  1.00  0.00    -0.183 OA 
HETATM   33  C   UNL     1     -10.250   5.974  70.619  1.00  0.00    -0.260 C  
BRANCH  31  34
HETATM   34  C   UNL     1     -10.917   8.256  71.591  1.00  0.00    -0.327 C  
HETATM   35  C   UNL     1     -12.451  10.019  70.598  1.00  0.00    -0.321 C  
HETATM   36  C   UNL     1     -13.325  10.045  71.847  1.00  0.00    -0.516 C  
HETATM   37  C   UNL     1     -13.206   8.772  72.684  1.00  0.00    -0.331 C  
HETATM   38  C   UNL     1     -11.014   9.653  70.954  1.00  0.00    -0.412 C  
HETATM   39  C   UNL     1     -11.764   8.294  72.888  1.00  0.00    -0.139 C  
ENDBRANCH  31  34
ENDBRANCH  23  24
ENDBRANCH  11  23
ENDBRANCH  10  11
ENDBRANCH   6  10
ENDBRANCH   5   6
ENDBRANCH   3   5
ENDBRANCH   2   3
TORSDOF 13
ENDMDL
MODEL      294
REMARK 921   NORMALIZED FREE ENERGY PREDICTED BY IDOCK:   -1.65 KCAL/MOL
REMARK 922        TOTAL FREE ENERGY PREDICTED BY IDOCK:   -5.38 KCAL/MOL
REMARK 923 INTER-LIGAND FREE ENERGY PREDICTED BY IDOCK:   -7.28 KCAL/MOL
REMARK 924 INTRA-LIGAND FREE ENERGY PREDICTED BY IDOCK:    1.91 KCAL/MOL
REMARK 927      BINDING AFFINITY PREDICTED BY RF-SCORE:    0.00 PKD
ROOT
HETATM    1  C   UNL     1      -6.723  12.332  67.176  1.00  0.00    -0.105 C  
HETATM    2  C   UNL     1      -8.178  12.163  66.780  1.00  0.00    -0.085 C  
ENDROOT
BRANCH   2   3
HETATM    3  C   UNL     1      -8.507  11.152  65.685  1.00  0.00    -0.043 C  
HETATM    4  O   UNL     1      -9.383  11.348  64.849  1.00  0.00    -0.203 OA 
BRANCH   3   5
HETATM    5  O   UNL     1      -7.658  10.095  65.676  1.00  0.00    -0.130 OA 
BRANCH   5   6
HETATM    6  C   UNL     1      -7.923   8.985  66.591  1.00  0.00    -0.100 C  
HETATM    7  C   UNL     1      -8.733   7.903  65.789  1.00  0.00    -0.163 C  
HETATM    8  C   UNL     1      -9.114   6.674  66.614  1.00  0.00    -0.159 C  
HETATM    9  C   UNL     1      -8.022   7.444  64.515  1.00  0.00    -0.122 C  
BRANCH   6  10
HETATM   10  O   UNL     1      -8.598   9.338  67.837  1.00  0.00    -0.120 OA 
BRANCH  10  11
HETATM   11  P   UNL     1      -9.995   8.513  68.215  1.00  0.00    -0.196 P  
HETATM   12  O   UNL     1     -10.784   9.241  67.100  1.00  0.00    -0.251 OA 
BRANCH  11  13
HETATM   13  C   UNL     1     -10.856   9.628  69.586  1.00  0.00    -0.244 C  
BRANCH  13  14
HETATM   14  C   UNL     1     -10.693  11.125  69.305  1.00  0.00    -0.241 C  
BRANCH  14  15
HETATM   15  C   UNL     1     -11.943  11.794  68.761  1.00  0.00    -0.317 C  
BRANCH  15  16
HETATM   16  C   UNL     1     -11.735  13.317  68.743  1.00  0.00    -0.366 C  
BRANCH  16  17
HETATM   17  C   UNL     1     -11.590  13.813  67.332  1.00  0.00    -0.393 A  
HETATM   18  C   UNL     1     -12.120  13.081  66.261  1.00  0.00    -0.453 A  
HETATM   19  C   UNL     1     -10.974  15.045  67.086  1.00  0.00    -0.329 A  
HETATM   20  C   UNL     1     -11.419  14.808  64.722  1.00  0.00    -0.410 A  
HETATM   21  C   UNL     1     -12.026  13.579  64.956  1.00  0.00    -0.399 A  
HETATM   22  C   UNL     1     -10.895  15.539  65.784  1.00  0.00    -0.337 A  
ENDBRANCH  16  17
ENDBRANCH  15  16
ENDBRANCH  14  15
ENDBRANCH  13  14
ENDBRANCH  11  13
BRANCH  11  23
HETATM   23  C   UNL     1      -9.062   7.652  69.534  1.00  0.00    -0.146 C  
BRANCH  23  24
HETATM   24  C   UNL     1      -9.879   6.595  70.300  1.00  0.00    -0.174 C  
HETATM   25  C   UNL     1     -10.089   4.630  71.842  1.00  0.00    -0.198 C  
HETATM   26  O   UNL     1     -11.092   6.482  70.081  1.00  0.00    -0.289 OA 
HETATM   27  N   UNL     1      -9.342   5.781  71.274  1.00  0.00    -0.146 N  
HETATM   28  C   UNL     1     -11.272   4.906  72.810  1.00  0.00    -0.183 C  
HETATM   29  O   UNL     1     -11.617   4.139  73.704  1.00  0.00    -0.195 OA 
HETATM   30  C   UNL     1      -8.159   6.013  72.079  1.00  0.00    -0.107 C  
HETATM   31  C   UNL     1      -7.720   4.631  72.594  1.00  0.00    -0.087 C  
HETATM   32  O   UNL     1     -12.000   6.005  72.520  1.00  0.00    -0.258 OA 
HETATM   33  C   UNL     1      -9.020   3.799  72.577  1.00  0.00    -0.127 C  
BRANCH  31  34
HETATM   34  C   UNL     1      -6.577   3.931  71.795  1.00  0.00    -0.019 C  
HETATM   35  C   UNL     1      -7.871   3.560  69.643  1.00  0.00    -0.053 C  
HETATM   36  C   UNL     1      -7.020   4.575  68.888  1.00  0.00    -0.051 C  
HETATM   37  C   UNL     1      -6.326   5.575  69.812  1.00  0.00    -0.033 C  
HETATM   38  C   UNL     1      -7.065   2.905  70.758  1.00  0.00    -0.033 C  
HETATM   39  C   UNL     1      -5.670   4.935  71.041  1.00  0.00    -0.016 C  
ENDBRANCH  31  34
ENDBRANCH  23  24
ENDBRANCH  11  23
ENDBRANCH  10  11
ENDBRANCH   6  10
ENDBRANCH   5   6
ENDBRANCH   3   5
ENDBRANCH   2   3
TORSDOF 13
ENDMDL
MODEL      295
REMARK 921   NORMALIZED FREE ENERGY PREDICTED BY IDOCK:   -1.65 KCAL/MOL
REMARK 922        TOTAL FREE ENERGY PREDICTED BY IDOCK:   -5.36 KCAL/MOL
REMARK 923 INTER-LIGAND FREE ENERGY PREDICTED BY IDOCK:   -5.88 KCAL/MOL
REMARK 924 INTRA-LIGAND FREE ENERGY PREDICTED BY IDOCK:    0.52 KCAL/MOL
REMARK 927      BINDING AFFINITY PREDICTED BY RF-SCORE:    0.00 PKD
ROOT
HETATM    1  C   UNL     1      -9.823   5.773  68.574  1.00  0.00    -0.177 C  
HETATM    2  C   UNL     1     -10.667   6.002  69.814  1.00  0.00    -0.399 C  
ENDROOT
BRANCH   2   3
HETATM    3  C   UNL     1     -10.857   7.439  70.292  1.00  0.00    -0.245 C  
HETATM    4  O   UNL     1     -11.906   7.832  70.793  1.00  0.00    -0.271 OA 
BRANCH   3   5
HETATM    5  O   UNL     1      -9.722   8.174  70.207  1.00  0.00    -0.174 OA 
BRANCH   5   6
HETATM    6  C   UNL     1      -8.520   7.533  69.673  1.00  0.00    -0.135 C  
HETATM    7  C   UNL     1      -7.369   7.754  70.721  1.00  0.00    -0.065 C  
HETATM    8  C   UNL     1      -6.025   7.160  70.303  1.00  0.00    -0.024 C  
HETATM    9  C   UNL     1      -7.724   7.243  72.119  1.00  0.00    -0.090 C  
BRANCH   6  10
HETATM   10  O   UNL     1      -8.112   7.963  68.339  1.00  0.00    -0.120 OA 
BRANCH  10  11
HETATM   11  P   UNL     1      -8.473   9.527  67.890  1.00  0.00    -0.118 P  
HETATM   12  O   UNL     1      -9.989   9.283  68.085  1.00  0.00    -0.163 OA 
BRANCH  11  13
HETATM   13  C   UNL     1      -8.684   9.430  65.938  1.00  0.00    -0.154 C  
BRANCH  13  14
HETATM   14  C   UNL     1     -10.116   9.745  65.491  1.00  0.00    -0.242 C  
BRANCH  14  15
HETATM   15  C   UNL     1     -10.228  10.945  64.569  1.00  0.00    -0.422 C  
BRANCH  15  16
HETATM   16  C   UNL     1      -9.515  12.146  65.212  1.00  0.00     0.011 C  
BRANCH  16  17
HETATM   17  C   UNL     1     -10.491  13.256  65.483  1.00  0.00    -0.295 A  
HETATM   18  C   UNL     1     -11.124  13.922  64.425  1.00  0.00    -0.332 A  
HETATM   19  C   UNL     1     -10.818  13.591  66.802  1.00  0.00    -0.284 A  
HETATM   20  C   UNL     1     -12.396  15.239  66.004  1.00  0.00     0.697 A  
HETATM   21  C   UNL     1     -12.072  14.918  64.691  1.00  0.00    -0.387 A  
HETATM   22  C   UNL     1     -11.771  14.576  67.057  1.00  0.00    -0.412 A  
ENDBRANCH  16  17
ENDBRANCH  15  16
ENDBRANCH  14  15
ENDBRANCH  13  14
ENDBRANCH  11  13
BRANCH  11  23
HETATM   23  C   UNL     1      -6.681   9.815  67.659  1.00  0.00    -0.069 C  
BRANCH  23  24
HETATM   24  C   UNL     1      -6.019  10.627  68.788  1.00  0.00    -0.040 C  
HETATM   25  C   UNL     1      -5.563  12.759  70.026  1.00  0.00    -0.125 C  
HETATM   26  O   UNL     1      -5.170  10.091  69.511  1.00  0.00    -0.038 OA 
HETATM   27  N   UNL     1      -6.358  11.929  69.084  1.00  0.00    -0.083 N  
HETATM   28  C   UNL     1      -5.646  12.456  71.547  1.00  0.00     0.267 C  
HETATM   29  O   UNL     1      -5.492  13.302  72.422  1.00  0.00    -0.403 OA 
HETATM   30  C   UNL     1      -7.598  12.619  68.788  1.00  0.00    -0.022 C  
HETATM   31  C   UNL     1      -7.270  14.122  68.840  1.00  0.00    -0.118 C  
HETATM   32  O   UNL     1      -5.770  11.148  71.861  1.00  0.00    -0.170 OA 
HETATM   33  C   UNL     1      -6.042  14.201  69.772  1.00  0.00    -0.132 C  
BRANCH  31  34
HETATM   34  C   UNL     1      -6.998  14.815  67.469  1.00  0.00    -0.198 C  
HETATM   35  C   UNL     1      -8.439  16.869  67.855  1.00  0.00    -0.203 C  
HETATM   36  C   UNL     1      -7.219  17.782  67.927  1.00  0.00    -0.210 C  
HETATM   37  C   UNL     1      -5.935  17.033  68.275  1.00  0.00    -0.134 C  
HETATM   38  C   UNL     1      -8.163  15.674  66.950  1.00  0.00    -0.288 C  
HETATM   39  C   UNL     1      -5.745  15.726  67.495  1.00  0.00    -0.112 C  
ENDBRANCH  31  34
ENDBRANCH  23  24
ENDBRANCH  11  23
ENDBRANCH  10  11
ENDBRANCH   6  10
ENDBRANCH   5   6
ENDBRANCH   3   5
ENDBRANCH   2   3
TORSDOF 13
ENDMDL
MODEL      296
REMARK 921   NORMALIZED FREE ENERGY PREDICTED BY IDOCK:   -1.56 KCAL/MOL
REMARK 922        TOTAL FREE ENERGY PREDICTED BY IDOCK:   -5.21 KCAL/MOL
REMARK 923 INTER-LIGAND FREE ENERGY PREDICTED BY IDOCK:   -4.59 KCAL/MOL
REMARK 924 INTRA-LIGAND FREE ENERGY PREDICTED BY IDOCK:   -0.62 KCAL/MOL
REMARK 927      BINDING AFFINITY PREDICTED BY RF-SCORE:    0.00 PKD
ROOT
HETATM    1  C   UNL     1      -6.766   9.080  66.810  1.00  0.00    -0.076 C  
HETATM    2  C   UNL     1      -8.220   8.879  66.423  1.00  0.00    -0.115 C  
ENDROOT
BRANCH   2   3
HETATM    3  C   UNL     1      -8.828   9.845  65.410  1.00  0.00    -0.168 C  
HETATM    4  O   UNL     1      -9.805   9.554  64.727  1.00  0.00    -0.092 OA 
BRANCH   3   5
HETATM    5  O   UNL     1      -8.247  11.070  65.440  1.00  0.00    -0.076 OA 
BRANCH   5   6
HETATM    6  C   UNL     1      -8.638  11.997  66.502  1.00  0.00    -0.100 C  
HETATM    7  C   UNL     1      -7.434  12.088  67.508  1.00  0.00    -0.140 C  
HETATM    8  C   UNL     1      -7.689  13.008  68.701  1.00  0.00    -0.069 C  
HETATM    9  C   UNL     1      -6.122  12.499  66.837  1.00  0.00     0.299 C  
BRANCH   6  10
HETATM   10  O   UNL     1      -9.884  11.679  67.193  1.00  0.00    -0.187 OA 
BRANCH  10  11
HETATM   11  P   UNL     1     -11.184  12.691  66.942  1.00  0.00    -0.338 P  
HETATM   12  O   UNL     1     -11.386  12.152  65.505  1.00  0.00    -0.328 OA 
BRANCH  11  13
HETATM   13  C   UNL     1     -10.380  14.340  66.237  1.00  0.00    -0.294 C  
BRANCH  13  14
HETATM   14  C   UNL     1     -11.191  15.587  66.604  1.00  0.00    -0.118 C  
BRANCH  14  15
HETATM   15  C   UNL     1     -10.443  16.580  67.475  1.00  0.00    -0.310 C  
BRANCH  15  16
HETATM   16  C   UNL     1      -9.380  17.296  66.628  1.00  0.00    -0.276 C  
BRANCH  16  17
HETATM   17  C   UNL     1      -8.016  17.122  67.235  1.00  0.00    -0.200 A  
HETATM   18  C   UNL     1      -7.841  17.185  68.624  1.00  0.00    -0.265 A  
HETATM   19  C   UNL     1      -6.919  16.834  66.415  1.00  0.00    -0.150 A  
HETATM   20  C   UNL     1      -5.493  16.675  68.361  1.00  0.00    -0.121 A  
HETATM   21  C   UNL     1      -6.576  16.968  69.182  1.00  0.00    -0.230 A  
HETATM   22  C   UNL     1      -5.664  16.608  66.981  1.00  0.00    -0.165 A  
ENDBRANCH  16  17
ENDBRANCH  15  16
ENDBRANCH  14  15
ENDBRANCH  13  14
ENDBRANCH  11  13
BRANCH  11  23
HETATM   23  C   UNL     1     -10.944  13.327  68.641  1.00  0.00    -0.264 C  
BRANCH  23  24
HETATM   24  C   UNL     1     -11.202  12.289  69.749  1.00  0.00     0.030 C  
HETATM   25  C   UNL     1     -12.366  11.480  71.816  1.00  0.00     0.230 C  
HETATM   26  O   UNL     1     -10.463  11.301  69.846  1.00  0.00     0.102 OA 
HETATM   27  N   UNL     1     -12.260  12.365  70.628  1.00  0.00    -0.352 N  
HETATM   28  C   UNL     1     -12.726   9.983  71.608  1.00  0.00    -0.435 C  
HETATM   29  O   UNL     1     -13.324   9.303  72.435  1.00  0.00    -0.445 OA 
HETATM   30  C   UNL     1     -13.518  13.064  70.454  1.00  0.00     1.215 C  
HETATM   31  C   UNL     1     -14.087  13.273  71.868  1.00  0.00    -0.069 C  
HETATM   32  O   UNL     1     -12.212   9.425  70.491  1.00  0.00    -0.149 OA 
HETATM   33  C   UNL     1     -13.445  12.139  72.697  1.00  0.00     0.500 C  
BRANCH  31  34
HETATM   34  C   UNL     1     -13.834  14.671  72.511  1.00  0.00    -0.561 C  
HETATM   35  C   UNL     1     -11.330  14.762  72.107  1.00  0.00     0.159 C  
HETATM   36  C   UNL     1     -11.478  15.880  71.080  1.00  0.00    -0.471 C  
HETATM   37  C   UNL     1     -12.878  15.950  70.474  1.00  0.00     0.033 C  
HETATM   38  C   UNL     1     -12.443  14.835  73.146  1.00  0.00    -0.478 C  
HETATM   39  C   UNL     1     -14.008  15.836  71.504  1.00  0.00    -0.111 C  
ENDBRANCH  31  34
ENDBRANCH  23  24
ENDBRANCH  11  23
ENDBRANCH  10  11
ENDBRANCH   6  10
ENDBRANCH   5   6
ENDBRANCH   3   5
ENDBRANCH   2   3
TORSDOF 13
ENDMDL
MODEL      297
REMARK 921   NORMALIZED FREE ENERGY PREDICTED BY IDOCK:   -1.54 KCAL/MOL
REMARK 922        TOTAL FREE ENERGY PREDICTED BY IDOCK:   -5.17 KCAL/MOL
REMARK 923 INTER-LIGAND FREE ENERGY PREDICTED BY IDOCK:   -7.11 KCAL/MOL
REMARK 924 INTRA-LIGAND FREE ENERGY PREDICTED BY IDOCK:    1.94 KCAL/MOL
REMARK 927      BINDING AFFINITY PREDICTED BY RF-SCORE:    0.00 PKD
ROOT
HETATM    1  C   UNL     1      -6.139   9.449  74.558  1.00  0.00     0.060 C  
HETATM    2  C   UNL     1      -6.997   8.281  74.107  1.00  0.00    -0.187 C  
ENDROOT
BRANCH   2   3
HETATM    3  C   UNL     1      -7.324   8.168  72.620  1.00  0.00    -0.111 C  
HETATM    4  O   UNL     1      -7.113   9.082  71.829  1.00  0.00    -0.272 OA 
BRANCH   3   5
HETATM    5  O   UNL     1      -7.752   6.930  72.270  1.00  0.00    -0.092 OA 
BRANCH   5   6
HETATM    6  C   UNL     1      -8.715   6.814  71.176  1.00  0.00    -0.136 C  
HETATM    7  C   UNL     1      -9.955   6.020  71.729  1.00  0.00    -0.199 C  
HETATM    8  C   UNL     1     -11.056   5.789  70.695  1.00  0.00    -0.272 C  
HETATM    9  C   UNL     1     -10.570   6.661  72.974  1.00  0.00    -0.283 C  
BRANCH   6  10
HETATM   10  O   UNL     1      -8.208   6.213  69.945  1.00  0.00    -0.116 OA 
BRANCH  10  11
HETATM   11  P   UNL     1      -9.304   5.908  68.729  1.00  0.00    -0.125 P  
HETATM   12  O   UNL     1      -9.172   4.379  68.929  1.00  0.00    -0.118 OA 
BRANCH  11  13
HETATM   13  C   UNL     1      -8.204   5.815  67.102  1.00  0.00    -0.102 C  
BRANCH  13  14
HETATM   14  C   UNL     1      -7.398   4.514  67.019  1.00  0.00    -0.080 C  
BRANCH  14  15
HETATM   15  C   UNL     1      -7.034   4.099  65.604  1.00  0.00    -0.062 C  
BRANCH  15  16
HETATM   16  C   UNL     1      -7.565   2.681  65.340  1.00  0.00    -0.076 C  
BRANCH  16  17
HETATM   17  C   UNL     1      -8.773   2.728  64.447  1.00  0.00    -0.097 A  
HETATM   18  C   UNL     1      -9.549   3.891  64.357  1.00  0.00    -0.170 A  
HETATM   19  C   UNL     1      -9.094   1.623  63.650  1.00  0.00    -0.092 A  
HETATM   20  C   UNL     1     -10.947   2.841  62.688  1.00  0.00    -0.161 A  
HETATM   21  C   UNL     1     -10.639   3.941  63.481  1.00  0.00    -0.197 A  
HETATM   22  C   UNL     1     -10.175   1.686  62.771  1.00  0.00    -0.102 A  
ENDBRANCH  16  17
ENDBRANCH  15  16
ENDBRANCH  14  15
ENDBRANCH  13  14
ENDBRANCH  11  13
BRANCH  11  23
HETATM   23  C   UNL     1      -9.460   7.716  68.492  1.00  0.00    -0.147 C  
BRANCH  23  24
HETATM   24  C   UNL     1      -9.533   8.158  67.019  1.00  0.00    -0.177 C  
HETATM   25  C   UNL     1      -9.908   9.863  65.221  1.00  0.00    -0.303 C  
HETATM   26  O   UNL     1      -9.463   7.309  66.121  1.00  0.00    -0.118 OA 
HETATM   27  N   UNL     1      -9.622   9.475  66.625  1.00  0.00    -0.174 N  
HETATM   28  C   UNL     1      -8.796   9.682  64.150  1.00  0.00    -0.226 C  
HETATM   29  O   UNL     1      -8.691  10.385  63.150  1.00  0.00    -0.171 OA 
HETATM   30  C   UNL     1      -9.220  10.657  67.363  1.00  0.00    -0.143 C  
HETATM   31  C   UNL     1      -9.993  11.831  66.738  1.00  0.00    -0.224 C  
HETATM   32  O   UNL     1      -8.012   8.597  64.322  1.00  0.00    -0.132 OA 
HETATM   33  C   UNL     1     -10.292  11.353  65.300  1.00  0.00    -0.336 C  
BRANCH  31  34
HETATM   34  C   UNL     1     -11.292  12.272  67.480  1.00  0.00    -0.388 C  
HETATM   35  C   UNL     1     -10.378  14.418  68.481  1.00  0.00    -0.248 C  
HETATM   36  C   UNL     1     -11.263  15.280  67.587  1.00  0.00    -0.320 C  
HETATM   37  C   UNL     1     -11.732  14.549  66.330  1.00  0.00    -0.372 C  
HETATM   38  C   UNL     1     -11.045  13.078  68.767  1.00  0.00    -0.311 C  
HETATM   39  C   UNL     1     -12.233  13.123  66.590  1.00  0.00    -0.331 C  
ENDBRANCH  31  34
ENDBRANCH  23  24
ENDBRANCH  11  23
ENDBRANCH  10  11
ENDBRANCH   6  10
ENDBRANCH   5   6
ENDBRANCH   3   5
ENDBRANCH   2   3
TORSDOF 13
ENDMDL
MODEL      298
REMARK 921   NORMALIZED FREE ENERGY PREDICTED BY IDOCK:   -1.48 KCAL/MOL
REMARK 922        TOTAL FREE ENERGY PREDICTED BY IDOCK:   -5.07 KCAL/MOL
REMARK 923 INTER-LIGAND FREE ENERGY PREDICTED BY IDOCK:   -5.93 KCAL/MOL
REMARK 924 INTRA-LIGAND FREE ENERGY PREDICTED BY IDOCK:    0.86 KCAL/MOL
REMARK 927      BINDING AFFINITY PREDICTED BY RF-SCORE:    0.00 PKD
ROOT
HETATM    1  C   UNL     1      -8.751   9.071  64.107  1.00  0.00    -0.126 C  
HETATM    2  C   UNL     1      -7.797  10.207  64.431  1.00  0.00    -0.138 C  
ENDROOT
BRANCH   2   3
HETATM    3  C   UNL     1      -6.402   9.845  64.934  1.00  0.00    -0.110 C  
HETATM    4  O   UNL     1      -5.486  10.660  64.974  1.00  0.00    -0.138 OA 
BRANCH   3   5
HETATM    5  O   UNL     1      -6.333   8.584  65.426  1.00  0.00    -0.054 OA 
BRANCH   5   6
HETATM    6  C   UNL     1      -6.925   8.319  66.737  1.00  0.00    -0.070 C  
HETATM    7  C   UNL     1      -6.293   9.341  67.750  1.00  0.00    -0.059 C  
HETATM    8  C   UNL     1      -6.793   9.183  69.186  1.00  0.00    -0.050 C  
HETATM    9  C   UNL     1      -6.471  10.798  67.321  1.00  0.00    -0.070 C  
BRANCH   6  10
HETATM   10  O   UNL     1      -6.803   6.947  67.222  1.00  0.00    -0.067 OA 
BRANCH  10  11
HETATM   11  P   UNL     1      -7.897   5.828  66.651  1.00  0.00    -0.102 P  
HETATM   12  O   UNL     1      -7.329   5.935  65.215  1.00  0.00    -0.071 OA 
BRANCH  11  13
HETATM   13  C   UNL     1      -9.461   6.903  66.139  1.00  0.00     0.001 C  
BRANCH  13  14
HETATM   14  C   UNL     1     -10.071   7.648  67.331  1.00  0.00    -0.287 C  
BRANCH  14  15
HETATM   15  C   UNL     1     -10.725   8.969  66.968  1.00  0.00    -0.185 C  
BRANCH  15  16
HETATM   16  C   UNL     1     -10.051  10.102  67.760  1.00  0.00    -0.216 C  
BRANCH  16  17
HETATM   17  C   UNL     1     -10.607  11.436  67.349  1.00  0.00    -0.257 A  
HETATM   18  C   UNL     1     -10.690  11.787  65.996  1.00  0.00    -0.324 A  
HETATM   19  C   UNL     1     -11.104  12.314  68.320  1.00  0.00    -0.282 A  
HETATM   20  C   UNL     1     -11.757  13.873  66.593  1.00  0.00    -0.417 A  
HETATM   21  C   UNL     1     -11.260  13.010  65.622  1.00  0.00    -0.310 A  
HETATM   22  C   UNL     1     -11.680  13.525  67.938  1.00  0.00    -0.392 A  
ENDBRANCH  16  17
ENDBRANCH  15  16
ENDBRANCH  14  15
ENDBRANCH  13  14
ENDBRANCH  11  13
BRANCH  11  23
HETATM   23  C   UNL     1      -8.568   5.701  68.349  1.00  0.00    -0.111 C  
BRANCH  23  24
HETATM   24  C   UNL     1      -7.652   4.957  69.338  1.00  0.00    -0.060 C  
HETATM   25  C   UNL     1      -6.866   4.385  71.648  1.00  0.00    -0.031 C  
HETATM   26  O   UNL     1      -6.686   4.311  68.910  1.00  0.00    -0.044 OA 
HETATM   27  N   UNL     1      -7.873   4.921  70.697  1.00  0.00    -0.069 N  
HETATM   28  C   UNL     1      -6.631   2.851  71.708  1.00  0.00    -0.018 C  
HETATM   29  O   UNL     1      -6.263   2.255  72.715  1.00  0.00    -0.009 OA 
HETATM   30  C   UNL     1      -9.123   5.120  71.404  1.00  0.00    -0.144 C  
HETATM   31  C   UNL     1      -8.739   5.497  72.846  1.00  0.00    -0.118 C  
HETATM   32  O   UNL     1      -6.731   2.214  70.522  1.00  0.00    -0.031 OA 
HETATM   33  C   UNL     1      -7.338   4.877  73.030  1.00  0.00    -0.087 C  
BRANCH  31  34
HETATM   34  C   UNL     1      -8.743   7.021  73.183  1.00  0.00    -0.148 C  
HETATM   35  C   UNL     1      -9.786   7.826  71.012  1.00  0.00    -0.186 C  
HETATM   36  C   UNL     1     -11.076   8.235  71.716  1.00  0.00    -0.342 C  
HETATM   37  C   UNL     1     -11.281   7.516  73.048  1.00  0.00    -0.373 C  
HETATM   38  C   UNL     1      -8.597   7.941  71.959  1.00  0.00    -0.173 C  
HETATM   39  C   UNL     1     -10.026   7.467  73.929  1.00  0.00    -0.258 C  
ENDBRANCH  31  34
ENDBRANCH  23  24
ENDBRANCH  11  23
ENDBRANCH  10  11
ENDBRANCH   6  10
ENDBRANCH   5   6
ENDBRANCH   3   5
ENDBRANCH   2   3
TORSDOF 13
ENDMDL
MODEL      299
REMARK 921   NORMALIZED FREE ENERGY PREDICTED BY IDOCK:   -1.48 KCAL/MOL
REMARK 922        TOTAL FREE ENERGY PREDICTED BY IDOCK:   -5.06 KCAL/MOL
REMARK 923 INTER-LIGAND FREE ENERGY PREDICTED BY IDOCK:   -4.50 KCAL/MOL
REMARK 924 INTRA-LIGAND FREE ENERGY PREDICTED BY IDOCK:   -0.56 KCAL/MOL
REMARK 927      BINDING AFFINITY PREDICTED BY RF-SCORE:    0.00 PKD
ROOT
HETATM    1  C   UNL     1      -6.905  16.028  70.199  1.00  0.00     0.323 C  
HETATM    2  C   UNL     1      -8.034  16.053  69.185  1.00  0.00    -0.238 C  
ENDROOT
BRANCH   2   3
HETATM    3  C   UNL     1      -9.427  15.645  69.658  1.00  0.00    -0.243 C  
HETATM    4  O   UNL     1      -9.860  15.945  70.766  1.00  0.00     0.682 OA 
BRANCH   3   5
HETATM    5  O   UNL     1     -10.150  15.032  68.689  1.00  0.00    -0.219 OA 
BRANCH   5   6
HETATM    6  C   UNL     1      -9.487  14.719  67.423  1.00  0.00    -0.207 C  
HETATM    7  C   UNL     1     -10.385  15.300  66.270  1.00  0.00    -0.303 C  
HETATM    8  C   UNL     1      -9.842  15.038  64.867  1.00  0.00     0.097 C  
HETATM    9  C   UNL     1     -10.663  16.797  66.423  1.00  0.00    -0.105 C  
BRANCH   6  10
HETATM   10  O   UNL     1      -9.183  13.309  67.198  1.00  0.00    -0.218 OA 
BRANCH  10  11
HETATM   11  P   UNL     1      -9.045  12.328  68.537  1.00  0.00     0.079 P  
HETATM   12  O   UNL     1      -7.837  13.140  69.066  1.00  0.00     0.053 OA 
BRANCH  11  13
HETATM   13  C   UNL     1      -7.847  10.882  67.954  1.00  0.00    -0.109 C  
BRANCH  13  14
HETATM   14  C   UNL     1      -7.046  10.286  69.116  1.00  0.00    -0.074 C  
BRANCH  14  15
HETATM   15  C   UNL     1      -7.530   8.920  69.567  1.00  0.00    -0.075 C  
BRANCH  15  16
HETATM   16  C   UNL     1      -6.953   7.844  68.633  1.00  0.00    -0.071 C  
BRANCH  16  17
HETATM   17  C   UNL     1      -8.039   6.921  68.156  1.00  0.00    -0.119 A  
HETATM   18  C   UNL     1      -9.386   7.285  68.273  1.00  0.00    -0.135 A  
HETATM   19  C   UNL     1      -7.704   5.712  67.535  1.00  0.00    -0.097 A  
HETATM   20  C   UNL     1     -10.045   5.246  67.154  1.00  0.00    -0.239 A  
HETATM   21  C   UNL     1     -10.387   6.441  67.777  1.00  0.00    -0.238 A  
HETATM   22  C   UNL     1      -8.706   4.883  67.033  1.00  0.00    -0.103 A  
ENDBRANCH  16  17
ENDBRANCH  15  16
ENDBRANCH  14  15
ENDBRANCH  13  14
ENDBRANCH  11  13
BRANCH  11  23
HETATM   23  C   UNL     1     -10.472  11.368  67.912  1.00  0.00    -0.184 C  
BRANCH  23  24
HETATM   24  C   UNL     1     -11.085  11.920  66.612  1.00  0.00    -0.310 C  
HETATM   25  C   UNL     1     -11.221  12.105  64.116  1.00  0.00    -0.368 C  
HETATM   26  O   UNL     1     -11.925  12.828  66.669  1.00  0.00    -0.405 OA 
HETATM   27  N   UNL     1     -10.789  11.422  65.362  1.00  0.00    -0.261 N  
HETATM   28  C   UNL     1     -12.721  12.056  63.713  1.00  0.00    -0.400 C  
HETATM   29  O   UNL     1     -13.118  12.101  62.554  1.00  0.00     0.524 OA 
HETATM   30  C   UNL     1     -10.285  10.106  65.022  1.00  0.00    -0.133 C  
HETATM   31  C   UNL     1      -9.646  10.243  63.629  1.00  0.00    -0.334 C  
HETATM   32  O   UNL     1     -13.588  12.095  64.747  1.00  0.00    -0.185 OA 
HETATM   33  C   UNL     1     -10.379  11.450  63.004  1.00  0.00    -0.275 C  
BRANCH  31  34
HETATM   34  C   UNL     1      -8.098  10.430  63.597  1.00  0.00    -0.109 C  
HETATM   35  C   UNL     1      -7.507   8.476  65.105  1.00  0.00    -0.091 C  
HETATM   36  C   UNL     1      -6.879   7.701  63.952  1.00  0.00    -0.058 C  
HETATM   37  C   UNL     1      -7.379   8.159  62.584  1.00  0.00    -0.100 C  
HETATM   38  C   UNL     1      -7.378   9.978  64.878  1.00  0.00    -0.140 C  
HETATM   39  C   UNL     1      -7.427   9.683  62.417  1.00  0.00    -0.117 C  
ENDBRANCH  31  34
ENDBRANCH  23  24
ENDBRANCH  11  23
ENDBRANCH  10  11
ENDBRANCH   6  10
ENDBRANCH   5   6
ENDBRANCH   3   5
ENDBRANCH   2   3
TORSDOF 13
ENDMDL
MODEL      300
REMARK 921   NORMALIZED FREE ENERGY PREDICTED BY IDOCK:   -1.47 KCAL/MOL
REMARK 922        TOTAL FREE ENERGY PREDICTED BY IDOCK:   -5.06 KCAL/MOL
REMARK 923 INTER-LIGAND FREE ENERGY PREDICTED BY IDOCK:   -7.82 KCAL/MOL
REMARK 924 INTRA-LIGAND FREE ENERGY PREDICTED BY IDOCK:    2.76 KCAL/MOL
REMARK 927      BINDING AFFINITY PREDICTED BY RF-SCORE:    0.00 PKD
ROOT
HETATM    1  C   UNL     1      -6.978  12.149  67.066  1.00  0.00    -0.068 C  
HETATM    2  C   UNL     1      -8.428  11.902  66.690  1.00  0.00    -0.143 C  
ENDROOT
BRANCH   2   3
HETATM    3  C   UNL     1      -8.727  10.776  65.703  1.00  0.00    -0.190 C  
HETATM    4  O   UNL     1      -9.692  10.803  64.947  1.00  0.00    -0.230 OA 
BRANCH   3   5
HETATM    5  O   UNL     1      -7.758   9.828  65.681  1.00  0.00    -0.107 OA 
BRANCH   5   6
HETATM    6  C   UNL     1      -7.894   8.678  66.574  1.00  0.00    -0.099 C  
HETATM    7  C   UNL     1      -8.734   7.590  65.810  1.00  0.00    -0.142 C  
HETATM    8  C   UNL     1      -8.989   6.320  66.620  1.00  0.00    -0.139 C  
HETATM    9  C   UNL     1      -8.127   7.204  64.460  1.00  0.00    -0.069 C  
BRANCH   6  10
HETATM   10  O   UNL     1      -8.463   8.960  67.889  1.00  0.00    -0.124 OA 
BRANCH  10  11
HETATM   11  P   UNL     1      -9.832   8.119  68.331  1.00  0.00    -0.181 P  
HETATM   12  O   UNL     1     -10.654   8.761  67.187  1.00  0.00    -0.291 OA 
BRANCH  11  13
HETATM   13  C   UNL     1     -10.709   9.286  69.648  1.00  0.00    -0.230 C  
BRANCH  13  14
HETATM   14  C   UNL     1     -10.383  10.766  69.422  1.00  0.00    -0.207 C  
BRANCH  14  15
HETATM   15  C   UNL     1     -11.581  11.613  69.032  1.00  0.00    -0.379 C  
BRANCH  15  16
HETATM   16  C   UNL     1     -11.304  13.080  69.398  1.00  0.00    -0.269 C  
BRANCH  16  17
HETATM   17  C   UNL     1     -12.325  13.582  70.379  1.00  0.00    -0.397 A  
HETATM   18  C   UNL     1     -12.859  12.727  71.352  1.00  0.00    -0.371 A  
HETATM   19  C   UNL     1     -12.706  14.929  70.362  1.00  0.00    -0.370 A  
HETATM   20  C   UNL     1     -14.135  14.560  72.276  1.00  0.00    -0.594 A  
HETATM   21  C   UNL     1     -13.769  13.219  72.295  1.00  0.00    -0.686 A  
HETATM   22  C   UNL     1     -13.604  15.413  71.313  1.00  0.00    -0.585 A  
ENDBRANCH  16  17
ENDBRANCH  15  16
ENDBRANCH  14  15
ENDBRANCH  13  14
ENDBRANCH  11  13
BRANCH  11  23
HETATM   23  C   UNL     1      -8.861   7.360  69.684  1.00  0.00    -0.141 C  
BRANCH  23  24
HETATM   24  C   UNL     1      -9.690   6.495  70.651  1.00  0.00    -0.179 C  
HETATM   25  C   UNL     1      -9.946   4.650  72.328  1.00  0.00    -0.177 C  
HETATM   26  O   UNL     1     -10.924   6.600  70.661  1.00  0.00    -0.247 OA 
HETATM   27  N   UNL     1      -9.130   5.627  71.563  1.00  0.00    -0.140 N  
HETATM   28  C   UNL     1     -10.859   5.167  73.473  1.00  0.00    -0.303 C  
HETATM   29  O   UNL     1     -11.158   4.505  74.461  1.00  0.00    -0.203 OA 
HETATM   30  C   UNL     1      -7.795   5.662  72.125  1.00  0.00    -0.103 C  
HETATM   31  C   UNL     1      -7.514   4.239  72.641  1.00  0.00    -0.074 C  
HETATM   32  O   UNL     1     -11.426   6.372  73.249  1.00  0.00    -0.007 OA 
HETATM   33  C   UNL     1      -8.920   3.660  72.911  1.00  0.00    -0.109 C  
BRANCH  31  34
HETATM   34  C   UNL     1      -6.683   3.317  71.696  1.00  0.00    -0.026 C  
HETATM   35  C   UNL     1      -8.489   2.930  69.954  1.00  0.00    -0.095 C  
HETATM   36  C   UNL     1      -7.735   3.744  68.908  1.00  0.00    -0.053 C  
HETATM   37  C   UNL     1      -6.733   4.720  69.521  1.00  0.00    -0.044 C  
HETATM   38  C   UNL     1      -7.517   2.277  70.930  1.00  0.00    -0.033 C  
HETATM   39  C   UNL     1      -5.876   4.113  70.639  1.00  0.00    -0.014 C  
ENDBRANCH  31  34
ENDBRANCH  23  24
ENDBRANCH  11  23
ENDBRANCH  10  11
ENDBRANCH   6  10
ENDBRANCH   5   6
ENDBRANCH   3   5
ENDBRANCH   2   3
TORSDOF 13
ENDMDL
MODEL      301
REMARK 921   NORMALIZED FREE ENERGY PREDICTED BY IDOCK:   -1.42 KCAL/MOL
REMARK 922        TOTAL FREE ENERGY PREDICTED BY IDOCK:   -4.96 KCAL/MOL
REMARK 923 INTER-LIGAND FREE ENERGY PREDICTED BY IDOCK:   -4.75 KCAL/MOL
REMARK 924 INTRA-LIGAND FREE ENERGY PREDICTED BY IDOCK:   -0.20 KCAL/MOL
REMARK 927      BINDING AFFINITY PREDICTED BY RF-SCORE:    0.00 PKD
ROOT
HETATM    1  C   UNL     1      -8.953   5.060  64.949  1.00  0.00    -0.114 C  
HETATM    2  C   UNL     1      -7.483   5.074  65.326  1.00  0.00    -0.077 C  
ENDROOT
BRANCH   2   3
HETATM    3  C   UNL     1      -6.801   6.431  65.486  1.00  0.00    -0.048 C  
HETATM    4  O   UNL     1      -5.951   6.837  64.701  1.00  0.00    -0.034 OA 
BRANCH   3   5
HETATM    5  O   UNL     1      -7.319   7.160  66.505  1.00  0.00    -0.080 OA 
BRANCH   5   6
HETATM    6  C   UNL     1      -8.235   8.253  66.178  1.00  0.00    -0.119 C  
HETATM    7  C   UNL     1      -7.603   9.577  66.744  1.00  0.00    -0.098 C  
HETATM    8  C   UNL     1      -8.452  10.824  66.505  1.00  0.00    -0.147 C  
HETATM    9  C   UNL     1      -6.187   9.834  66.225  1.00  0.00    -0.069 C  
BRANCH   6  10
HETATM   10  O   UNL     1      -9.611   8.086  66.636  1.00  0.00    -0.197 OA 
BRANCH  10  11
HETATM   11  P   UNL     1      -9.888   8.142  68.278  1.00  0.00    -0.183 P  
HETATM   12  O   UNL     1      -8.863   7.012  68.538  1.00  0.00    -0.126 OA 
BRANCH  11  13
HETATM   13  C   UNL     1     -11.377   6.889  68.558  1.00  0.00     0.121 C  
BRANCH  13  14
HETATM   14  C   UNL     1     -10.906   5.432  68.625  1.00  0.00     0.020 C  
BRANCH  14  15
HETATM   15  C   UNL     1     -10.591   4.946  70.028  1.00  0.00     0.046 C  
BRANCH  15  16
HETATM   16  C   UNL     1      -9.071   4.766  70.172  1.00  0.00    -0.155 C  
BRANCH  16  17
HETATM   17  C   UNL     1      -8.558   3.782  69.158  1.00  0.00    -0.115 A  
HETATM   18  C   UNL     1      -9.432   2.887  68.528  1.00  0.00    -0.200 A  
HETATM   19  C   UNL     1      -7.207   3.798  68.793  1.00  0.00    -0.051 A  
HETATM   20  C   UNL     1      -7.610   2.040  67.184  1.00  0.00    -0.061 A  
HETATM   21  C   UNL     1      -8.953   2.012  67.546  1.00  0.00    -0.180 A  
HETATM   22  C   UNL     1      -6.740   2.931  67.806  1.00  0.00    -0.040 A  
ENDBRANCH  16  17
ENDBRANCH  15  16
ENDBRANCH  14  15
ENDBRANCH  13  14
ENDBRANCH  11  13
BRANCH  11  23
HETATM   23  C   UNL     1     -11.101   9.478  67.970  1.00  0.00     0.005 C  
BRANCH  23  24
HETATM   24  C   UNL     1     -11.168  10.541  69.083  1.00  0.00    -0.256 C  
HETATM   25  C   UNL     1     -10.963  12.888  69.937  1.00  0.00     0.478 C  
HETATM   26  O   UNL     1     -11.325  10.186  70.259  1.00  0.00    -0.269 OA 
HETATM   27  N   UNL     1     -11.115  11.896  68.842  1.00  0.00    -0.233 N  
HETATM   28  C   UNL     1     -12.172  13.164  70.874  1.00  0.00    -0.241 C  
HETATM   29  O   UNL     1     -12.371  14.237  71.434  1.00  0.00    -0.334 OA 
HETATM   30  C   UNL     1     -11.443  12.599  67.618  1.00  0.00    -0.334 C  
HETATM   31  C   UNL     1     -10.731  13.961  67.706  1.00  0.00    -0.252 C  
HETATM   32  O   UNL     1     -12.937  12.086  71.146  1.00  0.00    -0.287 OA 
HETATM   33  C   UNL     1     -10.571  14.196  69.223  1.00  0.00    -0.127 C  
BRANCH  31  34
HETATM   34  C   UNL     1      -9.366  14.072  66.958  1.00  0.00    -0.256 C  
HETATM   35  C   UNL     1     -10.051  15.876  65.308  1.00  0.00    -0.206 C  
HETATM   36  C   UNL     1      -9.140  16.906  65.967  1.00  0.00    -0.199 C  
HETATM   37  C   UNL     1      -8.792  16.555  67.413  1.00  0.00    -0.201 C  
HETATM   38  C   UNL     1      -9.485  14.470  65.478  1.00  0.00     0.042 C  
HETATM   39  C   UNL     1      -8.400  15.087  67.621  1.00  0.00    -0.175 C  
ENDBRANCH  31  34
ENDBRANCH  23  24
ENDBRANCH  11  23
ENDBRANCH  10  11
ENDBRANCH   6  10
ENDBRANCH   5   6
ENDBRANCH   3   5
ENDBRANCH   2   3
TORSDOF 13
ENDMDL
MODEL      302
REMARK 921   NORMALIZED FREE ENERGY PREDICTED BY IDOCK:   -1.41 KCAL/MOL
REMARK 922        TOTAL FREE ENERGY PREDICTED BY IDOCK:   -4.94 KCAL/MOL
REMARK 923 INTER-LIGAND FREE ENERGY PREDICTED BY IDOCK:   -8.29 KCAL/MOL
REMARK 924 INTRA-LIGAND FREE ENERGY PREDICTED BY IDOCK:    3.35 KCAL/MOL
REMARK 927      BINDING AFFINITY PREDICTED BY RF-SCORE:    0.00 PKD
ROOT
HETATM    1  C   UNL     1      -7.527  15.470  69.873  1.00  0.00     0.016 C  
HETATM    2  C   UNL     1      -6.367  15.081  68.973  1.00  0.00    -0.100 C  
ENDROOT
BRANCH   2   3
HETATM    3  C   UNL     1      -6.679  14.275  67.715  1.00  0.00    -0.176 C  
HETATM    4  O   UNL     1      -7.270  14.758  66.755  1.00  0.00     0.106 OA 
BRANCH   3   5
HETATM    5  O   UNL     1      -6.136  13.034  67.741  1.00  0.00    -0.121 OA 
BRANCH   5   6
HETATM    6  C   UNL     1      -7.030  11.889  67.905  1.00  0.00    -0.085 C  
HETATM    7  C   UNL     1      -7.125  11.167  66.512  1.00  0.00    -0.124 C  
HETATM    8  C   UNL     1      -8.048   9.949  66.504  1.00  0.00    -0.117 C  
HETATM    9  C   UNL     1      -5.761  10.758  65.954  1.00  0.00    -0.145 C  
BRANCH   6  10
HETATM   10  O   UNL     1      -8.356  12.191  68.437  1.00  0.00    -0.160 OA 
BRANCH  10  11
HETATM   11  P   UNL     1      -9.649  11.350  67.806  1.00  0.00    -0.181 P  
HETATM   12  O   UNL     1      -9.472  12.022  66.423  1.00  0.00    -0.221 OA 
BRANCH  11  13
HETATM   13  C   UNL     1     -11.201  12.494  68.191  1.00  0.00    -0.267 C  
BRANCH  13  14
HETATM   14  C   UNL     1     -10.791  13.875  68.711  1.00  0.00    -0.282 C  
BRANCH  14  15
HETATM   15  C   UNL     1     -11.454  15.033  67.987  1.00  0.00    -0.357 C  
BRANCH  15  16
HETATM   16  C   UNL     1     -10.499  15.569  66.908  1.00  0.00    -0.301 C  
BRANCH  16  17
HETATM   17  C   UNL     1     -10.361  17.061  67.018  1.00  0.00    -0.304 A  
HETATM   18  C   UNL     1     -10.274  17.856  65.868  1.00  0.00    -0.228 A  
HETATM   19  C   UNL     1     -10.381  17.672  68.278  1.00  0.00    -0.384 A  
HETATM   20  C   UNL     1     -10.229  19.848  67.237  1.00  0.00    -0.572 A  
HETATM   21  C   UNL     1     -10.201  19.249  65.982  1.00  0.00    -0.512 A  
HETATM   22  C   UNL     1     -10.319  19.061  68.381  1.00  0.00    -0.382 A  
ENDBRANCH  16  17
ENDBRANCH  15  16
ENDBRANCH  14  15
ENDBRANCH  13  14
ENDBRANCH  11  13
BRANCH  11  23
HETATM   23  C   UNL     1      -9.857  10.555  69.441  1.00  0.00    -0.182 C  
BRANCH  23  24
HETATM   24  C   UNL     1      -9.150   9.194  69.578  1.00  0.00    -0.155 C  
HETATM   25  C   UNL     1      -9.124   6.738  70.077  1.00  0.00    -0.148 C  
HETATM   26  O   UNL     1      -7.916   9.136  69.505  1.00  0.00    -0.089 OA 
HETATM   27  N   UNL     1      -9.823   8.002  69.730  1.00  0.00    -0.181 N  
HETATM   28  C   UNL     1      -8.254   6.039  68.995  1.00  0.00    -0.108 C  
HETATM   29  O   UNL     1      -8.064   4.828  68.948  1.00  0.00    -0.081 OA 
HETATM   30  C   UNL     1     -11.187   7.691  69.350  1.00  0.00     0.138 C  
HETATM   31  C   UNL     1     -11.592   6.465  70.188  1.00  0.00    -0.449 C  
HETATM   32  O   UNL     1      -7.598   6.878  68.165  1.00  0.00    -0.103 OA 
HETATM   33  C   UNL     1     -10.248   5.780  70.515  1.00  0.00    -0.284 C  
BRANCH  31  34
HETATM   34  C   UNL     1     -12.419   6.757  71.478  1.00  0.00    -0.390 C  
HETATM   35  C   UNL     1     -10.940   5.485  73.102  1.00  0.00    -0.340 C  
HETATM   36  C   UNL     1     -10.478   6.770  73.778  1.00  0.00    -0.383 C  
HETATM   37  C   UNL     1     -10.644   8.003  72.892  1.00  0.00    -0.399 C  
HETATM   38  C   UNL     1     -12.348   5.648  72.541  1.00  0.00     0.161 C  
HETATM   39  C   UNL     1     -11.998   8.076  72.175  1.00  0.00    -0.399 C  
ENDBRANCH  31  34
ENDBRANCH  23  24
ENDBRANCH  11  23
ENDBRANCH  10  11
ENDBRANCH   6  10
ENDBRANCH   5   6
ENDBRANCH   3   5
ENDBRANCH   2   3
TORSDOF 13
ENDMDL
MODEL      303
REMARK 921   NORMALIZED FREE ENERGY PREDICTED BY IDOCK:   -1.40 KCAL/MOL
REMARK 922        TOTAL FREE ENERGY PREDICTED BY IDOCK:   -4.92 KCAL/MOL
REMARK 923 INTER-LIGAND FREE ENERGY PREDICTED BY IDOCK:   -6.86 KCAL/MOL
REMARK 924 INTRA-LIGAND FREE ENERGY PREDICTED BY IDOCK:    1.94 KCAL/MOL
REMARK 927      BINDING AFFINITY PREDICTED BY RF-SCORE:    0.00 PKD
ROOT
HETATM    1  C   UNL     1      -9.817   5.775  68.574  1.00  0.00    -0.177 C  
HETATM    2  C   UNL     1     -10.752   5.903  69.762  1.00  0.00    -0.411 C  
ENDROOT
BRANCH   2   3
HETATM    3  C   UNL     1     -11.049   7.304  70.290  1.00  0.00    -0.266 C  
HETATM    4  O   UNL     1     -12.102   7.586  70.853  1.00  0.00    -0.293 OA 
BRANCH   3   5
HETATM    5  O   UNL     1      -9.992   8.144  70.168  1.00  0.00    -0.184 OA 
BRANCH   5   6
HETATM    6  C   UNL     1      -8.785   7.648  69.507  1.00  0.00    -0.136 C  
HETATM    7  C   UNL     1      -7.562   8.041  70.413  1.00  0.00    -0.081 C  
HETATM    8  C   UNL     1      -6.208   7.612  69.850  1.00  0.00    -0.027 C  
HETATM    9  C   UNL     1      -7.688   7.525  71.848  1.00  0.00    -0.088 C  
BRANCH   6  10
HETATM   10  O   UNL     1      -8.589   8.092  68.130  1.00  0.00    -0.128 OA 
BRANCH  10  11
HETATM   11  P   UNL     1      -8.908   9.690  67.784  1.00  0.00    -0.124 P  
HETATM   12  O   UNL     1     -10.423   9.491  68.037  1.00  0.00    -0.206 OA 
BRANCH  11  13
HETATM   13  C   UNL     1      -9.211   9.710  65.841  1.00  0.00    -0.194 C  
BRANCH  13  14
HETATM   14  C   UNL     1     -10.279  10.730  65.429  1.00  0.00    -0.341 C  
BRANCH  14  15
HETATM   15  C   UNL     1      -9.766  11.828  64.515  1.00  0.00    -0.165 C  
BRANCH  15  16
HETATM   16  C   UNL     1      -9.755  11.316  63.066  1.00  0.00    -0.389 C  
BRANCH  16  17
HETATM   17  C   UNL     1      -8.684  10.278  62.881  1.00  0.00    -0.212 A  
HETATM   18  C   UNL     1      -7.341  10.588  63.130  1.00  0.00    -0.004 A  
HETATM   19  C   UNL     1      -9.034   8.973  62.516  1.00  0.00    -0.058 A  
HETATM   20  C   UNL     1      -6.716   8.302  62.652  1.00  0.00    -0.087 A  
HETATM   21  C   UNL     1      -6.359   9.598  63.008  1.00  0.00    -0.106 A  
HETATM   22  C   UNL     1      -8.050   7.990  62.408  1.00  0.00    -0.163 A  
ENDBRANCH  16  17
ENDBRANCH  15  16
ENDBRANCH  14  15
ENDBRANCH  13  14
ENDBRANCH  11  13
BRANCH  11  23
HETATM   23  C   UNL     1      -7.119   9.925  67.484  1.00  0.00    -0.088 C  
BRANCH  23  24
HETATM   24  C   UNL     1      -6.477  11.041  68.329  1.00  0.00    -0.057 C  
HETATM   25  C   UNL     1      -6.359  13.389  69.199  1.00  0.00    -0.102 C  
HETATM   26  O   UNL     1      -5.381  10.845  68.870  1.00  0.00    -0.041 OA 
HETATM   27  N   UNL     1      -7.082  12.255  68.569  1.00  0.00    -0.093 N  
HETATM   28  C   UNL     1      -6.032  13.322  70.717  1.00  0.00    -0.049 C  
HETATM   29  O   UNL     1      -5.930  14.308  71.438  1.00  0.00    -0.208 OA 
HETATM   30  C   UNL     1      -8.496  12.572  68.521  1.00  0.00    -0.061 C  
HETATM   31  C   UNL     1      -8.582  14.099  68.342  1.00  0.00    -0.176 C  
HETATM   32  O   UNL     1      -5.730  12.089  71.179  1.00  0.00    -0.372 OA 
HETATM   33  C   UNL     1      -7.252  14.616  68.930  1.00  0.00    -0.124 C  
BRANCH  31  34
HETATM   34  C   UNL     1      -8.805  14.608  66.885  1.00  0.00    -0.267 C  
HETATM   35  C   UNL     1     -11.015  15.788  67.291  1.00  0.00    -0.259 C  
HETATM   36  C   UNL     1     -10.387  17.162  67.082  1.00  0.00    -0.307 C  
HETATM   37  C   UNL     1      -8.875  17.163  67.295  1.00  0.00    -0.226 C  
HETATM   38  C   UNL     1     -10.282  14.731  66.474  1.00  0.00    -0.281 C  
HETATM   39  C   UNL     1      -8.150  15.989  66.625  1.00  0.00    -0.311 C  
ENDBRANCH  31  34
ENDBRANCH  23  24
ENDBRANCH  11  23
ENDBRANCH  10  11
ENDBRANCH   6  10
ENDBRANCH   5   6
ENDBRANCH   3   5
ENDBRANCH   2   3
TORSDOF 13
ENDMDL
MODEL      304
REMARK 921   NORMALIZED FREE ENERGY PREDICTED BY IDOCK:   -1.32 KCAL/MOL
REMARK 922        TOTAL FREE ENERGY PREDICTED BY IDOCK:   -4.79 KCAL/MOL
REMARK 923 INTER-LIGAND FREE ENERGY PREDICTED BY IDOCK:   -6.50 KCAL/MOL
REMARK 924 INTRA-LIGAND FREE ENERGY PREDICTED BY IDOCK:    1.72 KCAL/MOL
REMARK 927      BINDING AFFINITY PREDICTED BY RF-SCORE:    0.00 PKD
ROOT
HETATM    1  C   UNL     1     -10.490  13.551  67.180  1.00  0.00    -0.256 C  
HETATM    2  C   UNL     1     -10.116  12.589  68.294  1.00  0.00    -0.228 C  
ENDROOT
BRANCH   2   3
HETATM    3  C   UNL     1     -10.995  11.358  68.498  1.00  0.00    -0.221 C  
HETATM    4  O   UNL     1     -11.807  10.982  67.658  1.00  0.00    -0.599 OA 
BRANCH   3   5
HETATM    5  O   UNL     1     -10.693  10.682  69.633  1.00  0.00    -0.243 OA 
BRANCH   5   6
HETATM    6  C   UNL     1     -11.581   9.597  70.051  1.00  0.00    -0.088 C  
HETATM    7  C   UNL     1     -12.258  10.040  71.398  1.00  0.00    -0.510 C  
HETATM    8  C   UNL     1     -13.209   9.000  71.988  1.00  0.00    -0.486 C  
HETATM    9  C   UNL     1     -12.992  11.378  71.288  1.00  0.00    -0.415 C  
BRANCH   6  10
HETATM   10  O   UNL     1     -10.959   8.282  70.178  1.00  0.00    -0.248 OA 
BRANCH  10  11
HETATM   11  P   UNL     1      -9.513   8.191  71.001  1.00  0.00    -0.169 P  
HETATM   12  O   UNL     1      -9.845   9.462  71.820  1.00  0.00    -0.206 OA 
BRANCH  11  13
HETATM   13  C   UNL     1      -8.258   9.210  69.883  1.00  0.00    -0.136 C  
BRANCH  13  14
HETATM   14  C   UNL     1      -7.967   8.512  68.550  1.00  0.00    -0.117 C  
BRANCH  14  15
HETATM   15  C   UNL     1      -7.870   9.455  67.364  1.00  0.00    -0.102 C  
BRANCH  15  16
HETATM   16  C   UNL     1      -9.159   9.355  66.531  1.00  0.00    -0.188 C  
BRANCH  16  17
HETATM   17  C   UNL     1      -9.690   7.949  66.547  1.00  0.00    -0.279 A  
HETATM   18  C   UNL     1      -9.123   6.964  65.729  1.00  0.00     0.023 A  
HETATM   19  C   UNL     1     -10.720   7.604  67.430  1.00  0.00    -0.318 A  
HETATM   20  C   UNL     1     -10.608   5.309  66.678  1.00  0.00    -0.334 A  
HETATM   21  C   UNL     1      -9.590   5.646  65.793  1.00  0.00     0.006 A  
HETATM   22  C   UNL     1     -11.171   6.286  67.495  1.00  0.00    -0.234 A  
ENDBRANCH  16  17
ENDBRANCH  15  16
ENDBRANCH  14  15
ENDBRANCH  13  14
ENDBRANCH  11  13
BRANCH  11  23
HETATM   23  C   UNL     1      -9.121   6.688  70.033  1.00  0.00    -0.151 C  
BRANCH  23  24
HETATM   24  C   UNL     1      -9.152   5.383  70.850  1.00  0.00    -0.139 C  
HETATM   25  C   UNL     1      -8.109   3.281  71.731  1.00  0.00    -0.058 C  
HETATM   26  O   UNL     1     -10.223   4.985  71.326  1.00  0.00    -0.204 OA 
HETATM   27  N   UNL     1      -8.028   4.639  71.133  1.00  0.00    -0.085 N  
HETATM   28  C   UNL     1      -8.505   3.141  73.227  1.00  0.00    -0.077 C  
HETATM   29  O   UNL     1      -8.131   2.223  73.949  1.00  0.00    -0.053 OA 
HETATM   30  C   UNL     1      -6.648   5.083  71.168  1.00  0.00    -0.038 C  
HETATM   31  C   UNL     1      -5.791   3.815  71.007  1.00  0.00    -0.014 C  
HETATM   32  O   UNL     1      -9.414   4.040  73.661  1.00  0.00    -0.103 OA 
HETATM   33  C   UNL     1      -6.704   2.682  71.524  1.00  0.00    -0.026 C  
BRANCH  31  34
HETATM   34  C   UNL     1      -5.263   3.519  69.569  1.00  0.00    -0.011 C  
HETATM   35  C   UNL     1      -7.507   2.990  68.507  1.00  0.00    -0.049 C  
HETATM   36  C   UNL     1      -7.470   4.257  67.659  1.00  0.00    -0.069 C  
HETATM   37  C   UNL     1      -6.542   5.327  68.228  1.00  0.00    -0.049 C  
HETATM   38  C   UNL     1      -6.095   2.489  68.788  1.00  0.00    -0.025 C  
HETATM   39  C   UNL     1      -5.180   4.791  68.688  1.00  0.00    -0.004 C  
ENDBRANCH  31  34
ENDBRANCH  23  24
ENDBRANCH  11  23
ENDBRANCH  10  11
ENDBRANCH   6  10
ENDBRANCH   5   6
ENDBRANCH   3   5
ENDBRANCH   2   3
TORSDOF 13
ENDMDL
MODEL      305
REMARK 921   NORMALIZED FREE ENERGY PREDICTED BY IDOCK:   -1.30 KCAL/MOL
REMARK 922        TOTAL FREE ENERGY PREDICTED BY IDOCK:   -4.76 KCAL/MOL
REMARK 923 INTER-LIGAND FREE ENERGY PREDICTED BY IDOCK:   -6.65 KCAL/MOL
REMARK 924 INTRA-LIGAND FREE ENERGY PREDICTED BY IDOCK:    1.89 KCAL/MOL
REMARK 927      BINDING AFFINITY PREDICTED BY RF-SCORE:    0.00 PKD
ROOT
HETATM    1  C   UNL     1     -10.584   5.603  66.843  1.00  0.00    -0.367 C  
HETATM    2  C   UNL     1      -9.113   5.242  66.945  1.00  0.00    -0.113 C  
ENDROOT
BRANCH   2   3
HETATM    3  C   UNL     1      -8.136   5.959  66.017  1.00  0.00    -0.115 C  
HETATM    4  O   UNL     1      -7.145   5.407  65.551  1.00  0.00    -0.064 OA 
BRANCH   3   5
HETATM    5  O   UNL     1      -8.549   7.207  65.686  1.00  0.00    -0.148 OA 
BRANCH   5   6
HETATM    6  C   UNL     1      -7.893   8.347  66.326  1.00  0.00    -0.098 C  
HETATM    7  C   UNL     1      -6.452   8.463  65.709  1.00  0.00    -0.053 C  
HETATM    8  C   UNL     1      -5.616   9.602  66.291  1.00  0.00    -0.052 C  
HETATM    9  C   UNL     1      -6.460   8.583  64.184  1.00  0.00    -0.071 C  
BRANCH   6  10
HETATM   10  O   UNL     1      -7.844   8.313  67.785  1.00  0.00    -0.110 OA 
BRANCH  10  11
HETATM   11  P   UNL     1      -6.341   8.316  68.505  1.00  0.00    -0.056 P  
HETATM   12  O   UNL     1      -6.059   6.870  68.029  1.00  0.00    -0.030 OA 
BRANCH  11  13
HETATM   13  C   UNL     1      -6.682   7.675  70.331  1.00  0.00    -0.042 C  
BRANCH  13  14
HETATM   14  C   UNL     1      -7.192   6.230  70.356  1.00  0.00    -0.083 C  
BRANCH  14  15
HETATM   15  C   UNL     1      -6.524   5.353  71.400  1.00  0.00    -0.036 C  
BRANCH  15  16
HETATM   16  C   UNL     1      -7.013   5.767  72.797  1.00  0.00    -0.080 C  
BRANCH  16  17
HETATM   17  C   UNL     1      -8.444   5.352  72.999  1.00  0.00    -0.118 A  
HETATM   18  C   UNL     1      -8.894   4.106  72.546  1.00  0.00    -0.119 A  
HETATM   19  C   UNL     1      -9.321   6.190  73.698  1.00  0.00    -0.136 A  
HETATM   20  C   UNL     1     -11.077   4.542  73.490  1.00  0.00    -0.398 A  
HETATM   21  C   UNL     1     -10.214   3.707  72.788  1.00  0.00    -0.239 A  
HETATM   22  C   UNL     1     -10.631   5.780  73.944  1.00  0.00    -0.266 A  
ENDBRANCH  16  17
ENDBRANCH  15  16
ENDBRANCH  14  15
ENDBRANCH  13  14
ENDBRANCH  11  13
BRANCH  11  23
HETATM   23  C   UNL     1      -6.676  10.025  69.066  1.00  0.00    -0.053 C  
BRANCH  23  24
HETATM   24  C   UNL     1      -8.164  10.420  69.042  1.00  0.00    -0.141 C  
HETATM   25  C   UNL     1     -10.041  12.002  68.535  1.00  0.00    -0.196 C  
HETATM   26  O   UNL     1      -8.997   9.703  69.612  1.00  0.00    -0.171 OA 
HETATM   27  N   UNL     1      -8.646  11.520  68.367  1.00  0.00    -0.157 N  
HETATM   28  C   UNL     1     -11.200  11.183  67.903  1.00  0.00    -0.302 C  
HETATM   29  O   UNL     1     -12.256  11.676  67.522  1.00  0.00    -0.501 OA 
HETATM   30  C   UNL     1      -8.044  12.214  67.246  1.00  0.00    -0.176 C  
HETATM   31  C   UNL     1      -8.678  13.617  67.226  1.00  0.00    -0.223 C  
HETATM   32  O   UNL     1     -11.024   9.844  67.918  1.00  0.00    -0.272 OA 
HETATM   33  C   UNL     1     -10.037  13.419  67.930  1.00  0.00    -0.238 C  
BRANCH  31  34
HETATM   34  C   UNL     1      -7.845  14.757  67.890  1.00  0.00    -0.145 C  
HETATM   35  C   UNL     1      -8.744  16.672  66.486  1.00  0.00    -0.317 C  
HETATM   36  C   UNL     1      -9.481  17.275  67.677  1.00  0.00    -0.246 C  
HETATM   37  C   UNL     1      -9.753  16.260  68.786  1.00  0.00    -0.240 C  
HETATM   38  C   UNL     1      -7.499  15.922  66.948  1.00  0.00    -0.233 C  
HETATM   39  C   UNL     1      -8.550  15.372  69.126  1.00  0.00    -0.242 C  
ENDBRANCH  31  34
ENDBRANCH  23  24
ENDBRANCH  11  23
ENDBRANCH  10  11
ENDBRANCH   6  10
ENDBRANCH   5   6
ENDBRANCH   3   5
ENDBRANCH   2   3
TORSDOF 13
ENDMDL
MODEL      306
REMARK 921   NORMALIZED FREE ENERGY PREDICTED BY IDOCK:   -1.26 KCAL/MOL
REMARK 922        TOTAL FREE ENERGY PREDICTED BY IDOCK:   -4.67 KCAL/MOL
REMARK 923 INTER-LIGAND FREE ENERGY PREDICTED BY IDOCK:   -6.72 KCAL/MOL
REMARK 924 INTRA-LIGAND FREE ENERGY PREDICTED BY IDOCK:    2.04 KCAL/MOL
REMARK 927      BINDING AFFINITY PREDICTED BY RF-SCORE:    0.00 PKD
ROOT
HETATM    1  C   UNL     1      -8.387  15.291  69.925  1.00  0.00     0.156 C  
HETATM    2  C   UNL     1      -6.931  15.069  69.557  1.00  0.00    -0.187 C  
ENDROOT
BRANCH   2   3
HETATM    3  C   UNL     1      -6.626  14.154  68.373  1.00  0.00    -0.106 C  
HETATM    4  O   UNL     1      -6.732  14.526  67.209  1.00  0.00    -0.274 OA 
BRANCH   3   5
HETATM    5  O   UNL     1      -6.125  12.954  68.755  1.00  0.00    -0.067 OA 
BRANCH   5   6
HETATM    6  C   UNL     1      -6.915  11.754  68.479  1.00  0.00    -0.083 C  
HETATM    7  C   UNL     1      -6.618  11.331  66.995  1.00  0.00    -0.116 C  
HETATM    8  C   UNL     1      -7.388  10.094  66.534  1.00  0.00    -0.108 C  
HETATM    9  C   UNL     1      -5.128  11.119  66.718  1.00  0.00    -0.083 C  
BRANCH   6  10
HETATM   10  O   UNL     1      -8.350  11.870  68.720  1.00  0.00    -0.096 OA 
BRANCH  10  11
HETATM   11  P   UNL     1      -9.377  11.224  67.578  1.00  0.00    -0.166 P  
HETATM   12  O   UNL     1      -8.813  12.154  66.476  1.00  0.00    -0.204 OA 
BRANCH  11  13
HETATM   13  C   UNL     1     -10.999  12.326  67.711  1.00  0.00    -0.232 C  
BRANCH  13  14
HETATM   14  C   UNL     1     -10.688  13.776  68.099  1.00  0.00    -0.258 C  
BRANCH  14  15
HETATM   15  C   UNL     1     -11.518  14.809  67.358  1.00  0.00    -0.376 C  
BRANCH  15  16
HETATM   16  C   UNL     1     -10.615  15.573  66.376  1.00  0.00    -0.312 C  
BRANCH  16  17
HETATM   17  C   UNL     1      -9.974  16.750  67.055  1.00  0.00    -0.269 A  
HETATM   18  C   UNL     1      -8.678  17.154  66.709  1.00  0.00    -0.270 A  
HETATM   19  C   UNL     1     -10.697  17.489  67.999  1.00  0.00    -0.342 A  
HETATM   20  C   UNL     1      -8.840  19.017  68.240  1.00  0.00    -0.370 A  
HETATM   21  C   UNL     1      -8.112  18.284  67.310  1.00  0.00    -0.233 A  
HETATM   22  C   UNL     1     -10.129  18.620  68.584  1.00  0.00    -0.412 A  
ENDBRANCH  16  17
ENDBRANCH  15  16
ENDBRANCH  14  15
ENDBRANCH  13  14
ENDBRANCH  11  13
BRANCH  11  23
HETATM   23  C   UNL     1     -10.044  10.125  68.881  1.00  0.00    -0.200 C  
BRANCH  23  24
HETATM   24  C   UNL     1      -8.973   9.314  69.634  1.00  0.00    -0.160 C  
HETATM   25  C   UNL     1      -7.654   7.227  70.065  1.00  0.00    -0.090 C  
HETATM   26  O   UNL     1      -8.443   9.792  70.645  1.00  0.00    -0.200 OA 
HETATM   27  N   UNL     1      -8.520   8.082  69.215  1.00  0.00    -0.134 N  
HETATM   28  C   UNL     1      -6.169   7.634  70.274  1.00  0.00    -0.033 C  
HETATM   29  O   UNL     1      -5.264   6.833  70.483  1.00  0.00    -0.018 OA 
HETATM   30  C   UNL     1      -8.555   7.526  67.876  1.00  0.00    -0.121 C  
HETATM   31  C   UNL     1      -8.432   6.001  68.047  1.00  0.00    -0.115 C  
HETATM   32  O   UNL     1      -5.948   8.964  70.343  1.00  0.00    -0.033 OA 
HETATM   33  C   UNL     1      -7.706   5.838  69.400  1.00  0.00    -0.092 C  
BRANCH  31  34
HETATM   34  C   UNL     1      -9.767   5.196  68.009  1.00  0.00    -0.188 C  
HETATM   35  C   UNL     1      -9.706   4.590  65.544  1.00  0.00    -0.204 C  
HETATM   36  C   UNL     1      -9.472   3.115  65.853  1.00  0.00    -0.050 C  
HETATM   37  C   UNL     1      -8.889   2.883  67.245  1.00  0.00    -0.162 C  
HETATM   38  C   UNL     1     -10.504   5.254  66.660  1.00  0.00    -0.345 C  
HETATM   39  C   UNL     1      -9.574   3.697  68.351  1.00  0.00    -0.164 C  
ENDBRANCH  31  34
ENDBRANCH  23  24
ENDBRANCH  11  23
ENDBRANCH  10  11
ENDBRANCH   6  10
ENDBRANCH   5   6
ENDBRANCH   3   5
ENDBRANCH   2   3
TORSDOF 13
ENDMDL
MODEL      307
REMARK 921   NORMALIZED FREE ENERGY PREDICTED BY IDOCK:   -1.23 KCAL/MOL
REMARK 922        TOTAL FREE ENERGY PREDICTED BY IDOCK:   -4.63 KCAL/MOL
REMARK 923 INTER-LIGAND FREE ENERGY PREDICTED BY IDOCK:   -6.32 KCAL/MOL
REMARK 924 INTRA-LIGAND FREE ENERGY PREDICTED BY IDOCK:    1.69 KCAL/MOL
REMARK 927      BINDING AFFINITY PREDICTED BY RF-SCORE:    0.00 PKD
ROOT
HETATM    1  C   UNL     1      -9.023   8.056  65.067  1.00  0.00     0.246 C  
HETATM    2  C   UNL     1      -8.849   9.361  64.312  1.00  0.00    -0.220 C  
ENDROOT
BRANCH   2   3
HETATM    3  C   UNL     1      -7.719  10.292  64.744  1.00  0.00    -0.119 C  
HETATM    4  O   UNL     1      -6.644  10.340  64.156  1.00  0.00    -0.129 OA 
BRANCH   3   5
HETATM    5  O   UNL     1      -8.080  11.118  65.756  1.00  0.00    -0.098 OA 
BRANCH   5   6
HETATM    6  C   UNL     1      -7.907  10.649  67.131  1.00  0.00    -0.117 C  
HETATM    7  C   UNL     1      -6.375  10.357  67.334  1.00  0.00    -0.058 C  
HETATM    8  C   UNL     1      -6.022   9.832  68.724  1.00  0.00    -0.038 C  
HETATM    9  C   UNL     1      -5.488  11.562  67.018  1.00  0.00    -0.110 C  
BRANCH   6  10
HETATM   10  O   UNL     1      -8.721   9.500  67.516  1.00  0.00    -0.125 OA 
BRANCH  10  11
HETATM   11  P   UNL     1      -9.308   9.461  69.075  1.00  0.00    -0.163 P  
HETATM   12  O   UNL     1      -8.317   8.340  69.471  1.00  0.00    -0.118 OA 
BRANCH  11  13
HETATM   13  C   UNL     1     -10.783   8.165  69.002  1.00  0.00    -0.080 C  
BRANCH  13  14
HETATM   14  C   UNL     1     -11.329   7.824  70.393  1.00  0.00    -0.219 C  
BRANCH  14  15
HETATM   15  C   UNL     1     -10.547   6.743  71.117  1.00  0.00    -0.252 C  
BRANCH  15  16
HETATM   16  C   UNL     1     -10.273   5.581  70.148  1.00  0.00    -0.333 C  
BRANCH  16  17
HETATM   17  C   UNL     1      -9.310   4.601  70.758  1.00  0.00    -0.215 A  
HETATM   18  C   UNL     1      -9.556   3.224  70.689  1.00  0.00    -0.223 A  
HETATM   19  C   UNL     1      -8.127   5.061  71.348  1.00  0.00    -0.112 A  
HETATM   20  C   UNL     1      -7.450   2.783  71.790  1.00  0.00    -0.041 A  
HETATM   21  C   UNL     1      -8.626   2.318  71.213  1.00  0.00    -0.100 A  
HETATM   22  C   UNL     1      -7.201   4.151  71.857  1.00  0.00    -0.058 A  
ENDBRANCH  16  17
ENDBRANCH  15  16
ENDBRANCH  14  15
ENDBRANCH  13  14
ENDBRANCH  11  13
BRANCH  11  23
HETATM   23  C   UNL     1     -10.479  10.787  68.608  1.00  0.00    -0.192 C  
BRANCH  23  24
HETATM   24  C   UNL     1     -11.099  11.535  69.803  1.00  0.00    -0.084 C  
HETATM   25  C   UNL     1     -12.121  13.554  70.880  1.00  0.00    -0.216 C  
HETATM   26  O   UNL     1     -11.087  11.012  70.925  1.00  0.00     0.335 OA 
HETATM   27  N   UNL     1     -11.726  12.756  69.691  1.00  0.00    -0.312 N  
HETATM   28  C   UNL     1     -13.329  13.081  71.735  1.00  0.00    -0.378 C  
HETATM   29  O   UNL     1     -14.054  13.839  72.372  1.00  0.00    -0.614 OA 
HETATM   30  C   UNL     1     -12.331  13.345  68.512  1.00  0.00     0.106 C  
HETATM   31  C   UNL     1     -12.400  14.859  68.782  1.00  0.00    -0.007 C  
HETATM   32  O   UNL     1     -13.457  11.741  71.845  1.00  0.00    -0.371 OA 
HETATM   33  C   UNL     1     -12.419  14.960  70.323  1.00  0.00    -0.386 C  
BRANCH  31  34
HETATM   34  C   UNL     1     -11.257  15.720  68.162  1.00  0.00    -0.344 C  
HETATM   35  C   UNL     1      -9.389  14.024  68.443  1.00  0.00    -0.210 C  
HETATM   36  C   UNL     1      -9.283  13.806  66.938  1.00  0.00    -0.263 C  
HETATM   37  C   UNL     1     -10.553  14.202  66.187  1.00  0.00    -0.293 C  
HETATM   38  C   UNL     1      -9.862  15.440  68.749  1.00  0.00    -0.211 C  
HETATM   39  C   UNL     1     -11.141  15.549  66.627  1.00  0.00    -0.193 C  
ENDBRANCH  31  34
ENDBRANCH  23  24
ENDBRANCH  11  23
ENDBRANCH  10  11
ENDBRANCH   6  10
ENDBRANCH   5   6
ENDBRANCH   3   5
ENDBRANCH   2   3
TORSDOF 13
ENDMDL
MODEL      308
REMARK 921   NORMALIZED FREE ENERGY PREDICTED BY IDOCK:   -1.18 KCAL/MOL
REMARK 922        TOTAL FREE ENERGY PREDICTED BY IDOCK:   -4.54 KCAL/MOL
REMARK 923 INTER-LIGAND FREE ENERGY PREDICTED BY IDOCK:   -5.15 KCAL/MOL
REMARK 924 INTRA-LIGAND FREE ENERGY PREDICTED BY IDOCK:    0.61 KCAL/MOL
REMARK 927      BINDING AFFINITY PREDICTED BY RF-SCORE:    0.00 PKD
ROOT
HETATM    1  C   UNL     1     -12.481  11.269  69.923  1.00  0.00    -0.220 C  
HETATM    2  C   UNL     1     -11.181  12.011  69.669  1.00  0.00    -0.168 C  
ENDROOT
BRANCH   2   3
HETATM    3  C   UNL     1      -9.978  11.200  69.195  1.00  0.00    -0.082 C  
HETATM    4  O   UNL     1     -10.096  10.150  68.571  1.00  0.00    -0.158 OA 
BRANCH   3   5
HETATM    5  O   UNL     1      -8.798  11.823  69.438  1.00  0.00     0.471 OA 
BRANCH   5   6
HETATM    6  C   UNL     1      -8.298  12.771  68.444  1.00  0.00    -0.119 C  
HETATM    7  C   UNL     1      -7.090  13.538  69.096  1.00  0.00    -0.021 C  
HETATM    8  C   UNL     1      -6.460  14.593  68.188  1.00  0.00    -0.142 C  
HETATM    9  C   UNL     1      -5.992  12.603  69.607  1.00  0.00    -0.122 C  
BRANCH   6  10
HETATM   10  O   UNL     1      -9.285  13.701  67.901  1.00  0.00    -0.187 OA 
BRANCH  10  11
HETATM   11  P   UNL     1      -9.433  13.785  66.244  1.00  0.00    -0.070 P  
HETATM   12  O   UNL     1      -8.960  15.259  66.229  1.00  0.00    -0.299 OA 
BRANCH  11  13
HETATM   13  C   UNL     1     -11.292  14.353  65.955  1.00  0.00    -0.335 C  
BRANCH  13  14
HETATM   14  C   UNL     1     -11.956  14.851  67.244  1.00  0.00    -0.149 C  
BRANCH  14  15
HETATM   15  C   UNL     1     -11.110  15.830  68.038  1.00  0.00    -0.337 C  
BRANCH  15  16
HETATM   16  C   UNL     1     -11.611  17.260  67.775  1.00  0.00     0.793 C  
BRANCH  16  17
HETATM   17  C   UNL     1     -10.456  18.180  67.493  1.00  0.00    -0.425 A  
HETATM   18  C   UNL     1     -10.265  18.712  66.211  1.00  0.00    -0.462 A  
HETATM   19  C   UNL     1      -9.597  18.559  68.531  1.00  0.00    -0.388 A  
HETATM   20  C   UNL     1      -8.374  19.987  67.012  1.00  0.00    -0.373 A  
HETATM   21  C   UNL     1      -9.218  19.610  65.973  1.00  0.00    -0.303 A  
HETATM   22  C   UNL     1      -8.564  19.463  68.288  1.00  0.00    -0.376 A  
ENDBRANCH  16  17
ENDBRANCH  15  16
ENDBRANCH  14  15
ENDBRANCH  13  14
ENDBRANCH  11  13
BRANCH  11  23
HETATM   23  C   UNL     1      -9.991  12.042  66.261  1.00  0.00    -0.227 C  
BRANCH  23  24
HETATM   24  C   UNL     1      -9.336  11.157  65.184  1.00  0.00    -0.213 C  
HETATM   25  C   UNL     1      -8.261   9.034  64.398  1.00  0.00    -0.165 C  
HETATM   26  O   UNL     1      -9.055  11.643  64.081  1.00  0.00     0.084 OA 
HETATM   27  N   UNL     1      -9.084   9.814  65.357  1.00  0.00    -0.187 N  
HETATM   28  C   UNL     1      -8.860   8.680  63.008  1.00  0.00     0.202 C  
HETATM   29  O   UNL     1      -8.553   7.681  62.367  1.00  0.00    -0.047 OA 
HETATM   30  C   UNL     1      -9.732   8.894  66.271  1.00  0.00    -0.275 C  
HETATM   31  C   UNL     1      -8.760   7.712  66.443  1.00  0.00    -0.166 C  
HETATM   32  O   UNL     1      -9.660   9.629  62.476  1.00  0.00    -0.085 OA 
HETATM   33  C   UNL     1      -7.922   7.731  65.147  1.00  0.00    -0.129 C  
BRANCH  31  34
HETATM   34  C   UNL     1      -7.856   7.745  67.714  1.00  0.00    -0.123 C  
HETATM   35  C   UNL     1      -8.188   5.325  68.406  1.00  0.00    -0.090 C  
HETATM   36  C   UNL     1      -6.744   4.970  68.069  1.00  0.00    -0.055 C  
HETATM   37  C   UNL     1      -6.106   5.946  67.082  1.00  0.00    -0.022 C  
HETATM   38  C   UNL     1      -8.298   6.785  68.831  1.00  0.00    -0.121 C  
HETATM   39  C   UNL     1      -6.373   7.421  67.404  1.00  0.00    -0.055 C  
ENDBRANCH  31  34
ENDBRANCH  23  24
ENDBRANCH  11  23
ENDBRANCH  10  11
ENDBRANCH   6  10
ENDBRANCH   5   6
ENDBRANCH   3   5
ENDBRANCH   2   3
TORSDOF 13
ENDMDL
MODEL      309
REMARK 921   NORMALIZED FREE ENERGY PREDICTED BY IDOCK:   -1.08 KCAL/MOL
REMARK 922        TOTAL FREE ENERGY PREDICTED BY IDOCK:   -4.36 KCAL/MOL
REMARK 923 INTER-LIGAND FREE ENERGY PREDICTED BY IDOCK:   -5.08 KCAL/MOL
REMARK 924 INTRA-LIGAND FREE ENERGY PREDICTED BY IDOCK:    0.72 KCAL/MOL
REMARK 927      BINDING AFFINITY PREDICTED BY RF-SCORE:    0.00 PKD
ROOT
HETATM    1  C   UNL     1     -11.987  12.616  66.916  1.00  0.00    -0.345 C  
HETATM    2  C   UNL     1     -10.914  12.905  67.950  1.00  0.00    -0.266 C  
ENDROOT
BRANCH   2   3
HETATM    3  C   UNL     1      -9.862  11.828  68.206  1.00  0.00    -0.198 C  
HETATM    4  O   UNL     1      -8.866  11.701  67.502  1.00  0.00    -0.151 OA 
BRANCH   3   5
HETATM    5  O   UNL     1     -10.096  11.128  69.342  1.00  0.00    -0.111 OA 
BRANCH   5   6
HETATM    6  C   UNL     1     -11.312  10.318  69.420  1.00  0.00    -0.221 C  
HETATM    7  C   UNL     1     -11.965  10.590  70.823  1.00  0.00    -0.472 C  
HETATM    8  C   UNL     1     -13.246   9.796  71.077  1.00  0.00    -0.341 C  
HETATM    9  C   UNL     1     -12.242  12.073  71.079  1.00  0.00    -0.245 C  
BRANCH   6  10
HETATM   10  O   UNL     1     -11.137   8.887  69.184  1.00  0.00    -0.045 OA 
BRANCH  10  11
HETATM   11  P   UNL     1      -9.777   8.164  69.820  1.00  0.00    -0.176 P  
HETATM   12  O   UNL     1     -10.419   8.085  71.226  1.00  0.00    -0.198 OA 
BRANCH  11  13
HETATM   13  C   UNL     1      -8.653   9.671  70.391  1.00  0.00    -0.157 C  
BRANCH  13  14
HETATM   14  C   UNL     1      -7.400   9.825  69.521  1.00  0.00    -0.092 C  
BRANCH  14  15
HETATM   15  C   UNL     1      -6.094   9.686  70.283  1.00  0.00    -0.062 C  
BRANCH  15  16
HETATM   16  C   UNL     1      -5.643  11.071  70.772  1.00  0.00    -0.115 C  
BRANCH  16  17
HETATM   17  C   UNL     1      -5.815  12.096  69.686  1.00  0.00    -0.107 A  
HETATM   18  C   UNL     1      -5.351  11.843  68.388  1.00  0.00    -0.045 A  
HETATM   19  C   UNL     1      -6.496  13.289  69.954  1.00  0.00     0.016 A  
HETATM   20  C   UNL     1      -6.249  13.960  67.645  1.00  0.00    -0.109 A  
HETATM   21  C   UNL     1      -5.564  12.781  67.372  1.00  0.00    -0.057 A  
HETATM   22  C   UNL     1      -6.714  14.213  68.932  1.00  0.00    -0.103 A  
ENDBRANCH  16  17
ENDBRANCH  15  16
ENDBRANCH  14  15
ENDBRANCH  13  14
ENDBRANCH  11  13
BRANCH  11  23
HETATM   23  C   UNL     1      -9.019   8.257  68.157  1.00  0.00    -0.139 C  
BRANCH  23  24
HETATM   24  C   UNL     1      -9.027   6.926  67.382  1.00  0.00    -0.116 C  
HETATM   25  C   UNL     1      -8.398   5.479  65.435  1.00  0.00    -0.142 C  
HETATM   26  O   UNL     1      -9.754   6.000  67.764  1.00  0.00    -0.111 OA 
HETATM   27  N   UNL     1      -8.220   6.678  66.293  1.00  0.00    -0.115 N  
HETATM   28  C   UNL     1      -7.977   4.089  65.988  1.00  0.00    -0.094 C  
HETATM   29  O   UNL     1      -7.591   3.162  65.283  1.00  0.00    -0.078 OA 
HETATM   30  C   UNL     1      -6.968   7.319  65.945  1.00  0.00    -0.061 C  
HETATM   31  C   UNL     1      -6.769   7.070  64.439  1.00  0.00    -0.046 C  
HETATM   32  O   UNL     1      -8.191   3.915  67.309  1.00  0.00    -0.097 OA 
HETATM   33  C   UNL     1      -7.579   5.785  64.166  1.00  0.00    -0.083 C  
BRANCH  31  34
HETATM   34  C   UNL     1      -7.192   8.232  63.488  1.00  0.00    -0.093 C  
HETATM   35  C   UNL     1      -7.442  10.027  65.265  1.00  0.00    -0.137 C  
HETATM   36  C   UNL     1      -6.228  10.791  64.747  1.00  0.00     0.147 C  
HETATM   37  C   UNL     1      -5.277   9.916  63.933  1.00  0.00    -0.082 C  
HETATM   38  C   UNL     1      -8.126   9.271  64.132  1.00  0.00    -0.145 C  
HETATM   39  C   UNL     1      -5.981   9.011  62.915  1.00  0.00    -0.089 C  
ENDBRANCH  31  34
ENDBRANCH  23  24
ENDBRANCH  11  23
ENDBRANCH  10  11
ENDBRANCH   6  10
ENDBRANCH   5   6
ENDBRANCH   3   5
ENDBRANCH   2   3
TORSDOF 13
ENDMDL
MODEL      310
REMARK 921   NORMALIZED FREE ENERGY PREDICTED BY IDOCK:   -1.07 KCAL/MOL
REMARK 922        TOTAL FREE ENERGY PREDICTED BY IDOCK:   -4.34 KCAL/MOL
REMARK 923 INTER-LIGAND FREE ENERGY PREDICTED BY IDOCK:   -5.63 KCAL/MOL
REMARK 924 INTRA-LIGAND FREE ENERGY PREDICTED BY IDOCK:    1.28 KCAL/MOL
REMARK 927      BINDING AFFINITY PREDICTED BY RF-SCORE:    0.00 PKD
ROOT
HETATM    1  C   UNL     1     -12.511  10.581  69.997  1.00  0.00    -0.243 C  
HETATM    2  C   UNL     1     -11.022  10.847  70.127  1.00  0.00    -0.153 C  
ENDROOT
BRANCH   2   3
HETATM    3  C   UNL     1     -10.059   9.817  69.542  1.00  0.00    -0.217 C  
HETATM    4  O   UNL     1     -10.399   8.663  69.299  1.00  0.00    -0.214 OA 
BRANCH   3   5
HETATM    5  O   UNL     1      -8.854  10.348  69.224  1.00  0.00    -0.166 OA 
BRANCH   5   6
HETATM    6  C   UNL     1      -8.698  10.979  67.914  1.00  0.00    -0.133 C  
HETATM    7  C   UNL     1      -7.529  10.234  67.173  1.00  0.00    -0.092 C  
HETATM    8  C   UNL     1      -7.219  10.790  65.784  1.00  0.00    -0.057 C  
HETATM    9  C   UNL     1      -7.754   8.724  67.064  1.00  0.00    -0.095 C  
BRANCH   6  10
HETATM   10  O   UNL     1      -8.482  12.423  67.927  1.00  0.00    -0.147 OA 
BRANCH  10  11
HETATM   11  P   UNL     1      -7.044  12.980  68.560  1.00  0.00    -0.110 P  
HETATM   12  O   UNL     1      -7.130  11.992  69.748  1.00  0.00     0.137 OA 
BRANCH  11  13
HETATM   13  C   UNL     1      -7.578  14.468  69.728  1.00  0.00     0.162 C  
BRANCH  13  14
HETATM   14  C   UNL     1      -9.007  14.309  70.258  1.00  0.00     2.012 C  
BRANCH  14  15
HETATM   15  C   UNL     1     -10.037  15.150  69.526  1.00  0.00    -0.222 C  
BRANCH  15  16
HETATM   16  C   UNL     1     -10.510  16.286  70.447  1.00  0.00     0.154 C  
BRANCH  16  17
HETATM   17  C   UNL     1     -11.772  15.896  71.163  1.00  0.00    -0.490 A  
HETATM   18  C   UNL     1     -11.876  16.035  72.553  1.00  0.00    -0.630 A  
HETATM   19  C   UNL     1     -12.877  15.445  70.432  1.00  0.00    -0.355 A  
HETATM   20  C   UNL     1     -14.170  15.280  72.467  1.00  0.00    -0.477 A  
HETATM   21  C   UNL     1     -13.075  15.719  73.202  1.00  0.00    -0.669 A  
HETATM   22  C   UNL     1     -14.071  15.144  71.085  1.00  0.00    -0.463 A  
ENDBRANCH  16  17
ENDBRANCH  15  16
ENDBRANCH  14  15
ENDBRANCH  13  14
ENDBRANCH  11  13
BRANCH  11  23
HETATM   23  C   UNL     1      -6.944  14.148  67.155  1.00  0.00     0.383 C  
BRANCH  23  24
HETATM   24  C   UNL     1      -8.309  14.650  66.650  1.00  0.00     0.078 C  
HETATM   25  C   UNL     1      -9.905  16.459  65.970  1.00  0.00    -0.335 C  
HETATM   26  O   UNL     1      -9.253  13.856  66.548  1.00  0.00    -0.260 OA 
HETATM   27  N   UNL     1      -8.539  15.947  66.245  1.00  0.00    -0.330 N  
HETATM   28  C   UNL     1     -10.638  15.992  64.682  1.00  0.00     0.132 C  
HETATM   29  O   UNL     1     -11.469  16.668  64.086  1.00  0.00    -1.131 OA 
HETATM   30  C   UNL     1      -7.572  16.920  65.776  1.00  0.00     0.523 C  
HETATM   31  C   UNL     1      -8.232  18.298  65.964  1.00  0.00    -0.087 C  
HETATM   32  O   UNL     1     -10.395  14.714  64.321  1.00  0.00     0.057 OA 
HETATM   33  C   UNL     1      -9.745  17.991  65.931  1.00  0.00     0.004 C  
BRANCH  31  34
HETATM   34  C   UNL     1      -7.831  19.082  67.252  1.00  0.00    -0.263 C  
HETATM   35  C   UNL     1      -9.659  20.839  67.140  1.00  0.00    -0.465 C  
HETATM   36  C   UNL     1     -10.357  20.275  68.373  1.00  0.00    -0.305 C  
HETATM   37  C   UNL     1      -9.995  18.817  68.647  1.00  0.00    -0.444 C  
HETATM   38  C   UNL     1      -8.158  20.584  67.207  1.00  0.00    -0.362 C  
HETATM   39  C   UNL     1      -8.496  18.515  68.531  1.00  0.00    -0.354 C  
ENDBRANCH  31  34
ENDBRANCH  23  24
ENDBRANCH  11  23
ENDBRANCH  10  11
ENDBRANCH   6  10
ENDBRANCH   5   6
ENDBRANCH   3   5
ENDBRANCH   2   3
TORSDOF 13
ENDMDL
MODEL      311
REMARK 921   NORMALIZED FREE ENERGY PREDICTED BY IDOCK:   -1.04 KCAL/MOL
REMARK 922        TOTAL FREE ENERGY PREDICTED BY IDOCK:   -4.30 KCAL/MOL
REMARK 923 INTER-LIGAND FREE ENERGY PREDICTED BY IDOCK:   -6.60 KCAL/MOL
REMARK 924 INTRA-LIGAND FREE ENERGY PREDICTED BY IDOCK:    2.30 KCAL/MOL
REMARK 927      BINDING AFFINITY PREDICTED BY RF-SCORE:    0.00 PKD
ROOT
HETATM    1  C   UNL     1      -9.374  11.349  63.095  1.00  0.00    -0.307 C  
HETATM    2  C   UNL     1     -10.704  12.050  62.888  1.00  0.00     0.197 C  
ENDROOT
BRANCH   2   3
HETATM    3  C   UNL     1     -11.694  12.059  64.050  1.00  0.00    -0.410 C  
HETATM    4  O   UNL     1     -12.906  12.141  63.881  1.00  0.00    -0.687 OA 
BRANCH   3   5
HETATM    5  O   UNL     1     -11.096  11.852  65.249  1.00  0.00    -0.301 OA 
BRANCH   5   6
HETATM    6  C   UNL     1     -11.903  11.995  66.460  1.00  0.00    -0.158 C  
HETATM    7  C   UNL     1     -11.515  13.368  67.120  1.00  0.00    -0.373 C  
HETATM    8  C   UNL     1     -12.259  13.665  68.421  1.00  0.00    -0.168 C  
HETATM    9  C   UNL     1     -11.680  14.557  66.171  1.00  0.00    -0.355 C  
BRANCH   6  10
HETATM   10  O   UNL     1     -11.806  10.899  67.420  1.00  0.00    -0.465 OA 
BRANCH  10  11
HETATM   11  P   UNL     1     -10.287  10.302  67.754  1.00  0.00    -0.239 P  
HETATM   12  O   UNL     1     -10.099  11.300  68.922  1.00  0.00    -0.204 OA 
BRANCH  11  13
HETATM   13  C   UNL     1      -9.090  11.369  66.618  1.00  0.00    -0.181 C  
BRANCH  13  14
HETATM   14  C   UNL     1      -8.516  12.583  67.356  1.00  0.00    -0.181 C  
BRANCH  14  15
HETATM   15  C   UNL     1      -7.348  12.259  68.270  1.00  0.00    -0.108 C  
BRANCH  15  16
HETATM   16  C   UNL     1      -6.582  13.553  68.591  1.00  0.00    -0.098 C  
BRANCH  16  17
HETATM   17  C   UNL     1      -7.523  14.724  68.640  1.00  0.00    -0.126 A  
HETATM   18  C   UNL     1      -7.309  15.844  67.826  1.00  0.00    -0.162 A  
HETATM   19  C   UNL     1      -8.657  14.674  69.459  1.00  0.00     0.198 A  
HETATM   20  C   UNL     1      -9.349  16.844  68.651  1.00  0.00    -0.268 A  
HETATM   21  C   UNL     1      -8.221  16.906  67.841  1.00  0.00    -0.198 A  
HETATM   22  C   UNL     1      -9.566  15.731  69.458  1.00  0.00    -0.262 A  
ENDBRANCH  16  17
ENDBRANCH  15  16
ENDBRANCH  14  15
ENDBRANCH  13  14
ENDBRANCH  11  13
BRANCH  11  23
HETATM   23  C   UNL     1     -10.509   9.121  66.374  1.00  0.00    -0.071 C  
BRANCH  23  24
HETATM   24  C   UNL     1      -9.254   8.293  66.041  1.00  0.00    -0.166 C  
HETATM   25  C   UNL     1      -7.880   6.199  66.126  1.00  0.00    -0.105 C  
HETATM   26  O   UNL     1      -8.278   8.845  65.515  1.00  0.00    -0.115 OA 
HETATM   27  N   UNL     1      -9.164   6.934  66.249  1.00  0.00    -0.149 N  
HETATM   28  C   UNL     1      -7.284   5.959  64.711  1.00  0.00    -0.063 C  
HETATM   29  O   UNL     1      -6.580   4.997  64.421  1.00  0.00    -0.040 OA 
HETATM   30  C   UNL     1     -10.245   5.973  66.350  1.00  0.00    -0.076 C  
HETATM   31  C   UNL     1      -9.661   4.755  67.087  1.00  0.00    -0.185 C  
HETATM   32  O   UNL     1      -7.483   6.965  63.833  1.00  0.00    -0.080 OA 
HETATM   33  C   UNL     1      -8.147   4.837  66.797  1.00  0.00    -0.107 C  
BRANCH  31  34
HETATM   34  C   UNL     1      -9.951   4.673  68.618  1.00  0.00    -0.140 C  
HETATM   35  C   UNL     1      -8.149   2.980  69.196  1.00  0.00    -0.069 C  
HETATM   36  C   UNL     1      -7.342   4.017  69.969  1.00  0.00    -0.045 C  
HETATM   37  C   UNL     1      -7.670   5.452  69.562  1.00  0.00    -0.077 C  
HETATM   38  C   UNL     1      -9.637   3.307  69.251  1.00  0.00    -0.110 C  
HETATM   39  C   UNL     1      -9.171   5.735  69.434  1.00  0.00    -0.144 C  
ENDBRANCH  31  34
ENDBRANCH  23  24
ENDBRANCH  11  23
ENDBRANCH  10  11
ENDBRANCH   6  10
ENDBRANCH   5   6
ENDBRANCH   3   5
ENDBRANCH   2   3
TORSDOF 13
ENDMDL
MODEL      312
REMARK 921   NORMALIZED FREE ENERGY PREDICTED BY IDOCK:   -0.94 KCAL/MOL
REMARK 922        TOTAL FREE ENERGY PREDICTED BY IDOCK:   -4.12 KCAL/MOL
REMARK 923 INTER-LIGAND FREE ENERGY PREDICTED BY IDOCK:   -6.76 KCAL/MOL
REMARK 924 INTRA-LIGAND FREE ENERGY PREDICTED BY IDOCK:    2.64 KCAL/MOL
REMARK 927      BINDING AFFINITY PREDICTED BY RF-SCORE:    0.00 PKD
ROOT
HETATM    1  C   UNL     1      -8.584   9.303  62.331  1.00  0.00    -0.225 C  
HETATM    2  C   UNL     1      -8.294   8.839  63.747  1.00  0.00    -0.140 C  
ENDROOT
BRANCH   2   3
HETATM    3  C   UNL     1      -8.986   9.572  64.894  1.00  0.00    -0.219 C  
HETATM    4  O   UNL     1      -9.839  10.433  64.705  1.00  0.00    -0.299 OA 
BRANCH   3   5
HETATM    5  O   UNL     1      -8.639   9.085  66.111  1.00  0.00    -0.124 OA 
BRANCH   5   6
HETATM    6  C   UNL     1      -7.689   9.850  66.918  1.00  0.00    -0.098 C  
HETATM    7  C   UNL     1      -6.252   9.554  66.352  1.00  0.00    -0.064 C  
HETATM    8  C   UNL     1      -5.129  10.266  67.105  1.00  0.00    -0.040 C  
HETATM    9  C   UNL     1      -6.121   9.862  64.859  1.00  0.00    -0.103 C  
BRANCH   6  10
HETATM   10  O   UNL     1      -7.750   9.617  68.358  1.00  0.00    -0.081 OA 
BRANCH  10  11
HETATM   11  P   UNL     1      -8.813  10.545  69.244  1.00  0.00    -0.002 P  
HETATM   12  O   UNL     1      -8.666   9.622  70.477  1.00  0.00    -0.218 OA 
BRANCH  11  13
HETATM   13  C   UNL     1     -10.575   9.770  68.844  1.00  0.00    -0.218 C  
BRANCH  13  14
HETATM   14  C   UNL     1     -11.394   9.503  70.111  1.00  0.00    -0.241 C  
BRANCH  14  15
HETATM   15  C   UNL     1     -11.482   8.037  70.496  1.00  0.00    -0.192 C  
BRANCH  15  16
HETATM   16  C   UNL     1     -11.419   7.911  72.027  1.00  0.00    -0.351 C  
BRANCH  16  17
HETATM   17  C   UNL     1     -10.059   7.442  72.461  1.00  0.00    -0.237 A  
HETATM   18  C   UNL     1      -9.263   8.239  73.294  1.00  0.00    -0.263 A  
HETATM   19  C   UNL     1      -9.605   6.173  72.083  1.00  0.00    -0.162 A  
HETATM   20  C   UNL     1      -7.581   6.503  73.362  1.00  0.00    -0.092 A  
HETATM   21  C   UNL     1      -8.021   7.768  73.737  1.00  0.00    -0.218 A  
HETATM   22  C   UNL     1      -8.371   5.708  72.538  1.00  0.00    -0.114 A  
ENDBRANCH  16  17
ENDBRANCH  15  16
ENDBRANCH  14  15
ENDBRANCH  13  14
ENDBRANCH  11  13
BRANCH  11  23
HETATM   23  C   UNL     1      -8.987  11.637  67.785  1.00  0.00    -0.170 C  
BRANCH  23  24
HETATM   24  C   UNL     1      -8.013  12.829  67.767  1.00  0.00    -0.157 C  
HETATM   25  C   UNL     1      -7.449  15.250  68.096  1.00  0.00    -0.112 C  
HETATM   26  O   UNL     1      -6.883  12.689  67.284  1.00  0.00    -0.153 OA 
HETATM   27  N   UNL     1      -8.310  14.059  68.314  1.00  0.00    -0.156 N  
HETATM   28  C   UNL     1      -6.076  15.327  68.818  1.00  0.00    -0.087 C  
HETATM   29  O   UNL     1      -5.533  16.378  69.143  1.00  0.00    -0.117 OA 
HETATM   30  C   UNL     1      -9.277  14.366  69.350  1.00  0.00     0.305 C  
HETATM   31  C   UNL     1      -9.583  15.868  69.212  1.00  0.00    -0.266 C  
HETATM   32  O   UNL     1      -5.437  14.145  68.954  1.00  0.00    -0.080 OA 
HETATM   33  C   UNL     1      -8.319  16.443  68.537  1.00  0.00    -0.202 C  
BRANCH  31  34
HETATM   34  C   UNL     1     -10.876  16.237  68.422  1.00  0.00    -0.334 C  
HETATM   35  C   UNL     1      -9.998  15.702  66.101  1.00  0.00    -0.335 C  
HETATM   36  C   UNL     1     -10.925  14.500  65.963  1.00  0.00    -0.324 C  
HETATM   37  C   UNL     1     -11.403  13.959  67.310  1.00  0.00    -0.344 C  
HETATM   38  C   UNL     1     -10.622  16.764  66.999  1.00  0.00    -0.234 C  
HETATM   39  C   UNL     1     -11.859  15.046  68.291  1.00  0.00    -0.295 C  
ENDBRANCH  31  34
ENDBRANCH  23  24
ENDBRANCH  11  23
ENDBRANCH  10  11
ENDBRANCH   6  10
ENDBRANCH   5   6
ENDBRANCH   3   5
ENDBRANCH   2   3
TORSDOF 13
ENDMDL
MODEL      313
REMARK 921   NORMALIZED FREE ENERGY PREDICTED BY IDOCK:   -0.60 KCAL/MOL
REMARK 922        TOTAL FREE ENERGY PREDICTED BY IDOCK:   -3.51 KCAL/MOL
REMARK 923 INTER-LIGAND FREE ENERGY PREDICTED BY IDOCK:   -4.35 KCAL/MOL
REMARK 924 INTRA-LIGAND FREE ENERGY PREDICTED BY IDOCK:    0.84 KCAL/MOL
REMARK 927      BINDING AFFINITY PREDICTED BY RF-SCORE:    0.00 PKD
ROOT
HETATM    1  C   UNL     1     -12.074  12.516  67.012  1.00  0.00    -0.147 C  
HETATM    2  C   UNL     1     -10.911  12.932  67.894  1.00  0.00    -0.266 C  
ENDROOT
BRANCH   2   3
HETATM    3  C   UNL     1      -9.836  11.891  68.197  1.00  0.00    -0.192 C  
HETATM    4  O   UNL     1      -8.794  11.815  67.554  1.00  0.00    -0.153 OA 
BRANCH   3   5
HETATM    5  O   UNL     1     -10.113  11.160  69.304  1.00  0.00    -0.159 OA 
BRANCH   5   6
HETATM    6  C   UNL     1     -11.373  10.419  69.349  1.00  0.00    -0.250 C  
HETATM    7  C   UNL     1     -11.992  10.635  70.777  1.00  0.00    -0.477 C  
HETATM    8  C   UNL     1     -13.314   9.903  71.000  1.00  0.00    -0.322 C  
HETATM    9  C   UNL     1     -12.177  12.112  71.133  1.00  0.00    -0.119 C  
BRANCH   6  10
HETATM   10  O   UNL     1     -11.285   8.999  69.019  1.00  0.00     0.051 OA 
BRANCH  10  11
HETATM   11  P   UNL     1     -10.036   8.128  69.694  1.00  0.00    -0.201 P  
HETATM   12  O   UNL     1     -10.827   7.919  71.008  1.00  0.00    -0.229 OA 
BRANCH  11  13
HETATM   13  C   UNL     1      -8.912   9.490  70.559  1.00  0.00    -0.211 C  
BRANCH  13  14
HETATM   14  C   UNL     1      -7.499   9.540  69.968  1.00  0.00    -0.126 C  
BRANCH  14  15
HETATM   15  C   UNL     1      -6.391   9.468  71.002  1.00  0.00    -0.077 C  
BRANCH  15  16
HETATM   16  C   UNL     1      -6.019  10.892  71.446  1.00  0.00     0.457 C  
BRANCH  16  17
HETATM   17  C   UNL     1      -5.878  11.796  70.253  1.00  0.00    -0.163 A  
HETATM   18  C   UNL     1      -5.206  11.360  69.104  1.00  0.00    -0.043 A  
HETATM   19  C   UNL     1      -6.475  13.062  70.264  1.00  0.00     0.241 A  
HETATM   20  C   UNL     1      -5.730  13.444  67.996  1.00  0.00    -0.122 A  
HETATM   21  C   UNL     1      -5.128  12.190  67.980  1.00  0.00    -0.060 A  
HETATM   22  C   UNL     1      -6.402  13.878  69.135  1.00  0.00    -0.107 A  
ENDBRANCH  16  17
ENDBRANCH  15  16
ENDBRANCH  14  15
ENDBRANCH  13  14
ENDBRANCH  11  13
BRANCH  11  23
HETATM   23  C   UNL     1      -9.100   8.374  68.141  1.00  0.00    -0.138 C  
BRANCH  23  24
HETATM   24  C   UNL     1      -8.919   7.096  67.301  1.00  0.00    -0.123 C  
HETATM   25  C   UNL     1      -8.312   4.680  67.025  1.00  0.00    -0.105 C  
HETATM   26  O   UNL     1      -9.020   7.154  66.069  1.00  0.00    -0.161 OA 
HETATM   27  N   UNL     1      -8.697   5.852  67.851  1.00  0.00    -0.105 N  
HETATM   28  C   UNL     1      -9.383   4.019  66.113  1.00  0.00    -0.171 C  
HETATM   29  O   UNL     1      -9.380   2.831  65.806  1.00  0.00    -0.127 OA 
HETATM   30  C   UNL     1      -9.030   5.393  69.185  1.00  0.00    -0.104 C  
HETATM   31  C   UNL     1      -8.128   4.175  69.452  1.00  0.00    -0.063 C  
HETATM   32  O   UNL     1     -10.266   4.877  65.558  1.00  0.00    -0.145 OA 
HETATM   33  C   UNL     1      -7.804   3.639  68.041  1.00  0.00    -0.068 C  
BRANCH  31  34
HETATM   34  C   UNL     1      -6.833   4.445  70.277  1.00  0.00    -0.034 C  
HETATM   35  C   UNL     1      -7.892   5.897  72.070  1.00  0.00    -0.106 C  
HETATM   36  C   UNL     1      -7.682   4.831  73.139  1.00  0.00    -0.092 C  
HETATM   37  C   UNL     1      -7.517   3.428  72.557  1.00  0.00    -0.050 C  
HETATM   38  C   UNL     1      -6.812   5.804  70.998  1.00  0.00    -0.061 C  
HETATM   39  C   UNL     1      -6.569   3.362  71.353  1.00  0.00    -0.026 C  
ENDBRANCH  31  34
ENDBRANCH  23  24
ENDBRANCH  11  23
ENDBRANCH  10  11
ENDBRANCH   6  10
ENDBRANCH   5   6
ENDBRANCH   3   5
ENDBRANCH   2   3
TORSDOF 13
ENDMDL
MODEL      314
REMARK 921   NORMALIZED FREE ENERGY PREDICTED BY IDOCK:   -0.56 KCAL/MOL
REMARK 922        TOTAL FREE ENERGY PREDICTED BY IDOCK:   -3.45 KCAL/MOL
REMARK 923 INTER-LIGAND FREE ENERGY PREDICTED BY IDOCK:   -7.34 KCAL/MOL
REMARK 924 INTRA-LIGAND FREE ENERGY PREDICTED BY IDOCK:    3.89 KCAL/MOL
REMARK 927      BINDING AFFINITY PREDICTED BY RF-SCORE:    0.00 PKD
ROOT
HETATM    1  C   UNL     1      -8.570   8.063  65.739  1.00  0.00    -0.174 C  
HETATM    2  C   UNL     1      -8.375   9.160  64.707  1.00  0.00    -0.176 C  
ENDROOT
BRANCH   2   3
HETATM    3  C   UNL     1      -7.242  10.158  64.934  1.00  0.00    -0.131 C  
HETATM    4  O   UNL     1      -6.137  10.027  64.418  1.00  0.00    -0.113 OA 
BRANCH   3   5
HETATM    5  O   UNL     1      -7.631  11.237  65.656  1.00  0.00     0.123 OA 
BRANCH   5   6
HETATM    6  C   UNL     1      -7.725  11.100  67.110  1.00  0.00    -0.136 C  
HETATM    7  C   UNL     1      -6.378  10.458  67.606  1.00  0.00    -0.057 C  
HETATM    8  C   UNL     1      -6.320  10.224  69.115  1.00  0.00    -0.045 C  
HETATM    9  C   UNL     1      -5.142  11.252  67.178  1.00  0.00    -0.061 C  
BRANCH   6  10
HETATM   10  O   UNL     1      -8.880  10.356  67.604  1.00  0.00    -0.125 OA 
BRANCH  10  11
HETATM   11  P   UNL     1      -9.384  10.663  69.162  1.00  0.00    -0.049 P  
HETATM   12  O   UNL     1      -8.541   9.489  69.716  1.00  0.00    -0.155 OA 
BRANCH  11  13
HETATM   13  C   UNL     1     -11.029   9.603  69.352  1.00  0.00    -0.190 C  
BRANCH  13  14
HETATM   14  C   UNL     1     -11.545   9.584  70.795  1.00  0.00    -0.378 C  
BRANCH  14  15
HETATM   15  C   UNL     1     -11.799  10.962  71.382  1.00  0.00     0.063 C  
BRANCH  15  16
HETATM   16  C   UNL     1     -12.805  11.712  70.495  1.00  0.00    -0.044 C  
BRANCH  16  17
HETATM   17  C   UNL     1     -13.048  13.096  71.028  1.00  0.00    -0.121 A  
HETATM   18  C   UNL     1     -13.480  13.286  72.347  1.00  0.00    -0.670 A  
HETATM   19  C   UNL     1     -12.785  14.210  70.222  1.00  0.00    -0.287 A  
HETATM   20  C   UNL     1     -13.381  15.682  72.045  1.00  0.00    -0.543 A  
HETATM   21  C   UNL     1     -13.652  14.581  72.849  1.00  0.00    -0.439 A  
HETATM   22  C   UNL     1     -12.948  15.497  70.735  1.00  0.00    -0.490 A  
ENDBRANCH  16  17
ENDBRANCH  15  16
ENDBRANCH  14  15
ENDBRANCH  13  14
ENDBRANCH  11  13
BRANCH  11  23
HETATM   23  C   UNL     1     -10.381  12.051  68.506  1.00  0.00    -0.217 C  
BRANCH  23  24
HETATM   24  C   UNL     1      -9.554  13.158  67.827  1.00  0.00    -0.208 C  
HETATM   25  C   UNL     1      -9.233  14.975  66.130  1.00  0.00    -0.259 C  
HETATM   26  O   UNL     1      -8.359  13.294  68.117  1.00  0.00    -0.147 OA 
HETATM   27  N   UNL     1     -10.086  14.061  66.932  1.00  0.00    -0.255 N  
HETATM   28  C   UNL     1      -8.544  16.174  66.838  1.00  0.00    -0.221 C  
HETATM   29  O   UNL     1      -8.271  17.231  66.279  1.00  0.00    -0.311 OA 
HETATM   30  C   UNL     1     -11.469  14.472  66.794  1.00  0.00    -0.367 C  
HETATM   31  C   UNL     1     -11.600  15.050  65.374  1.00  0.00    -0.229 C  
HETATM   32  O   UNL     1      -8.135  15.930  68.101  1.00  0.00    -0.141 OA 
HETATM   33  C   UNL     1     -10.167  15.509  65.027  1.00  0.00    -0.251 C  
BRANCH  31  34
HETATM   34  C   UNL     1     -12.174  14.086  64.290  1.00  0.00    -0.453 C  
HETATM   35  C   UNL     1     -10.192  12.502  64.188  1.00  0.00    -0.376 C  
HETATM   36  C   UNL     1     -10.992  11.369  64.821  1.00  0.00    -0.303 C  
HETATM   37  C   UNL     1     -12.199  11.863  65.616  1.00  0.00     0.345 C  
HETATM   38  C   UNL     1     -11.107  13.429  63.396  1.00  0.00     0.464 C  
HETATM   39  C   UNL     1     -13.021  12.938  64.895  1.00  0.00    -0.214 C  
ENDBRANCH  31  34
ENDBRANCH  23  24
ENDBRANCH  11  23
ENDBRANCH  10  11
ENDBRANCH   6  10
ENDBRANCH   5   6
ENDBRANCH   3   5
ENDBRANCH   2   3
TORSDOF 13
ENDMDL
MODEL      315
REMARK 921   NORMALIZED FREE ENERGY PREDICTED BY IDOCK:   -0.43 KCAL/MOL
REMARK 922        TOTAL FREE ENERGY PREDICTED BY IDOCK:   -3.22 KCAL/MOL
REMARK 923 INTER-LIGAND FREE ENERGY PREDICTED BY IDOCK:   -4.92 KCAL/MOL
REMARK 924 INTRA-LIGAND FREE ENERGY PREDICTED BY IDOCK:    1.70 KCAL/MOL
REMARK 927      BINDING AFFINITY PREDICTED BY RF-SCORE:    0.00 PKD
ROOT
HETATM    1  C   UNL     1      -5.728  10.306  74.559  1.00  0.00     0.396 C  
HETATM    2  C   UNL     1      -6.228   8.907  74.250  1.00  0.00    -0.087 C  
ENDROOT
BRANCH   2   3
HETATM    3  C   UNL     1      -6.384   8.512  72.784  1.00  0.00    -0.087 C  
HETATM    4  O   UNL     1      -6.444   9.342  71.882  1.00  0.00    -0.264 OA 
BRANCH   3   5
HETATM    5  O   UNL     1      -6.329   7.171  72.594  1.00  0.00    -0.052 OA 
BRANCH   5   6
HETATM    6  C   UNL     1      -7.455   6.520  71.925  1.00  0.00    -0.092 C  
HETATM    7  C   UNL     1      -8.055   5.474  72.933  1.00  0.00    -0.108 C  
HETATM    8  C   UNL     1      -9.238   4.682  72.377  1.00  0.00    -0.149 C  
HETATM    9  C   UNL     1      -8.459   6.095  74.272  1.00  0.00    -0.116 C  
BRANCH   6  10
HETATM   10  O   UNL     1      -7.155   5.902  70.636  1.00  0.00    -0.069 OA 
BRANCH  10  11
HETATM   11  P   UNL     1      -8.370   5.032  69.899  1.00  0.00    -0.081 P  
HETATM   12  O   UNL     1      -7.701   3.688  70.277  1.00  0.00    -0.047 OA 
BRANCH  11  13
HETATM   13  C   UNL     1      -7.762   4.839  68.039  1.00  0.00    -0.082 C  
BRANCH  13  14
HETATM   14  C   UNL     1      -6.992   3.534  67.811  1.00  0.00    -0.051 C  
BRANCH  14  15
HETATM   15  C   UNL     1      -6.784   3.183  66.349  1.00  0.00    -0.048 C  
BRANCH  15  16
HETATM   16  C   UNL     1      -8.019   2.429  65.828  1.00  0.00    -0.082 C  
BRANCH  16  17
HETATM   17  C   UNL     1      -8.603   3.133  64.636  1.00  0.00    -0.099 A  
HETATM   18  C   UNL     1      -7.779   3.847  63.756  1.00  0.00    -0.082 A  
HETATM   19  C   UNL     1      -9.972   3.026  64.365  1.00  0.00    -0.091 A  
HETATM   20  C   UNL     1      -9.686   4.335  62.353  1.00  0.00    -0.135 A  
HETATM   21  C   UNL     1      -8.327   4.453  62.619  1.00  0.00    -0.089 A  
HETATM   22  C   UNL     1     -10.507   3.624  63.224  1.00  0.00    -0.237 A  
ENDBRANCH  16  17
ENDBRANCH  15  16
ENDBRANCH  14  15
ENDBRANCH  13  14
ENDBRANCH  11  13
BRANCH  11  23
HETATM   23  C   UNL     1      -9.160   6.621  69.452  1.00  0.00    -0.143 C  
BRANCH  23  24
HETATM   24  C   UNL     1      -8.238   7.596  68.698  1.00  0.00    -0.128 C  
HETATM   25  C   UNL     1      -7.655   9.858  67.788  1.00  0.00    -0.090 C  
HETATM   26  O   UNL     1      -7.247   7.161  68.097  1.00  0.00    -0.088 OA 
HETATM   27  N   UNL     1      -8.421   8.962  68.692  1.00  0.00    -0.127 N  
HETATM   28  C   UNL     1      -6.154  10.123  68.087  1.00  0.00    -0.048 C  
HETATM   29  O   UNL     1      -5.569  11.158  67.787  1.00  0.00    -0.043 OA 
HETATM   30  C   UNL     1      -9.128   9.773  69.663  1.00  0.00    -0.220 C  
HETATM   31  C   UNL     1      -9.484  11.085  68.942  1.00  0.00    -0.166 C  
HETATM   32  O   UNL     1      -5.481   9.067  68.593  1.00  0.00    -0.040 OA 
HETATM   33  C   UNL     1      -8.420  11.195  67.829  1.00  0.00    -0.124 C  
BRANCH  31  34
HETATM   34  C   UNL     1     -10.931  11.184  68.369  1.00  0.00    -0.277 C  
HETATM   35  C   UNL     1     -12.071  11.948  70.504  1.00  0.00    -0.422 C  
HETATM   36  C   UNL     1     -12.347  13.333  69.930  1.00  0.00    -0.228 C  
HETATM   37  C   UNL     1     -11.417  13.694  68.773  1.00  0.00    -0.346 C  
HETATM   38  C   UNL     1     -12.041  10.902  69.395  1.00  0.00    -0.362 C  
HETATM   39  C   UNL     1     -11.236  12.570  67.746  1.00  0.00    -0.318 C  
ENDBRANCH  31  34
ENDBRANCH  23  24
ENDBRANCH  11  23
ENDBRANCH  10  11
ENDBRANCH   6  10
ENDBRANCH   5   6
ENDBRANCH   3   5
ENDBRANCH   2   3
TORSDOF 13
ENDMDL
MODEL      316
REMARK 921   NORMALIZED FREE ENERGY PREDICTED BY IDOCK:   -0.42 KCAL/MOL
REMARK 922        TOTAL FREE ENERGY PREDICTED BY IDOCK:   -3.20 KCAL/MOL
REMARK 923 INTER-LIGAND FREE ENERGY PREDICTED BY IDOCK:   -6.31 KCAL/MOL
REMARK 924 INTRA-LIGAND FREE ENERGY PREDICTED BY IDOCK:    3.12 KCAL/MOL
REMARK 927      BINDING AFFINITY PREDICTED BY RF-SCORE:    0.00 PKD
ROOT
HETATM    1  C   UNL     1      -9.050   8.159  65.073  1.00  0.00     0.332 C  
HETATM    2  C   UNL     1      -8.763   9.373  64.208  1.00  0.00    -0.224 C  
ENDROOT
BRANCH   2   3
HETATM    3  C   UNL     1      -7.529  10.208  64.539  1.00  0.00    -0.127 C  
HETATM    4  O   UNL     1      -6.450  10.039  63.980  1.00  0.00    -0.122 OA 
BRANCH   3   5
HETATM    5  O   UNL     1      -7.793  11.209  65.414  1.00  0.00     0.091 OA 
BRANCH   5   6
HETATM    6  C   UNL     1      -7.730  10.913  66.845  1.00  0.00    -0.135 C  
HETATM    7  C   UNL     1      -6.376  10.157  67.106  1.00  0.00    -0.067 C  
HETATM    8  C   UNL     1      -6.161   9.751  68.563  1.00  0.00    -0.046 C  
HETATM    9  C   UNL     1      -5.152  10.937  66.622  1.00  0.00    -0.072 C  
BRANCH   6  10
HETATM   10  O   UNL     1      -8.864  10.172  67.390  1.00  0.00    -0.131 OA 
BRANCH  10  11
HETATM   11  P   UNL     1      -9.216  10.382  69.005  1.00  0.00    -0.167 P  
HETATM   12  O   UNL     1      -8.471   9.080  69.386  1.00  0.00    -0.112 OA 
BRANCH  11  13
HETATM   13  C   UNL     1     -10.950   9.486  69.239  1.00  0.00    -0.145 C  
BRANCH  13  14
HETATM   14  C   UNL     1     -11.379   9.422  70.709  1.00  0.00    -0.363 C  
BRANCH  14  15
HETATM   15  C   UNL     1     -10.722   8.304  71.499  1.00  0.00    -0.295 C  
BRANCH  15  16
HETATM   16  C   UNL     1     -10.743   7.015  70.662  1.00  0.00    -0.255 C  
BRANCH  16  17
HETATM   17  C   UNL     1      -9.943   5.936  71.336  1.00  0.00    -0.228 A  
HETATM   18  C   UNL     1      -8.639   6.189  71.783  1.00  0.00    -0.133 A  
HETATM   19  C   UNL     1     -10.522   4.684  71.575  1.00  0.00    -0.102 A  
HETATM   20  C   UNL     1      -8.509   3.955  72.698  1.00  0.00    -0.099 A  
HETATM   21  C   UNL     1      -7.923   5.193  72.458  1.00  0.00    -0.102 A  
HETATM   22  C   UNL     1      -9.805   3.702  72.258  1.00  0.00    -0.234 A  
ENDBRANCH  16  17
ENDBRANCH  15  16
ENDBRANCH  14  15
ENDBRANCH  13  14
ENDBRANCH  11  13
BRANCH  11  23
HETATM   23  C   UNL     1     -10.098  11.921  68.554  1.00  0.00    -0.206 C  
BRANCH  23  24
HETATM   24  C   UNL     1      -9.175  13.126  68.292  1.00  0.00    -0.194 C  
HETATM   25  C   UNL     1      -8.610  15.297  67.174  1.00  0.00    -0.211 C  
HETATM   26  O   UNL     1      -8.027  13.129  68.754  1.00  0.00    -0.074 OA 
HETATM   27  N   UNL     1      -9.572  14.249  67.601  1.00  0.00    -0.215 N  
HETATM   28  C   UNL     1      -8.006  16.244  68.247  1.00  0.00    -0.166 C  
HETATM   29  O   UNL     1      -7.648  17.395  68.018  1.00  0.00    -0.195 OA 
HETATM   30  C   UNL     1     -10.920  14.746  67.402  1.00  0.00    -0.313 C  
HETATM   31  C   UNL     1     -10.855  15.670  66.174  1.00  0.00    -0.264 C  
HETATM   32  O   UNL     1      -7.770  15.669  69.445  1.00  0.00    -0.211 OA 
HETATM   33  C   UNL     1      -9.383  16.136  66.139  1.00  0.00    -0.372 C  
BRANCH  31  34
HETATM   34  C   UNL     1     -11.292  15.041  64.815  1.00  0.00    -0.409 C  
HETATM   35  C   UNL     1     -10.224  12.763  65.159  1.00  0.00    -0.297 C  
HETATM   36  C   UNL     1     -11.582  12.080  65.276  1.00  0.00    -0.337 C  
HETATM   37  C   UNL     1     -12.702  13.043  65.665  1.00  0.00    -0.198 C  
HETATM   38  C   UNL     1     -10.315  13.991  64.259  1.00  0.00     0.277 C  
HETATM   39  C   UNL     1     -12.685  14.365  64.888  1.00  0.00    -0.191 C  
ENDBRANCH  31  34
ENDBRANCH  23  24
ENDBRANCH  11  23
ENDBRANCH  10  11
ENDBRANCH   6  10
ENDBRANCH   5   6
ENDBRANCH   3   5
ENDBRANCH   2   3
TORSDOF 13
ENDMDL
MODEL      317
REMARK 921   NORMALIZED FREE ENERGY PREDICTED BY IDOCK:   -0.38 KCAL/MOL
REMARK 922        TOTAL FREE ENERGY PREDICTED BY IDOCK:   -3.14 KCAL/MOL
REMARK 923 INTER-LIGAND FREE ENERGY PREDICTED BY IDOCK:   -4.76 KCAL/MOL
REMARK 924 INTRA-LIGAND FREE ENERGY PREDICTED BY IDOCK:    1.63 KCAL/MOL
REMARK 927      BINDING AFFINITY PREDICTED BY RF-SCORE:    0.00 PKD
ROOT
HETATM    1  C   UNL     1      -8.558  15.788  68.223  1.00  0.00    -0.170 C  
HETATM    2  C   UNL     1      -8.617  14.304  68.537  1.00  0.00    -0.175 C  
ENDROOT
BRANCH   2   3
HETATM    3  C   UNL     1      -9.964  13.599  68.401  1.00  0.00    -0.235 C  
HETATM    4  O   UNL     1     -10.989  14.193  68.086  1.00  0.00    -0.239 OA 
BRANCH   3   5
HETATM    5  O   UNL     1      -9.868  12.255  68.550  1.00  0.00    -0.207 OA 
BRANCH   5   6
HETATM    6  C   UNL     1     -10.313  11.401  67.448  1.00  0.00    -0.202 C  
HETATM    7  C   UNL     1     -10.580  12.336  66.213  1.00  0.00    -0.282 C  
HETATM    8  C   UNL     1     -11.077  11.599  64.971  1.00  0.00    -0.312 C  
HETATM    9  C   UNL     1      -9.367  13.187  65.832  1.00  0.00     0.062 C  
BRANCH   6  10
HETATM   10  O   UNL     1     -11.467  10.552  67.730  1.00  0.00    -0.443 OA 
BRANCH  10  11
HETATM   11  P   UNL     1     -11.414   9.612  69.104  1.00  0.00     0.424 P  
HETATM   12  O   UNL     1     -11.703  10.834  70.009  1.00  0.00    -0.277 OA 
BRANCH  11  13
HETATM   13  C   UNL     1      -9.521   9.639  69.632  1.00  0.00    -0.210 C  
BRANCH  13  14
HETATM   14  C   UNL     1      -9.263   8.845  70.917  1.00  0.00    -0.286 C  
BRANCH  14  15
HETATM   15  C   UNL     1      -7.822   8.882  71.391  1.00  0.00    -0.141 C  
BRANCH  15  16
HETATM   16  C   UNL     1      -7.795   8.889  72.928  1.00  0.00     0.372 C  
BRANCH  16  17
HETATM   17  C   UNL     1      -7.801   7.484  73.463  1.00  0.00    -0.147 A  
HETATM   18  C   UNL     1      -8.941   6.966  74.090  1.00  0.00    -0.220 A  
HETATM   19  C   UNL     1      -6.681   6.664  73.281  1.00  0.00    -0.075 A  
HETATM   20  C   UNL     1      -7.840   4.828  74.343  1.00  0.00    -0.096 A  
HETATM   21  C   UNL     1      -8.954   5.639  74.535  1.00  0.00    -0.122 A  
HETATM   22  C   UNL     1      -6.707   5.340  73.718  1.00  0.00    -0.075 A  
ENDBRANCH  16  17
ENDBRANCH  15  16
ENDBRANCH  14  15
ENDBRANCH  13  14
ENDBRANCH  11  13
BRANCH  11  23
HETATM   23  C   UNL     1     -11.072   8.167  68.034  1.00  0.00     0.383 C  
BRANCH  23  24
HETATM   24  C   UNL     1     -10.941   6.834  68.793  1.00  0.00    -0.209 C  
HETATM   25  C   UNL     1      -9.817   4.646  69.274  1.00  0.00    -0.190 C  
HETATM   26  O   UNL     1     -11.844   6.475  69.560  1.00  0.00    -0.266 OA 
HETATM   27  N   UNL     1      -9.832   6.020  68.710  1.00  0.00    -0.134 N  
HETATM   28  C   UNL     1      -9.757   4.467  70.817  1.00  0.00    -0.197 C  
HETATM   29  O   UNL     1      -9.243   3.503  71.373  1.00  0.00    -0.106 OA 
HETATM   30  C   UNL     1      -8.480   6.387  68.339  1.00  0.00    -0.116 C  
HETATM   31  C   UNL     1      -7.791   5.082  67.900  1.00  0.00    -0.090 C  
HETATM   32  O   UNL     1     -10.437   5.396  71.523  1.00  0.00    -0.217 OA 
HETATM   33  C   UNL     1      -8.579   3.981  68.642  1.00  0.00    -0.117 C  
BRANCH  31  34
HETATM   34  C   UNL     1      -7.737   4.817  66.364  1.00  0.00    -0.091 C  
HETATM   35  C   UNL     1      -7.818   7.241  65.616  1.00  0.00    -0.112 C  
HETATM   36  C   UNL     1      -6.379   7.194  65.112  1.00  0.00    -0.037 C  
HETATM   37  C   UNL     1      -5.559   6.077  65.755  1.00  0.00    -0.016 C  
HETATM   38  C   UNL     1      -8.469   5.867  65.512  1.00  0.00    -0.154 C  
HETATM   39  C   UNL     1      -6.288   4.729  65.821  1.00  0.00    -0.039 C  
ENDBRANCH  31  34
ENDBRANCH  23  24
ENDBRANCH  11  23
ENDBRANCH  10  11
ENDBRANCH   6  10
ENDBRANCH   5   6
ENDBRANCH   3   5
ENDBRANCH   2   3
TORSDOF 13
ENDMDL
MODEL      318
REMARK 921   NORMALIZED FREE ENERGY PREDICTED BY IDOCK:   -0.34 KCAL/MOL
REMARK 922        TOTAL FREE ENERGY PREDICTED BY IDOCK:   -3.05 KCAL/MOL
REMARK 923 INTER-LIGAND FREE ENERGY PREDICTED BY IDOCK:   -6.90 KCAL/MOL
REMARK 924 INTRA-LIGAND FREE ENERGY PREDICTED BY IDOCK:    3.85 KCAL/MOL
REMARK 927      BINDING AFFINITY PREDICTED BY RF-SCORE:    0.00 PKD
ROOT
HETATM    1  C   UNL     1     -10.070  17.110  69.802  1.00  0.00     0.234 C  
HETATM    2  C   UNL     1      -9.827  16.091  68.704  1.00  0.00    -0.218 C  
ENDROOT
BRANCH   2   3
HETATM    3  C   UNL     1      -8.391  15.882  68.230  1.00  0.00    -0.165 C  
HETATM    4  O   UNL     1      -7.631  16.816  68.001  1.00  0.00    -0.161 OA 
BRANCH   3   5
HETATM    5  O   UNL     1      -8.033  14.574  68.208  1.00  0.00    -0.122 OA 
BRANCH   5   6
HETATM    6  C   UNL     1      -8.577  13.725  67.149  1.00  0.00    -0.198 C  
HETATM    7  C   UNL     1      -9.657  14.570  66.381  1.00  0.00    -0.324 C  
HETATM    8  C   UNL     1     -10.346  13.814  65.245  1.00  0.00    -0.378 C  
HETATM    9  C   UNL     1      -9.109  15.891  65.837  1.00  0.00    -0.304 C  
BRANCH   6  10
HETATM   10  O   UNL     1      -9.119  12.440  67.583  1.00  0.00    -0.172 OA 
BRANCH  10  11
HETATM   11  P   UNL     1      -8.156  11.094  67.390  1.00  0.00    -0.143 P  
HETATM   12  O   UNL     1      -6.869  11.924  67.616  1.00  0.00    -0.091 OA 
BRANCH  11  13
HETATM   13  C   UNL     1      -7.803  11.028  65.457  1.00  0.00     0.121 C  
BRANCH  13  14
HETATM   14  C   UNL     1      -8.299   9.726  64.819  1.00  0.00    -0.159 C  
BRANCH  14  15
HETATM   15  C   UNL     1      -9.123   9.926  63.559  1.00  0.00    -0.289 C  
BRANCH  15  16
HETATM   16  C   UNL     1      -8.429   9.220  62.383  1.00  0.00    -0.207 C  
BRANCH  16  17
HETATM   17  C   UNL     1      -7.731   7.975  62.853  1.00  0.00    -0.135 A  
HETATM   18  C   UNL     1      -8.285   6.712  62.605  1.00  0.00    -0.007 A  
HETATM   19  C   UNL     1      -6.489   8.069  63.491  1.00  0.00    -0.071 A  
HETATM   20  C   UNL     1      -6.363   5.659  63.625  1.00  0.00    -0.025 A  
HETATM   21  C   UNL     1      -7.600   5.556  62.999  1.00  0.00    -0.071 A  
HETATM   22  C   UNL     1      -5.809   6.912  63.870  1.00  0.00    -0.032 A  
ENDBRANCH  16  17
ENDBRANCH  15  16
ENDBRANCH  14  15
ENDBRANCH  13  14
ENDBRANCH  11  13
BRANCH  11  23
HETATM   23  C   UNL     1      -9.678  10.113  67.123  1.00  0.00    -0.173 C  
BRANCH  23  24
HETATM   24  C   UNL     1     -10.838  10.474  68.069  1.00  0.00    -0.263 C  
HETATM   25  C   UNL     1     -12.040  10.356  70.266  1.00  0.00    -0.286 C  
HETATM   26  O   UNL     1     -11.819  11.086  67.629  1.00  0.00    -0.599 OA 
HETATM   27  N   UNL     1     -10.830  10.197  69.419  1.00  0.00    -0.227 N  
HETATM   28  C   UNL     1     -12.523  11.789  70.625  1.00  0.00    -0.274 C  
HETATM   29  O   UNL     1     -13.126  12.068  71.655  1.00  0.00    -0.427 OA 
HETATM   30  C   UNL     1      -9.684   9.979  70.279  1.00  0.00    -0.050 C  
HETATM   31  C   UNL     1     -10.213   9.213  71.505  1.00  0.00    -0.403 C  
HETATM   32  O   UNL     1     -12.350  12.708  69.650  1.00  0.00    -0.143 OA 
HETATM   33  C   UNL     1     -11.707   9.597  71.565  1.00  0.00    -0.472 C  
BRANCH  31  34
HETATM   34  C   UNL     1     -10.016   7.666  71.485  1.00  0.00    -0.200 C  
HETATM   35  C   UNL     1     -12.459   7.034  71.206  1.00  0.00    -0.430 C  
HETATM   36  C   UNL     1     -12.224   6.523  69.789  1.00  0.00     0.569 C  
HETATM   37  C   UNL     1     -10.969   7.108  69.144  1.00  0.00    -0.142 C  
HETATM   38  C   UNL     1     -11.202   6.868  72.053  1.00  0.00    -0.292 C  
HETATM   39  C   UNL     1      -9.742   7.113  70.064  1.00  0.00    -0.171 C  
ENDBRANCH  31  34
ENDBRANCH  23  24
ENDBRANCH  11  23
ENDBRANCH  10  11
ENDBRANCH   6  10
ENDBRANCH   5   6
ENDBRANCH   3   5
ENDBRANCH   2   3
TORSDOF 13
ENDMDL
MODEL      319
REMARK 921   NORMALIZED FREE ENERGY PREDICTED BY IDOCK:   -0.25 KCAL/MOL
REMARK 922        TOTAL FREE ENERGY PREDICTED BY IDOCK:   -2.91 KCAL/MOL
REMARK 923 INTER-LIGAND FREE ENERGY PREDICTED BY IDOCK:   -3.90 KCAL/MOL
REMARK 924 INTRA-LIGAND FREE ENERGY PREDICTED BY IDOCK:    0.99 KCAL/MOL
REMARK 927      BINDING AFFINITY PREDICTED BY RF-SCORE:    0.00 PKD
ROOT
HETATM    1  C   UNL     1      -9.520  16.885  67.993  1.00  0.00    -0.243 C  
HETATM    2  C   UNL     1      -8.754  15.584  68.150  1.00  0.00    -0.164 C  
ENDROOT
BRANCH   2   3
HETATM    3  C   UNL     1      -9.063  14.718  69.369  1.00  0.00     0.046 C  
HETATM    4  O   UNL     1      -9.442  15.192  70.434  1.00  0.00     0.248 OA 
BRANCH   3   5
HETATM    5  O   UNL     1      -8.982  13.391  69.102  1.00  0.00     0.324 OA 
BRANCH   5   6
HETATM    6  C   UNL     1      -9.785  12.855  68.003  1.00  0.00    -0.224 C  
HETATM    7  C   UNL     1     -11.278  12.809  68.494  1.00  0.00    -0.314 C  
HETATM    8  C   UNL     1     -12.255  12.248  67.463  1.00  0.00     0.261 C  
HETATM    9  C   UNL     1     -11.792  14.167  68.977  1.00  0.00    -0.384 C  
BRANCH   6  10
HETATM   10  O   UNL     1      -9.359  11.560  67.480  1.00  0.00    -0.163 OA 
BRANCH  10  11
HETATM   11  P   UNL     1      -7.752  11.383  67.078  1.00  0.00    -0.156 P  
HETATM   12  O   UNL     1      -8.080  11.388  65.565  1.00  0.00     0.143 OA 
BRANCH  11  13
HETATM   13  C   UNL     1      -7.478   9.437  67.037  1.00  0.00    -0.091 C  
BRANCH  13  14
HETATM   14  C   UNL     1      -8.434   8.735  66.067  1.00  0.00    -0.144 C  
BRANCH  14  15
HETATM   15  C   UNL     1      -7.928   7.398  65.556  1.00  0.00    -0.122 C  
BRANCH  15  16
HETATM   16  C   UNL     1      -8.949   6.303  65.906  1.00  0.00    -0.122 C  
BRANCH  16  17
HETATM   17  C   UNL     1      -8.349   5.307  66.857  1.00  0.00    -0.107 A  
HETATM   18  C   UNL     1      -8.857   5.165  68.155  1.00  0.00    -0.107 A  
HETATM   19  C   UNL     1      -7.313   4.469  66.427  1.00  0.00    -0.081 A  
HETATM   20  C   UNL     1      -7.302   3.362  68.576  1.00  0.00    -0.050 A  
HETATM   21  C   UNL     1      -8.325   4.196  69.014  1.00  0.00    -0.089 A  
HETATM   22  C   UNL     1      -6.797   3.499  67.286  1.00  0.00    -0.050 A  
ENDBRANCH  16  17
ENDBRANCH  15  16
ENDBRANCH  14  15
ENDBRANCH  13  14
ENDBRANCH  11  13
BRANCH  11  23
HETATM   23  C   UNL     1      -7.363  11.378  68.866  1.00  0.00    -0.114 C  
BRANCH  23  24
HETATM   24  C   UNL     1      -6.674  10.092  69.360  1.00  0.00    -0.065 C  
HETATM   25  C   UNL     1      -6.678   7.861  70.502  1.00  0.00    -0.038 C  
HETATM   26  O   UNL     1      -5.442   9.995  69.297  1.00  0.00    -0.035 OA 
HETATM   27  N   UNL     1      -7.363   8.996  69.833  1.00  0.00    -0.055 N  
HETATM   28  C   UNL     1      -5.831   6.882  69.642  1.00  0.00    -0.019 C  
HETATM   29  O   UNL     1      -5.659   5.700  69.923  1.00  0.00    -0.007 OA 
HETATM   30  C   UNL     1      -8.735   8.618  69.559  1.00  0.00    -0.139 C  
HETATM   31  C   UNL     1      -9.149   7.670  70.699  1.00  0.00    -0.158 C  
HETATM   32  O   UNL     1      -5.172   7.454  68.613  1.00  0.00    -0.019 OA 
HETATM   33  C   UNL     1      -7.811   7.075  71.190  1.00  0.00    -0.099 C  
BRANCH  31  34
HETATM   34  C   UNL     1      -9.957   8.313  71.869  1.00  0.00    -0.299 C  
HETATM   35  C   UNL     1     -11.657   6.448  72.148  1.00  0.00    -0.357 C  
HETATM   36  C   UNL     1     -11.083   6.049  73.503  1.00  0.00    -0.031 C  
HETATM   37  C   UNL     1      -9.639   6.507  73.697  1.00  0.00    -0.193 C  
HETATM   38  C   UNL     1     -11.448   7.936  71.892  1.00  0.00    -0.328 C  
HETATM   39  C   UNL     1      -9.382   7.956  73.263  1.00  0.00    -0.351 C  
ENDBRANCH  31  34
ENDBRANCH  23  24
ENDBRANCH  11  23
ENDBRANCH  10  11
ENDBRANCH   6  10
ENDBRANCH   5   6
ENDBRANCH   3   5
ENDBRANCH   2   3
TORSDOF 13
ENDMDL
MODEL      320
REMARK 921   NORMALIZED FREE ENERGY PREDICTED BY IDOCK:   -0.18 KCAL/MOL
REMARK 922        TOTAL FREE ENERGY PREDICTED BY IDOCK:   -2.79 KCAL/MOL
REMARK 923 INTER-LIGAND FREE ENERGY PREDICTED BY IDOCK:   -4.48 KCAL/MOL
REMARK 924 INTRA-LIGAND FREE ENERGY PREDICTED BY IDOCK:    1.69 KCAL/MOL
REMARK 927      BINDING AFFINITY PREDICTED BY RF-SCORE:    0.00 PKD
ROOT
HETATM    1  C   UNL     1      -6.739   6.282  66.566  1.00  0.00    -0.060 C  
HETATM    2  C   UNL     1      -6.685   7.778  66.317  1.00  0.00    -0.054 C  
ENDROOT
BRANCH   2   3
HETATM    3  C   UNL     1      -7.639   8.363  65.279  1.00  0.00    -0.090 C  
HETATM    4  O   UNL     1      -8.216   7.668  64.449  1.00  0.00    -0.122 OA 
BRANCH   3   5
HETATM    5  O   UNL     1      -7.857   9.690  65.457  1.00  0.00    -0.106 OA 
BRANCH   5   6
HETATM    6  C   UNL     1      -8.944  10.101  66.345  1.00  0.00    -0.144 C  
HETATM    7  C   UNL     1      -9.888  11.049  65.519  1.00  0.00    -0.292 C  
HETATM    8  C   UNL     1     -11.075  11.591  66.313  1.00  0.00    -0.321 C  
HETATM    9  C   UNL     1     -10.405  10.406  64.230  1.00  0.00    -0.057 C  
BRANCH   6  10
HETATM   10  O   UNL     1      -8.537  10.723  67.601  1.00  0.00    -0.122 OA 
BRANCH  10  11
HETATM   11  P   UNL     1      -6.969  11.277  67.713  1.00  0.00    -0.084 P  
HETATM   12  O   UNL     1      -6.433   9.850  67.982  1.00  0.00    -0.055 OA 
BRANCH  11  13
HETATM   13  C   UNL     1      -6.757  11.741  69.611  1.00  0.00    -0.034 C  
BRANCH  13  14
HETATM   14  C   UNL     1      -6.599  10.501  70.499  1.00  0.00    -0.038 C  
BRANCH  14  15
HETATM   15  C   UNL     1      -7.887  10.043  71.160  1.00  0.00     1.254 C  
BRANCH  15  16
HETATM   16  C   UNL     1      -8.092   8.545  70.883  1.00  0.00    -0.140 C  
BRANCH  16  17
HETATM   17  C   UNL     1      -7.933   7.748  72.147  1.00  0.00    -0.130 A  
HETATM   18  C   UNL     1      -8.943   6.876  72.572  1.00  0.00    -0.141 A  
HETATM   19  C   UNL     1      -6.741   7.829  72.877  1.00  0.00    -0.078 A  
HETATM   20  C   UNL     1      -7.571   6.180  74.437  1.00  0.00    -0.092 A  
HETATM   21  C   UNL     1      -8.761   6.099  73.722  1.00  0.00    -0.123 A  
HETATM   22  C   UNL     1      -6.563   7.043  74.015  1.00  0.00    -0.077 A  
ENDBRANCH  16  17
ENDBRANCH  15  16
ENDBRANCH  14  15
ENDBRANCH  13  14
ENDBRANCH  11  13
BRANCH  11  23
HETATM   23  C   UNL     1      -7.603  12.964  67.395  1.00  0.00    -0.148 C  
BRANCH  23  24
HETATM   24  C   UNL     1      -8.835  13.346  68.236  1.00  0.00    -0.172 C  
HETATM   25  C   UNL     1     -10.319  15.008  69.384  1.00  0.00    -0.235 C  
HETATM   26  O   UNL     1      -9.515  12.457  68.764  1.00  0.00    -0.064 OA 
HETATM   27  N   UNL     1      -9.268  14.644  68.401  1.00  0.00    -0.191 N  
HETATM   28  C   UNL     1     -11.794  14.618  69.087  1.00  0.00    -0.312 C  
HETATM   29  O   UNL     1     -12.763  15.252  69.491  1.00  0.00    -0.050 OA 
HETATM   30  C   UNL     1      -9.018  15.784  67.541  1.00  0.00    -0.194 C  
HETATM   31  C   UNL     1      -9.251  17.031  68.413  1.00  0.00    -0.259 C  
HETATM   32  O   UNL     1     -11.953  13.437  68.452  1.00  0.00    -0.348 OA 
HETATM   33  C   UNL     1     -10.219  16.540  69.511  1.00  0.00    -0.217 C  
BRANCH  31  34
HETATM   34  C   UNL     1      -7.976  17.691  69.024  1.00  0.00    -0.081 C  
HETATM   35  C   UNL     1      -6.262  16.321  67.745  1.00  0.00    -0.155 C  
HETATM   36  C   UNL     1      -5.819  17.531  66.929  1.00  0.00    -0.194 C  
HETATM   37  C   UNL     1      -6.873  18.635  66.880  1.00  0.00    -0.211 C  
HETATM   38  C   UNL     1      -6.760  16.753  69.120  1.00  0.00    -0.223 C  
HETATM   39  C   UNL     1      -7.514  18.945  68.238  1.00  0.00    -0.315 C  
ENDBRANCH  31  34
ENDBRANCH  23  24
ENDBRANCH  11  23
ENDBRANCH  10  11
ENDBRANCH   6  10
ENDBRANCH   5   6
ENDBRANCH   3   5
ENDBRANCH   2   3
TORSDOF 13
ENDMDL
MODEL      321
REMARK 921   NORMALIZED FREE ENERGY PREDICTED BY IDOCK:   -0.14 KCAL/MOL
REMARK 922        TOTAL FREE ENERGY PREDICTED BY IDOCK:   -2.71 KCAL/MOL
REMARK 923 INTER-LIGAND FREE ENERGY PREDICTED BY IDOCK:   -2.60 KCAL/MOL
REMARK 924 INTRA-LIGAND FREE ENERGY PREDICTED BY IDOCK:   -0.11 KCAL/MOL
REMARK 927      BINDING AFFINITY PREDICTED BY RF-SCORE:    0.00 PKD
ROOT
HETATM    1  C   UNL     1      -6.888  15.020  70.927  1.00  0.00     0.680 C  
HETATM    2  C   UNL     1      -7.840  15.264  69.771  1.00  0.00    -0.057 C  
ENDROOT
BRANCH   2   3
HETATM    3  C   UNL     1      -9.338  15.178  70.049  1.00  0.00     0.237 C  
HETATM    4  O   UNL     1      -9.806  15.299  71.177  1.00  0.00     0.817 OA 
BRANCH   3   5
HETATM    5  O   UNL     1     -10.077  15.073  68.917  1.00  0.00    -0.220 OA 
BRANCH   5   6
HETATM    6  C   UNL     1      -9.417  14.599  67.701  1.00  0.00    -0.205 C  
HETATM    7  C   UNL     1     -10.029  15.401  66.495  1.00  0.00    -0.282 C  
HETATM    8  C   UNL     1      -9.459  15.007  65.133  1.00  0.00     0.387 C  
HETATM    9  C   UNL     1      -9.913  16.917  66.662  1.00  0.00    -0.302 C  
BRANCH   6  10
HETATM   10  O   UNL     1      -9.479  13.159  67.466  1.00  0.00    -0.199 OA 
BRANCH  10  11
HETATM   11  P   UNL     1      -9.696  12.172  68.791  1.00  0.00     0.212 P  
HETATM   12  O   UNL     1      -8.245  12.418  69.271  1.00  0.00     0.404 OA 
BRANCH  11  13
HETATM   13  C   UNL     1      -9.204  10.383  68.143  1.00  0.00    -0.145 C  
BRANCH  13  14
HETATM   14  C   UNL     1      -7.712  10.087  68.327  1.00  0.00    -0.084 C  
BRANCH  14  15
HETATM   15  C   UNL     1      -7.401   9.169  69.496  1.00  0.00    -0.068 C  
BRANCH  15  16
HETATM   16  C   UNL     1      -8.334   7.947  69.441  1.00  0.00    -0.132 C  
BRANCH  16  17
HETATM   17  C   UNL     1      -9.087   7.801  70.733  1.00  0.00    -0.149 A  
HETATM   18  C   UNL     1     -10.282   8.501  70.944  1.00  0.00    -0.246 A  
HETATM   19  C   UNL     1      -8.628   6.913  71.712  1.00  0.00    -0.119 A  
HETATM   20  C   UNL     1     -10.544   7.426  73.093  1.00  0.00    -0.424 A  
HETATM   21  C   UNL     1     -11.004   8.316  72.129  1.00  0.00    -0.396 A  
HETATM   22  C   UNL     1      -9.359   6.726  72.885  1.00  0.00    -0.151 A  
ENDBRANCH  16  17
ENDBRANCH  15  16
ENDBRANCH  14  15
ENDBRANCH  13  14
ENDBRANCH  11  13
BRANCH  11  23
HETATM   23  C   UNL     1     -11.411  11.882  68.222  1.00  0.00    -0.311 C  
BRANCH  23  24
HETATM   24  C   UNL     1     -11.657  12.236  66.744  1.00  0.00    -0.369 C  
HETATM   25  C   UNL     1     -11.221  11.974  64.289  1.00  0.00    -0.357 C  
HETATM   26  O   UNL     1     -12.375  13.202  66.457  1.00  0.00    -0.348 OA 
HETATM   27  N   UNL     1     -11.156  11.497  65.694  1.00  0.00    -0.246 N  
HETATM   28  C   UNL     1     -12.592  11.973  63.558  1.00  0.00    -0.507 C  
HETATM   29  O   UNL     1     -12.719  11.838  62.345  1.00  0.00     0.912 OA 
HETATM   30  C   UNL     1     -10.749  10.106  65.696  1.00  0.00     0.242 C  
HETATM   31  C   UNL     1      -9.810   9.938  64.487  1.00  0.00    -0.129 C  
HETATM   32  O   UNL     1     -13.654  12.267  64.339  1.00  0.00    -0.479 OA 
HETATM   33  C   UNL     1     -10.241  11.065  63.524  1.00  0.00    -0.424 C  
BRANCH  31  34
HETATM   34  C   UNL     1      -8.281   9.993  64.792  1.00  0.00    -0.155 C  
HETATM   35  C   UNL     1      -7.606   7.972  63.412  1.00  0.00    -0.130 C  
HETATM   36  C   UNL     1      -6.869   8.838  62.397  1.00  0.00    -0.094 C  
HETATM   37  C   UNL     1      -7.344  10.290  62.397  1.00  0.00    -0.153 C  
HETATM   38  C   UNL     1      -7.584   8.622  64.791  1.00  0.00    -0.102 C  
HETATM   39  C   UNL     1      -7.504  10.893  63.798  1.00  0.00     0.491 C  
ENDBRANCH  31  34
ENDBRANCH  23  24
ENDBRANCH  11  23
ENDBRANCH  10  11
ENDBRANCH   6  10
ENDBRANCH   5   6
ENDBRANCH   3   5
ENDBRANCH   2   3
TORSDOF 13
ENDMDL
MODEL      322
REMARK 921   NORMALIZED FREE ENERGY PREDICTED BY IDOCK:   -0.04 KCAL/MOL
REMARK 922        TOTAL FREE ENERGY PREDICTED BY IDOCK:   -2.53 KCAL/MOL
REMARK 923 INTER-LIGAND FREE ENERGY PREDICTED BY IDOCK:   -4.99 KCAL/MOL
REMARK 924 INTRA-LIGAND FREE ENERGY PREDICTED BY IDOCK:    2.46 KCAL/MOL
REMARK 927      BINDING AFFINITY PREDICTED BY RF-SCORE:    0.00 PKD
ROOT
HETATM    1  C   UNL     1      -8.637   8.668  63.158  1.00  0.00    -0.035 C  
HETATM    2  C   UNL     1      -7.346   9.313  63.629  1.00  0.00    -0.101 C  
ENDROOT
BRANCH   2   3
HETATM    3  C   UNL     1      -6.436   8.501  64.546  1.00  0.00    -0.066 C  
HETATM    4  O   UNL     1      -5.322   8.890  64.880  1.00  0.00    -0.038 OA 
BRANCH   3   5
HETATM    5  O   UNL     1      -7.038   7.386  65.027  1.00  0.00    -0.060 OA 
BRANCH   5   6
HETATM    6  C   UNL     1      -7.727   7.470  66.314  1.00  0.00    -0.089 C  
HETATM    7  C   UNL     1      -6.783   8.252  67.298  1.00  0.00    -0.063 C  
HETATM    8  C   UNL     1      -7.348   8.411  68.709  1.00  0.00    -0.087 C  
HETATM    9  C   UNL     1      -6.374   9.629  66.770  1.00  0.00    -0.066 C  
BRANCH   6  10
HETATM   10  O   UNL     1      -8.154   6.198  66.889  1.00  0.00    -0.107 OA 
BRANCH  10  11
HETATM   11  P   UNL     1      -9.694   5.671  66.533  1.00  0.00    -0.153 P  
HETATM   12  O   UNL     1      -9.497   5.964  65.026  1.00  0.00     0.351 OA 
BRANCH  11  13
HETATM   13  C   UNL     1     -10.809   7.278  66.725  1.00  0.00    -0.056 C  
BRANCH  13  14
HETATM   14  C   UNL     1     -10.171   8.322  67.648  1.00  0.00    -0.294 C  
BRANCH  14  15
HETATM   15  C   UNL     1     -10.216   9.740  67.106  1.00  0.00    -0.288 C  
BRANCH  15  16
HETATM   16  C   UNL     1     -11.154  10.586  67.981  1.00  0.00    -0.361 C  
BRANCH  16  17
HETATM   17  C   UNL     1     -11.057  12.039  67.608  1.00  0.00    -0.319 A  
HETATM   18  C   UNL     1      -9.921  12.787  67.945  1.00  0.00    -0.229 A  
HETATM   19  C   UNL     1     -12.080  12.638  66.863  1.00  0.00    -0.213 A  
HETATM   20  C   UNL     1     -10.835  14.709  66.799  1.00  0.00    -0.312 A  
HETATM   21  C   UNL     1      -9.818  14.124  67.545  1.00  0.00    -0.235 A  
HETATM   22  C   UNL     1     -11.963  13.967  66.459  1.00  0.00    -0.470 A  
ENDBRANCH  16  17
ENDBRANCH  15  16
ENDBRANCH  14  15
ENDBRANCH  13  14
ENDBRANCH  11  13
BRANCH  11  23
HETATM   23  C   UNL     1      -9.927   5.324  68.315  1.00  0.00    -0.156 C  
BRANCH  23  24
HETATM   24  C   UNL     1      -8.922   4.313  68.899  1.00  0.00    -0.109 C  
HETATM   25  C   UNL     1      -7.214   3.593  70.586  1.00  0.00    -0.037 C  
HETATM   26  O   UNL     1      -8.647   3.287  68.265  1.00  0.00    -0.085 OA 
HETATM   27  N   UNL     1      -8.334   4.458  70.137  1.00  0.00    -0.065 N  
HETATM   28  C   UNL     1      -7.510   2.116  70.966  1.00  0.00    -0.033 C  
HETATM   29  O   UNL     1      -6.861   1.480  71.790  1.00  0.00    -0.018 OA 
HETATM   30  C   UNL     1      -8.815   5.223  71.270  1.00  0.00    -0.136 C  
HETATM   31  C   UNL     1      -7.587   5.479  72.161  1.00  0.00    -0.100 C  
HETATM   32  O   UNL     1      -8.466   1.518  70.223  1.00  0.00    -0.044 OA 
HETATM   33  C   UNL     1      -6.628   4.321  71.811  1.00  0.00    -0.026 C  
BRANCH  31  34
HETATM   34  C   UNL     1      -6.896   6.868  71.998  1.00  0.00    -0.058 C  
HETATM   35  C   UNL     1      -8.456   8.183  73.509  1.00  0.00    -0.310 C  
HETATM   36  C   UNL     1      -7.365   8.386  74.555  1.00  0.00    -0.255 C  
HETATM   37  C   UNL     1      -6.244   7.353  74.456  1.00  0.00    -0.082 C  
HETATM   38  C   UNL     1      -7.850   8.069  72.115  1.00  0.00    -0.144 C  
HETATM   39  C   UNL     1      -5.758   7.097  73.024  1.00  0.00    -0.045 C  
ENDBRANCH  31  34
ENDBRANCH  23  24
ENDBRANCH  11  23
ENDBRANCH  10  11
ENDBRANCH   6  10
ENDBRANCH   5   6
ENDBRANCH   3   5
ENDBRANCH   2   3
TORSDOF 13
ENDMDL
MODEL      323
REMARK 921   NORMALIZED FREE ENERGY PREDICTED BY IDOCK:    0.01 KCAL/MOL
REMARK 922        TOTAL FREE ENERGY PREDICTED BY IDOCK:   -2.45 KCAL/MOL
REMARK 923 INTER-LIGAND FREE ENERGY PREDICTED BY IDOCK:   -5.35 KCAL/MOL
REMARK 924 INTRA-LIGAND FREE ENERGY PREDICTED BY IDOCK:    2.90 KCAL/MOL
REMARK 927      BINDING AFFINITY PREDICTED BY RF-SCORE:    0.00 PKD
ROOT
HETATM    1  C   UNL     1     -11.582  10.157  67.527  1.00  0.00     0.681 C  
HETATM    2  C   UNL     1     -11.263  11.632  67.368  1.00  0.00    -0.358 C  
ENDROOT
BRANCH   2   3
HETATM    3  C   UNL     1      -9.879  12.112  67.797  1.00  0.00    -0.199 C  
HETATM    4  O   UNL     1      -9.715  12.919  68.706  1.00  0.00    -0.088 OA 
BRANCH   3   5
HETATM    5  O   UNL     1      -8.877  11.468  67.150  1.00  0.00    -0.158 OA 
BRANCH   5   6
HETATM    6  C   UNL     1      -7.569  11.390  67.800  1.00  0.00    -0.105 C  
HETATM    7  C   UNL     1      -6.714  12.601  67.274  1.00  0.00    -0.105 C  
HETATM    8  C   UNL     1      -5.297  12.655  67.843  1.00  0.00    -0.098 C  
HETATM    9  C   UNL     1      -7.391  13.954  67.497  1.00  0.00    -0.181 C  
BRANCH   6  10
HETATM   10  O   UNL     1      -6.854  10.127  67.638  1.00  0.00    -0.074 OA 
BRANCH  10  11
HETATM   11  P   UNL     1      -6.581   9.591  66.084  1.00  0.00    -0.074 P  
HETATM   12  O   UNL     1      -5.137  10.148  66.095  1.00  0.00    -0.034 OA 
BRANCH  11  13
HETATM   13  C   UNL     1      -7.174  11.083  64.949  1.00  0.00     0.575 C  
BRANCH  13  14
HETATM   14  C   UNL     1      -8.234  10.653  63.930  1.00  0.00     0.010 C  
BRANCH  14  15
HETATM   15  C   UNL     1      -9.571  10.279  64.545  1.00  0.00    -0.378 C  
BRANCH  15  16
HETATM   16  C   UNL     1     -10.703  10.741  63.614  1.00  0.00     0.060 C  
BRANCH  16  17
HETATM   17  C   UNL     1     -11.082  12.165  63.911  1.00  0.00    -0.470 A  
HETATM   18  C   UNL     1     -10.189  13.016  64.574  1.00  0.00    -0.331 A  
HETATM   19  C   UNL     1     -12.313  12.665  63.470  1.00  0.00    -0.591 A  
HETATM   20  C   UNL     1     -11.753  14.846  64.349  1.00  0.00    -0.338 A  
HETATM   21  C   UNL     1     -10.532  14.355  64.797  1.00  0.00    -0.394 A  
HETATM   22  C   UNL     1     -12.641  14.003  63.687  1.00  0.00     0.205 A  
ENDBRANCH  16  17
ENDBRANCH  15  16
ENDBRANCH  14  15
ENDBRANCH  13  14
ENDBRANCH  11  13
BRANCH  11  23
HETATM   23  C   UNL     1      -8.289   8.932  66.072  1.00  0.00    -0.124 C  
BRANCH  23  24
HETATM   24  C   UNL     1      -8.391   7.430  66.395  1.00  0.00    -0.127 C  
HETATM   25  C   UNL     1      -9.035   5.508  67.869  1.00  0.00    -0.108 C  
HETATM   26  O   UNL     1      -7.830   6.607  65.661  1.00  0.00    -0.093 OA 
HETATM   27  N   UNL     1      -9.125   6.929  67.448  1.00  0.00    -0.122 N  
HETATM   28  C   UNL     1      -9.684   4.416  66.975  1.00  0.00    -0.205 C  
HETATM   29  O   UNL     1     -10.127   3.356  67.405  1.00  0.00     0.274 OA 
HETATM   30  C   UNL     1     -10.246   7.547  68.129  1.00  0.00    -0.189 C  
HETATM   31  C   UNL     1     -10.345   6.853  69.499  1.00  0.00    -0.224 C  
HETATM   32  O   UNL     1      -9.612   4.651  65.648  1.00  0.00    -0.162 OA 
HETATM   33  C   UNL     1      -9.692   5.474  69.263  1.00  0.00    -0.214 C  
BRANCH  31  34
HETATM   34  C   UNL     1      -9.688   7.603  70.699  1.00  0.00    -0.174 C  
HETATM   35  C   UNL     1     -11.785   8.762  71.538  1.00  0.00    -0.377 C  
HETATM   36  C   UNL     1     -11.816   7.915  72.806  1.00  0.00    -0.287 C  
HETATM   37  C   UNL     1     -11.044   6.605  72.665  1.00  0.00    -0.291 C  
HETATM   38  C   UNL     1     -10.353   8.946  71.048  1.00  0.00    -0.321 C  
HETATM   39  C   UNL     1      -9.672   6.759  71.998  1.00  0.00    -0.159 C  
ENDBRANCH  31  34
ENDBRANCH  23  24
ENDBRANCH  11  23
ENDBRANCH  10  11
ENDBRANCH   6  10
ENDBRANCH   5   6
ENDBRANCH   3   5
ENDBRANCH   2   3
TORSDOF 13
ENDMDL
MODEL      324
REMARK 921   NORMALIZED FREE ENERGY PREDICTED BY IDOCK:    0.29 KCAL/MOL
REMARK 922        TOTAL FREE ENERGY PREDICTED BY IDOCK:   -1.95 KCAL/MOL
REMARK 923 INTER-LIGAND FREE ENERGY PREDICTED BY IDOCK:   -4.19 KCAL/MOL
REMARK 924 INTRA-LIGAND FREE ENERGY PREDICTED BY IDOCK:    2.24 KCAL/MOL
REMARK 927      BINDING AFFINITY PREDICTED BY RF-SCORE:    0.00 PKD
ROOT
HETATM    1  C   UNL     1     -11.591   9.561  68.864  1.00  0.00     0.427 C  
HETATM    2  C   UNL     1     -12.101  10.848  69.486  1.00  0.00    -0.380 C  
ENDROOT
BRANCH   2   3
HETATM    3  C   UNL     1     -11.693  12.166  68.834  1.00  0.00    -0.327 C  
HETATM    4  O   UNL     1     -12.372  13.184  68.926  1.00  0.00    -0.147 OA 
BRANCH   3   5
HETATM    5  O   UNL     1     -10.467  12.108  68.258  1.00  0.00    -0.200 OA 
BRANCH   5   6
HETATM    6  C   UNL     1     -10.094  13.162  67.315  1.00  0.00    -0.233 C  
HETATM    7  C   UNL     1     -10.569  12.702  65.889  1.00  0.00    -0.297 C  
HETATM    8  C   UNL     1     -10.232  13.690  64.773  1.00  0.00    -0.363 C  
HETATM    9  C   UNL     1     -12.063  12.377  65.830  1.00  0.00    -0.381 C  
BRANCH   6  10
HETATM   10  O   UNL     1      -8.682  13.536  67.309  1.00  0.00    -0.205 OA 
BRANCH  10  11
HETATM   11  P   UNL     1      -8.270  14.995  67.998  1.00  0.00    -0.156 P  
HETATM   12  O   UNL     1      -9.085  14.677  69.275  1.00  0.00    -0.088 OA 
BRANCH  11  13
HETATM   13  C   UNL     1      -9.670  16.231  67.383  1.00  0.00    -0.234 C  
BRANCH  13  14
HETATM   14  C   UNL     1     -11.075  15.758  67.772  1.00  0.00    -0.313 C  
BRANCH  14  15
HETATM   15  C   UNL     1     -11.784  16.668  68.759  1.00  0.00     0.236 C  
BRANCH  15  16
HETATM   16  C   UNL     1     -11.092  16.566  70.128  1.00  0.00    -0.193 C  
BRANCH  16  17
HETATM   17  C   UNL     1     -12.025  15.978  71.149  1.00  0.00    -0.443 A  
HETATM   18  C   UNL     1     -11.760  16.112  72.518  1.00  0.00    -0.525 A  
HETATM   19  C   UNL     1     -13.202  15.343  70.734  1.00  0.00    -0.440 A  
HETATM   20  C   UNL     1     -13.834  14.985  73.039  1.00  0.00    -0.190 A  
HETATM   21  C   UNL     1     -12.664  15.607  73.460  1.00  0.00    -0.684 A  
HETATM   22  C   UNL     1     -14.103  14.854  71.680  1.00  0.00    -0.601 A  
ENDBRANCH  16  17
ENDBRANCH  15  16
ENDBRANCH  14  15
ENDBRANCH  13  14
ENDBRANCH  11  13
BRANCH  11  23
HETATM   23  C   UNL     1      -7.306  15.372  66.489  1.00  0.00     0.803 C  
BRANCH  23  24
HETATM   24  C   UNL     1      -7.326  16.856  66.078  1.00  0.00     0.048 C  
HETATM   25  C   UNL     1      -6.742  19.270  66.418  1.00  0.00    -0.200 C  
HETATM   26  O   UNL     1      -8.036  17.219  65.132  1.00  0.00     0.999 OA 
HETATM   27  N   UNL     1      -6.548  17.821  66.680  1.00  0.00    -0.184 N  
HETATM   28  C   UNL     1      -6.296  19.852  65.048  1.00  0.00    -0.279 C  
HETATM   29  O   UNL     1      -5.924  21.009  64.887  1.00  0.00    -0.252 OA 
HETATM   30  C   UNL     1      -5.310  17.640  67.412  1.00  0.00    -0.131 C  
HETATM   31  C   UNL     1      -5.150  18.894  68.291  1.00  0.00    -0.177 C  
HETATM   32  O   UNL     1      -6.473  19.025  63.995  1.00  0.00    -0.139 OA 
HETATM   33  C   UNL     1      -5.960  19.975  67.543  1.00  0.00    -0.204 C  
BRANCH  31  34
HETATM   34  C   UNL     1      -5.607  18.755  69.776  1.00  0.00    -0.235 C  
HETATM   35  C   UNL     1      -7.597  20.327  69.647  1.00  0.00     0.482 C  
HETATM   36  C   UNL     1      -8.587  19.180  69.818  1.00  0.00     0.702 C  
HETATM   37  C   UNL     1      -7.998  17.823  69.438  1.00  0.00     0.350 C  
HETATM   38  C   UNL     1      -6.282  20.012  70.351  1.00  0.00    -0.368 C  
HETATM   39  C   UNL     1      -6.590  17.577  69.994  1.00  0.00     0.337 C  
ENDBRANCH  31  34
ENDBRANCH  23  24
ENDBRANCH  11  23
ENDBRANCH  10  11
ENDBRANCH   6  10
ENDBRANCH   5   6
ENDBRANCH   3   5
ENDBRANCH   2   3
TORSDOF 13
ENDMDL
MODEL      325
REMARK 921   NORMALIZED FREE ENERGY PREDICTED BY IDOCK:    0.33 KCAL/MOL
REMARK 922        TOTAL FREE ENERGY PREDICTED BY IDOCK:   -1.88 KCAL/MOL
REMARK 923 INTER-LIGAND FREE ENERGY PREDICTED BY IDOCK:   -4.44 KCAL/MOL
REMARK 924 INTRA-LIGAND FREE ENERGY PREDICTED BY IDOCK:    2.55 KCAL/MOL
REMARK 927      BINDING AFFINITY PREDICTED BY RF-SCORE:    0.00 PKD
ROOT
HETATM    1  C   UNL     1      -9.407  16.897  68.250  1.00  0.00    -0.248 C  
HETATM    2  C   UNL     1      -8.317  15.843  68.177  1.00  0.00    -0.162 C  
ENDROOT
BRANCH   2   3
HETATM    3  C   UNL     1      -8.138  14.918  69.378  1.00  0.00    -0.103 C  
HETATM    4  O   UNL     1      -7.990  15.342  70.519  1.00  0.00     0.626 OA 
BRANCH   3   5
HETATM    5  O   UNL     1      -8.278  13.609  69.055  1.00  0.00     0.056 OA 
BRANCH   5   6
HETATM    6  C   UNL     1      -9.513  13.185  68.395  1.00  0.00    -0.166 C  
HETATM    7  C   UNL     1     -10.701  13.529  69.365  1.00  0.00     0.052 C  
HETATM    8  C   UNL     1     -12.075  13.126  68.832  1.00  0.00    -0.232 C  
HETATM    9  C   UNL     1     -10.738  15.004  69.768  1.00  0.00    -0.260 C  
BRANCH   6  10
HETATM   10  O   UNL     1      -9.559  11.787  67.974  1.00  0.00    -0.175 OA 
BRANCH  10  11
HETATM   11  P   UNL     1      -8.849  11.398  66.518  1.00  0.00    -0.183 P  
HETATM   12  O   UNL     1     -10.226  11.309  65.817  1.00  0.00    -0.234 OA 
BRANCH  11  13
HETATM   13  C   UNL     1      -8.715   9.437  66.558  1.00  0.00    -0.134 C  
BRANCH  13  14
HETATM   14  C   UNL     1     -10.072   8.757  66.349  1.00  0.00    -0.313 C  
BRANCH  14  15
HETATM   15  C   UNL     1     -10.006   7.240  66.307  1.00  0.00     0.023 C  
BRANCH  15  16
HETATM   16  C   UNL     1     -11.231   6.660  67.032  1.00  0.00    -0.265 C  
BRANCH  16  17
HETATM   17  C   UNL     1     -10.838   6.106  68.372  1.00  0.00    -0.382 A  
HETATM   18  C   UNL     1     -10.228   4.849  68.472  1.00  0.00    -0.105 A  
HETATM   19  C   UNL     1     -11.025   6.875  69.527  1.00  0.00    -0.289 A  
HETATM   20  C   UNL     1     -10.000   5.140  70.861  1.00  0.00    -0.280 A  
HETATM   21  C   UNL     1      -9.817   4.366  69.720  1.00  0.00    -0.284 A  
HETATM   22  C   UNL     1     -10.601   6.391  70.764  1.00  0.00    -0.288 A  
ENDBRANCH  16  17
ENDBRANCH  15  16
ENDBRANCH  14  15
ENDBRANCH  13  14
ENDBRANCH  11  13
BRANCH  11  23
HETATM   23  C   UNL     1      -7.222  11.504  67.348  1.00  0.00    -0.119 C  
BRANCH  23  24
HETATM   24  C   UNL     1      -6.418  10.190  67.335  1.00  0.00    -0.067 C  
HETATM   25  C   UNL     1      -5.697   8.010  68.339  1.00  0.00    -0.033 C  
HETATM   26  O   UNL     1      -5.571  10.000  66.453  1.00  0.00    -0.044 OA 
HETATM   27  N   UNL     1      -6.622   9.167  68.235  1.00  0.00    -0.059 N  
HETATM   28  C   UNL     1      -5.702   6.939  67.214  1.00  0.00    -0.014 C  
HETATM   29  O   UNL     1      -5.417   5.760  67.392  1.00  0.00    -0.007 OA 
HETATM   30  C   UNL     1      -7.815   8.882  69.006  1.00  0.00    -0.091 C  
HETATM   31  C   UNL     1      -7.357   8.011  70.190  1.00  0.00    -0.061 C  
HETATM   32  O   UNL     1      -5.917   7.422  65.971  1.00  0.00    -0.036 OA 
HETATM   33  C   UNL     1      -6.066   7.338  69.676  1.00  0.00    -0.030 C  
BRANCH  31  34
HETATM   34  C   UNL     1      -7.120   8.756  71.540  1.00  0.00    -0.097 C  
HETATM   35  C   UNL     1      -7.641   6.805  73.079  1.00  0.00    -0.086 C  
HETATM   36  C   UNL     1      -6.187   6.694  73.526  1.00  0.00    -0.063 C  
HETATM   37  C   UNL     1      -5.209   7.317  72.532  1.00  0.00    -0.037 C  
HETATM   38  C   UNL     1      -7.981   8.244  72.707  1.00  0.00    -0.194 C  
HETATM   39  C   UNL     1      -5.644   8.692  72.009  1.00  0.00    -0.051 C  
ENDBRANCH  31  34
ENDBRANCH  23  24
ENDBRANCH  11  23
ENDBRANCH  10  11
ENDBRANCH   6  10
ENDBRANCH   5   6
ENDBRANCH   3   5
ENDBRANCH   2   3
TORSDOF 13
ENDMDL
MODEL      326
REMARK 921   NORMALIZED FREE ENERGY PREDICTED BY IDOCK:    1.16 KCAL/MOL
REMARK 922        TOTAL FREE ENERGY PREDICTED BY IDOCK:   -0.42 KCAL/MOL
REMARK 923 INTER-LIGAND FREE ENERGY PREDICTED BY IDOCK:   -4.06 KCAL/MOL
REMARK 924 INTRA-LIGAND FREE ENERGY PREDICTED BY IDOCK:    3.64 KCAL/MOL
REMARK 927      BINDING AFFINITY PREDICTED BY RF-SCORE:    0.00 PKD
ROOT
HETATM    1  C   UNL     1     -11.791  11.501  70.389  1.00  0.00    -0.413 C  
HETATM    2  C   UNL     1     -11.268  10.124  70.758  1.00  0.00    -0.414 C  
ENDROOT
BRANCH   2   3
HETATM    3  C   UNL     1     -10.100   9.565  69.951  1.00  0.00    -0.232 C  
HETATM    4  O   UNL     1      -9.737   8.397  70.042  1.00  0.00    -0.174 OA 
BRANCH   3   5
HETATM    5  O   UNL     1      -9.604  10.458  69.060  1.00  0.00    -0.184 OA 
BRANCH   5   6
HETATM    6  C   UNL     1      -8.413  10.086  68.296  1.00  0.00    -0.111 C  
HETATM    7  C   UNL     1      -7.168  10.667  69.060  1.00  0.00    -0.095 C  
HETATM    8  C   UNL     1      -5.832  10.385  68.376  1.00  0.00    -0.040 C  
HETATM    9  C   UNL     1      -7.088  10.203  70.516  1.00  0.00    -0.016 C  
BRANCH   6  10
HETATM   10  O   UNL     1      -8.409  10.490  66.892  1.00  0.00    -0.123 OA 
BRANCH  10  11
HETATM   11  P   UNL     1      -9.081   9.439  65.788  1.00  0.00    -0.232 P  
HETATM   12  O   UNL     1      -9.024  10.506  64.667  1.00  0.00    -0.188 OA 
BRANCH  11  13
HETATM   13  C   UNL     1     -11.019   9.712  65.981  1.00  0.00     0.887 C  
BRANCH  13  14
HETATM   14  C   UNL     1     -11.351  10.928  66.853  1.00  0.00    -0.044 C  
BRANCH  14  15
HETATM   15  C   UNL     1     -10.924  12.256  66.255  1.00  0.00    -0.327 C  
BRANCH  15  16
HETATM   16  C   UNL     1      -9.554  12.653  66.827  1.00  0.00    -0.241 C  
BRANCH  16  17
HETATM   17  C   UNL     1      -9.717  13.636  67.953  1.00  0.00    -0.234 A  
HETATM   18  C   UNL     1      -8.601  14.099  68.661  1.00  0.00    -0.126 A  
HETATM   19  C   UNL     1     -10.986  14.141  68.259  1.00  0.00    -0.266 A  
HETATM   20  C   UNL     1     -10.022  15.557  69.964  1.00  0.00    -0.178 A  
HETATM   21  C   UNL     1      -8.759  15.055  69.671  1.00  0.00     0.011 A  
HETATM   22  C   UNL     1     -11.132  15.101  69.260  1.00  0.00    -0.279 A  
ENDBRANCH  16  17
ENDBRANCH  15  16
ENDBRANCH  14  15
ENDBRANCH  13  14
ENDBRANCH  11  13
BRANCH  11  23
HETATM   23  C   UNL     1      -9.150   8.179  67.113  1.00  0.00    -0.140 C  
BRANCH  23  24
HETATM   24  C   UNL     1      -9.474   6.757  66.617  1.00  0.00    -0.165 C  
HETATM   25  C   UNL     1      -8.861   4.583  65.531  1.00  0.00    -0.130 C  
HETATM   26  O   UNL     1     -10.646   6.359  66.624  1.00  0.00    -0.231 OA 
HETATM   27  N   UNL     1      -8.513   5.860  66.205  1.00  0.00    -0.127 N  
HETATM   28  C   UNL     1      -9.484   3.435  66.373  1.00  0.00    -0.117 C  
HETATM   29  O   UNL     1      -9.345   2.244  66.113  1.00  0.00    -0.046 OA 
HETATM   30  C   UNL     1      -7.106   5.836  66.552  1.00  0.00    -0.069 C  
HETATM   31  C   UNL     1      -6.413   5.007  65.456  1.00  0.00    -0.036 C  
HETATM   32  O   UNL     1     -10.317   3.838  67.356  1.00  0.00     0.453 OA 
HETATM   33  C   UNL     1      -7.536   4.094  64.917  1.00  0.00    -0.073 C  
BRANCH  31  34
HETATM   34  C   UNL     1      -5.729   5.816  64.311  1.00  0.00    -0.024 C  
HETATM   35  C   UNL     1      -7.630   5.672  62.635  1.00  0.00    -0.069 C  
HETATM   36  C   UNL     1      -7.926   7.162  62.756  1.00  0.00    -0.107 C  
HETATM   37  C   UNL     1      -7.408   7.769  64.058  1.00  0.00    -0.098 C  
HETATM   38  C   UNL     1      -6.154   5.394  62.894  1.00  0.00    -0.021 C  
HETATM   39  C   UNL     1      -5.981   7.341  64.420  1.00  0.00    -0.037 C  
ENDBRANCH  31  34
ENDBRANCH  23  24
ENDBRANCH  11  23
ENDBRANCH  10  11
ENDBRANCH   6  10
ENDBRANCH   5   6
ENDBRANCH   3   5
ENDBRANCH   2   3
TORSDOF 13
ENDMDL
MODEL      327
REMARK 921   NORMALIZED FREE ENERGY PREDICTED BY IDOCK:    1.60 KCAL/MOL
REMARK 922        TOTAL FREE ENERGY PREDICTED BY IDOCK:    0.34 KCAL/MOL
REMARK 923 INTER-LIGAND FREE ENERGY PREDICTED BY IDOCK:   -4.26 KCAL/MOL
REMARK 924 INTRA-LIGAND FREE ENERGY PREDICTED BY IDOCK:    4.60 KCAL/MOL
REMARK 927      BINDING AFFINITY PREDICTED BY RF-SCORE:    0.00 PKD
ROOT
HETATM    1  C   UNL     1      -8.947   8.121  62.774  1.00  0.00     0.642 C  
HETATM    2  C   UNL     1      -9.031   8.545  64.229  1.00  0.00     0.371 C  
ENDROOT
BRANCH   2   3
HETATM    3  C   UNL     1      -8.913  10.033  64.547  1.00  0.00    -0.226 C  
HETATM    4  O   UNL     1      -8.927  10.895  63.674  1.00  0.00    -0.180 OA 
BRANCH   3   5
HETATM    5  O   UNL     1      -8.910  10.286  65.879  1.00  0.00    -0.150 OA 
BRANCH   5   6
HETATM    6  C   UNL     1      -7.629  10.563  66.529  1.00  0.00    -0.128 C  
HETATM    7  C   UNL     1      -6.536   9.709  65.789  1.00  0.00    -0.079 C  
HETATM    8  C   UNL     1      -5.129   9.866  66.364  1.00  0.00    -0.039 C  
HETATM    9  C   UNL     1      -6.488   9.972  64.282  1.00  0.00    -0.131 C  
BRANCH   6  10
HETATM   10  O   UNL     1      -7.589  10.339  67.971  1.00  0.00    -0.087 OA 
BRANCH  10  11
HETATM   11  P   UNL     1      -8.959  10.705  68.845  1.00  0.00    -0.120 P  
HETATM   12  O   UNL     1      -8.731   9.505  69.796  1.00  0.00    -0.158 OA 
BRANCH  11  13
HETATM   13  C   UNL     1     -10.394   9.729  67.920  1.00  0.00    -0.213 C  
BRANCH  13  14
HETATM   14  C   UNL     1     -10.484   8.266  68.367  1.00  0.00    -0.206 C  
BRANCH  14  15
HETATM   15  C   UNL     1      -9.865   7.280  67.392  1.00  0.00    -0.206 C  
BRANCH  15  16
HETATM   16  C   UNL     1      -9.328   6.068  68.170  1.00  0.00    -0.115 C  
BRANCH  16  17
HETATM   17  C   UNL     1      -8.558   5.155  67.258  1.00  0.00    -0.104 A  
HETATM   18  C   UNL     1      -8.300   5.524  65.932  1.00  0.00    -0.125 A  
HETATM   19  C   UNL     1      -8.039   3.952  67.752  1.00  0.00    -0.089 A  
HETATM   20  C   UNL     1      -7.017   3.501  65.608  1.00  0.00    -0.058 A  
HETATM   21  C   UNL     1      -7.535   4.690  65.108  1.00  0.00    -0.076 A  
HETATM   22  C   UNL     1      -7.268   3.133  66.927  1.00  0.00    -0.058 A  
ENDBRANCH  16  17
ENDBRANCH  15  16
ENDBRANCH  14  15
ENDBRANCH  13  14
ENDBRANCH  11  13
BRANCH  11  23
HETATM   23  C   UNL     1      -9.230  12.123  67.720  1.00  0.00    -0.189 C  
BRANCH  23  24
HETATM   24  C   UNL     1      -8.319  13.333  67.997  1.00  0.00    -0.162 C  
HETATM   25  C   UNL     1      -7.924  15.721  68.651  1.00  0.00    -0.155 C  
HETATM   26  O   UNL     1      -7.113  13.267  67.723  1.00  0.00    -0.116 OA 
HETATM   27  N   UNL     1      -8.760  14.495  68.592  1.00  0.00    -0.176 N  
HETATM   28  C   UNL     1      -6.711  15.757  69.622  1.00  0.00    -0.176 C  
HETATM   29  O   UNL     1      -6.281  16.782  70.140  1.00  0.00    -0.163 OA 
HETATM   30  C   UNL     1      -9.913  14.676  69.452  1.00  0.00    -0.024 C  
HETATM   31  C   UNL     1     -10.249  16.177  69.401  1.00  0.00    -0.266 C  
HETATM   32  O   UNL     1      -6.061  14.582  69.763  1.00  0.00    -0.111 OA 
HETATM   33  C   UNL     1      -8.907  16.844  69.031  1.00  0.00    -0.159 C  
BRANCH  31  34
HETATM   34  C   UNL     1     -11.389  16.594  68.420  1.00  0.00    -0.142 C  
HETATM   35  C   UNL     1      -9.904  17.479  66.560  1.00  0.00    -0.315 C  
HETATM   36  C   UNL     1     -10.284  16.331  65.632  1.00  0.00    -0.368 C  
HETATM   37  C   UNL     1     -10.809  15.108  66.381  1.00  0.00    -0.326 C  
HETATM   38  C   UNL     1     -11.045  17.794  67.522  1.00  0.00     0.079 C  
HETATM   39  C   UNL     1     -11.825  15.440  67.481  1.00  0.00     0.046 C  
ENDBRANCH  31  34
ENDBRANCH  23  24
ENDBRANCH  11  23
ENDBRANCH  10  11
ENDBRANCH   6  10
ENDBRANCH   5   6
ENDBRANCH   3   5
ENDBRANCH   2   3
TORSDOF 13
ENDMDL
MODEL      328
REMARK 921   NORMALIZED FREE ENERGY PREDICTED BY IDOCK:    1.88 KCAL/MOL
REMARK 922        TOTAL FREE ENERGY PREDICTED BY IDOCK:    0.85 KCAL/MOL
REMARK 923 INTER-LIGAND FREE ENERGY PREDICTED BY IDOCK:   -6.77 KCAL/MOL
REMARK 924 INTRA-LIGAND FREE ENERGY PREDICTED BY IDOCK:    7.62 KCAL/MOL
REMARK 927      BINDING AFFINITY PREDICTED BY RF-SCORE:    0.00 PKD
ROOT
HETATM    1  C   UNL     1      -6.545   9.978  70.102  1.00  0.00    -0.117 C  
HETATM    2  C   UNL     1      -6.961   8.529  70.277  1.00  0.00    -0.040 C  
ENDROOT
BRANCH   2   3
HETATM    3  C   UNL     1      -6.069   7.452  69.665  1.00  0.00    -0.030 C  
HETATM    4  O   UNL     1      -5.248   6.825  70.326  1.00  0.00    -0.017 OA 
BRANCH   3   5
HETATM    5  O   UNL     1      -6.369   7.199  68.368  1.00  0.00    -0.033 OA 
BRANCH   5   6
HETATM    6  C   UNL     1      -7.563   7.823  67.797  1.00  0.00    -0.113 C  
HETATM    7  C   UNL     1      -8.270   6.743  66.900  1.00  0.00    -0.113 C  
HETATM    8  C   UNL     1      -9.535   7.245  66.205  1.00  0.00    -0.064 C  
HETATM    9  C   UNL     1      -8.598   5.455  67.658  1.00  0.00    -0.104 C  
BRANCH   6  10
HETATM   10  O   UNL     1      -7.338   9.062  67.058  1.00  0.00    -0.085 OA 
BRANCH  10  11
HETATM   11  P   UNL     1      -7.919  10.473  67.727  1.00  0.00    -0.107 P  
HETATM   12  O   UNL     1      -7.803   9.897  69.159  1.00  0.00    -0.089 OA 
BRANCH  11  13
HETATM   13  C   UNL     1      -9.868  10.224  67.758  1.00  0.00    -0.169 C  
BRANCH  13  14
HETATM   14  C   UNL     1     -10.380   9.805  69.141  1.00  0.00    -0.225 C  
BRANCH  14  15
HETATM   15  C   UNL     1     -10.543   8.306  69.313  1.00  0.00    -0.191 C  
BRANCH  15  16
HETATM   16  C   UNL     1     -11.776   8.029  70.189  1.00  0.00     0.176 C  
BRANCH  16  17
HETATM   17  C   UNL     1     -11.392   7.230  71.403  1.00  0.00    -0.282 A  
HETATM   18  C   UNL     1     -10.932   5.913  71.273  1.00  0.00    -0.325 A  
HETATM   19  C   UNL     1     -11.436   7.822  72.670  1.00  0.00    -0.430 A  
HETATM   20  C   UNL     1     -10.565   5.796  73.659  1.00  0.00    -0.302 A  
HETATM   21  C   UNL     1     -10.526   5.197  72.405  1.00  0.00    -0.272 A  
HETATM   22  C   UNL     1     -11.019   7.105  73.791  1.00  0.00     0.154 A  
ENDBRANCH  16  17
ENDBRANCH  15  16
ENDBRANCH  14  15
ENDBRANCH  13  14
ENDBRANCH  11  13
BRANCH  11  23
HETATM   23  C   UNL     1      -8.055  11.154  66.034  1.00  0.00    -0.064 C  
BRANCH  23  24
HETATM   24  C   UNL     1      -9.438  11.742  65.698  1.00  0.00    -0.192 C  
HETATM   25  C   UNL     1     -11.137  13.584  65.709  1.00  0.00    -0.286 C  
HETATM   26  O   UNL     1     -10.321  11.006  65.240  1.00  0.00    -0.264 OA 
HETATM   27  N   UNL     1      -9.747  13.078  65.830  1.00  0.00    -0.224 N  
HETATM   28  C   UNL     1     -11.800  13.633  64.305  1.00  0.00    -0.425 C  
HETATM   29  O   UNL     1     -12.661  14.446  63.984  1.00  0.00    -0.764 OA 
HETATM   30  C   UNL     1      -8.838  14.208  65.838  1.00  0.00     0.710 C  
HETATM   31  C   UNL     1      -9.598  15.358  66.523  1.00  0.00    -0.298 C  
HETATM   32  O   UNL     1     -11.459  12.621  63.480  1.00  0.00    -0.461 OA 
HETATM   33  C   UNL     1     -11.084  15.010  66.291  1.00  0.00    -0.334 C  
BRANCH  31  34
HETATM   34  C   UNL     1      -9.287  15.583  68.035  1.00  0.00    -0.193 C  
HETATM   35  C   UNL     1     -11.690  15.795  68.828  1.00  0.00    -0.387 C  
HETATM   36  C   UNL     1     -11.619  14.471  69.581  1.00  0.00    -0.346 C  
HETATM   37  C   UNL     1     -10.516  13.550  69.065  1.00  0.00    -0.075 C  
HETATM   38  C   UNL     1     -10.317  16.456  68.771  1.00  0.00    -0.275 C  
HETATM   39  C   UNL     1      -9.175  14.256  68.828  1.00  0.00    -0.112 C  
ENDBRANCH  31  34
ENDBRANCH  23  24
ENDBRANCH  11  23
ENDBRANCH  10  11
ENDBRANCH   6  10
ENDBRANCH   5   6
ENDBRANCH   3   5
ENDBRANCH   2   3
TORSDOF 13
ENDMDL
MODEL      329
REMARK 921   NORMALIZED FREE ENERGY PREDICTED BY IDOCK:    2.75 KCAL/MOL
REMARK 922        TOTAL FREE ENERGY PREDICTED BY IDOCK:    2.38 KCAL/MOL
REMARK 923 INTER-LIGAND FREE ENERGY PREDICTED BY IDOCK:   -3.40 KCAL/MOL
REMARK 924 INTRA-LIGAND FREE ENERGY PREDICTED BY IDOCK:    5.77 KCAL/MOL
REMARK 927      BINDING AFFINITY PREDICTED BY RF-SCORE:    0.00 PKD
ROOT
HETATM    1  C   UNL     1      -6.105   2.798  69.643  1.00  0.00    -0.024 C  
HETATM    2  C   UNL     1      -7.054   3.982  69.689  1.00  0.00    -0.046 C  
ENDROOT
BRANCH   2   3
HETATM    3  C   UNL     1      -6.919   5.046  68.602  1.00  0.00    -0.056 C  
HETATM    4  O   UNL     1      -7.739   5.169  67.698  1.00  0.00    -0.087 OA 
BRANCH   3   5
HETATM    5  O   UNL     1      -5.879   5.888  68.819  1.00  0.00    -0.014 OA 
BRANCH   5   6
HETATM    6  C   UNL     1      -6.124   7.108  69.588  1.00  0.00    -0.030 C  
HETATM    7  C   UNL     1      -6.365   6.679  71.081  1.00  0.00    -0.041 C  
HETATM    8  C   UNL     1      -6.661   7.844  72.023  1.00  0.00    -0.059 C  
HETATM    9  C   UNL     1      -5.215   5.852  71.660  1.00  0.00    -0.020 C  
BRANCH   6  10
HETATM   10  O   UNL     1      -7.207   7.958  69.100  1.00  0.00    -0.077 OA 
BRANCH  10  11
HETATM   11  P   UNL     1      -7.253   9.533  69.642  1.00  0.00    -0.102 P  
HETATM   12  O   UNL     1      -6.046   9.294  70.583  1.00  0.00    -0.044 OA 
BRANCH  11  13
HETATM   13  C   UNL     1      -8.487   9.479  71.172  1.00  0.00     0.338 C  
BRANCH  13  14
HETATM   14  C   UNL     1      -9.612   8.457  70.976  1.00  0.00    -0.212 C  
BRANCH  14  15
HETATM   15  C   UNL     1     -10.664   8.475  72.071  1.00  0.00    -0.410 C  
BRANCH  15  16
HETATM   16  C   UNL     1     -11.743   7.428  71.752  1.00  0.00    -0.319 C  
BRANCH  16  17
HETATM   17  C   UNL     1     -11.228   6.041  72.018  1.00  0.00    -0.341 A  
HETATM   18  C   UNL     1     -10.303   5.446  71.150  1.00  0.00    -0.304 A  
HETATM   19  C   UNL     1     -11.626   5.359  73.174  1.00  0.00    -0.204 A  
HETATM   20  C   UNL     1     -10.184   3.509  72.592  1.00  0.00    -0.241 A  
HETATM   21  C   UNL     1      -9.789   4.176  71.437  1.00  0.00    -0.254 A  
HETATM   22  C   UNL     1     -11.100   4.099  73.458  1.00  0.00    -0.359 A  
ENDBRANCH  16  17
ENDBRANCH  15  16
ENDBRANCH  14  15
ENDBRANCH  13  14
ENDBRANCH  11  13
BRANCH  11  23
HETATM   23  C   UNL     1      -8.679   9.815  68.531  1.00  0.00    -0.120 C  
BRANCH  23  24
HETATM   24  C   UNL     1      -9.388  11.166  68.741  1.00  0.00    -0.149 C  
HETATM   25  C   UNL     1     -10.801  13.084  67.964  1.00  0.00    -0.242 C  
HETATM   26  O   UNL     1      -9.182  11.810  69.778  1.00  0.00     1.220 OA 
HETATM   27  N   UNL     1     -10.298  11.692  67.850  1.00  0.00    -0.184 N  
HETATM   28  C   UNL     1     -11.805  13.430  69.099  1.00  0.00    -0.336 C  
HETATM   29  O   UNL     1     -12.652  14.313  69.017  1.00  0.00    -0.076 OA 
HETATM   30  C   UNL     1     -11.097  10.985  66.869  1.00  0.00    -0.213 C  
HETATM   31  C   UNL     1     -11.514  12.037  65.825  1.00  0.00    -0.377 C  
HETATM   32  O   UNL     1     -11.598  12.772  70.260  1.00  0.00    -0.163 OA 
HETATM   33  C   UNL     1     -11.464  13.370  66.603  1.00  0.00    -0.376 C  
BRANCH  31  34
HETATM   34  C   UNL     1     -10.653  12.095  64.526  1.00  0.00    -0.350 C  
HETATM   35  C   UNL     1      -8.460  11.343  65.560  1.00  0.00     0.163 C  
HETATM   36  C   UNL     1      -8.495  10.016  64.812  1.00  0.00    -0.180 C  
HETATM   37  C   UNL     1      -9.900   9.624  64.360  1.00  0.00     0.285 C  
HETATM   38  C   UNL     1      -9.170  12.430  64.762  1.00  0.00     0.584 C  
HETATM   39  C   UNL     1     -10.691  10.772  63.720  1.00  0.00     0.021 C  
ENDBRANCH  31  34
ENDBRANCH  23  24
ENDBRANCH  11  23
ENDBRANCH  10  11
ENDBRANCH   6  10
ENDBRANCH   5   6
ENDBRANCH   3   5
ENDBRANCH   2   3
TORSDOF 13
ENDMDL
MODEL      330
REMARK 921   NORMALIZED FREE ENERGY PREDICTED BY IDOCK:    3.03 KCAL/MOL
REMARK 922        TOTAL FREE ENERGY PREDICTED BY IDOCK:    2.87 KCAL/MOL
REMARK 923 INTER-LIGAND FREE ENERGY PREDICTED BY IDOCK:   -5.53 KCAL/MOL
REMARK 924 INTRA-LIGAND FREE ENERGY PREDICTED BY IDOCK:    8.40 KCAL/MOL
REMARK 927      BINDING AFFINITY PREDICTED BY RF-SCORE:    0.00 PKD
ROOT
HETATM    1  C   UNL     1     -11.759  12.251  63.115  1.00  0.00    -0.309 C  
HETATM    2  C   UNL     1     -10.861  11.675  64.195  1.00  0.00    -0.433 C  
ENDROOT
BRANCH   2   3
HETATM    3  C   UNL     1     -10.791  12.411  65.531  1.00  0.00    -0.281 C  
HETATM    4  O   UNL     1      -9.747  12.887  65.966  1.00  0.00    -0.266 OA 
BRANCH   3   5
HETATM    5  O   UNL     1     -12.008  12.571  66.105  1.00  0.00    -0.495 OA 
BRANCH   5   6
HETATM    6  C   UNL     1     -12.166  12.197  67.511  1.00  0.00     0.396 C  
HETATM    7  C   UNL     1     -11.143  13.056  68.340  1.00  0.00    -0.292 C  
HETATM    8  C   UNL     1     -11.163  12.769  69.840  1.00  0.00     0.096 C  
HETATM    9  C   UNL     1     -11.307  14.561  68.120  1.00  0.00    -0.319 C  
BRANCH   6  10
HETATM   10  O   UNL     1     -12.028  10.775  67.808  1.00  0.00    -0.470 OA 
BRANCH  10  11
HETATM   11  P   UNL     1     -10.534  10.236  68.312  1.00  0.00    -0.232 P  
HETATM   12  O   UNL     1     -10.665  10.988  69.659  1.00  0.00    -0.224 OA 
BRANCH  11  13
HETATM   13  C   UNL     1      -9.282  11.597  67.646  1.00  0.00    -0.178 C  
BRANCH  13  14
HETATM   14  C   UNL     1      -8.041  11.731  68.536  1.00  0.00    -0.140 C  
BRANCH  14  15
HETATM   15  C   UNL     1      -7.154  10.499  68.552  1.00  0.00    -0.075 C  
BRANCH  15  16
HETATM   16  C   UNL     1      -7.413   9.706  69.844  1.00  0.00    -0.127 C  
BRANCH  16  17
HETATM   17  C   UNL     1      -6.879   8.307  69.720  1.00  0.00    -0.044 A  
HETATM   18  C   UNL     1      -5.772   8.036  68.906  1.00  0.00    -0.035 A  
HETATM   19  C   UNL     1      -7.452   7.273  70.470  1.00  0.00    -0.083 A  
HETATM   20  C   UNL     1      -5.820   5.720  69.595  1.00  0.00    -0.023 A  
HETATM   21  C   UNL     1      -5.250   6.739  68.840  1.00  0.00    -0.013 A  
HETATM   22  C   UNL     1      -6.918   5.986  70.408  1.00  0.00    -0.059 A  
ENDBRANCH  16  17
ENDBRANCH  15  16
ENDBRANCH  14  15
ENDBRANCH  13  14
ENDBRANCH  11  13
BRANCH  11  23
HETATM   23  C   UNL     1     -10.380   9.347  66.720  1.00  0.00    -0.233 C  
BRANCH  23  24
HETATM   24  C   UNL     1     -10.488   7.815  66.837  1.00  0.00    -0.317 C  
HETATM   25  C   UNL     1      -9.687   5.484  66.382  1.00  0.00    -0.163 C  
HETATM   26  O   UNL     1     -11.504   7.310  67.332  1.00  0.00     0.147 OA 
HETATM   27  N   UNL     1      -9.481   6.953  66.464  1.00  0.00    -0.169 N  
HETATM   28  C   UNL     1      -9.814   4.668  67.698  1.00  0.00    -0.141 C  
HETATM   29  O   UNL     1      -9.480   3.494  67.808  1.00  0.00    -0.195 OA 
HETATM   30  C   UNL     1      -8.063   7.231  66.351  1.00  0.00    -0.119 C  
HETATM   31  C   UNL     1      -7.489   6.143  65.426  1.00  0.00    -0.083 C  
HETATM   32  O   UNL     1     -10.452   5.306  68.703  1.00  0.00    -0.158 OA 
HETATM   33  C   UNL     1      -8.475   4.966  65.583  1.00  0.00    -0.124 C  
BRANCH  31  34
HETATM   34  C   UNL     1      -7.302   6.541  63.929  1.00  0.00    -0.077 C  
HETATM   35  C   UNL     1      -7.972   8.979  64.159  1.00  0.00    -0.144 C  
HETATM   36  C   UNL     1      -6.550   9.456  63.886  1.00  0.00    -0.095 C  
HETATM   37  C   UNL     1      -5.498   8.384  64.164  1.00  0.00    -0.055 C  
HETATM   38  C   UNL     1      -8.243   7.658  63.447  1.00  0.00     0.037 C  
HETATM   39  C   UNL     1      -5.857   7.001  63.607  1.00  0.00    -0.036 C  
ENDBRANCH  31  34
ENDBRANCH  23  24
ENDBRANCH  11  23
ENDBRANCH  10  11
ENDBRANCH   6  10
ENDBRANCH   5   6
ENDBRANCH   3   5
ENDBRANCH   2   3
TORSDOF 13
ENDMDL
MODEL      331
REMARK 921   NORMALIZED FREE ENERGY PREDICTED BY IDOCK:    3.08 KCAL/MOL
REMARK 922        TOTAL FREE ENERGY PREDICTED BY IDOCK:    2.96 KCAL/MOL
REMARK 923 INTER-LIGAND FREE ENERGY PREDICTED BY IDOCK:   -4.23 KCAL/MOL
REMARK 924 INTRA-LIGAND FREE ENERGY PREDICTED BY IDOCK:    7.20 KCAL/MOL
REMARK 927      BINDING AFFINITY PREDICTED BY RF-SCORE:    0.00 PKD
ROOT
HETATM    1  C   UNL     1      -9.215  10.166  62.744  1.00  0.00    -0.322 C  
HETATM    2  C   UNL     1      -9.748  10.758  64.036  1.00  0.00    -0.367 C  
ENDROOT
BRANCH   2   3
HETATM    3  C   UNL     1      -9.570   9.949  65.318  1.00  0.00    -0.295 C  
HETATM    4  O   UNL     1      -9.421   8.731  65.312  1.00  0.00    -0.067 OA 
BRANCH   3   5
HETATM    5  O   UNL     1      -9.480  10.730  66.422  1.00  0.00    -0.165 OA 
BRANCH   5   6
HETATM    6  C   UNL     1      -8.151  11.135  66.879  1.00  0.00    -0.150 C  
HETATM    7  C   UNL     1      -7.130  10.061  66.354  1.00  0.00    -0.102 C  
HETATM    8  C   UNL     1      -5.682  10.326  66.766  1.00  0.00    -0.051 C  
HETATM    9  C   UNL     1      -7.186   9.871  64.837  1.00  0.00    -0.136 C  
BRANCH   6  10
HETATM   10  O   UNL     1      -8.010  11.341  68.317  1.00  0.00    -0.119 OA 
BRANCH  10  11
HETATM   11  P   UNL     1      -9.110  10.585  69.314  1.00  0.00    -0.025 P  
HETATM   12  O   UNL     1      -8.021   9.642  69.880  1.00  0.00    -0.129 OA 
BRANCH  11  13
HETATM   13  C   UNL     1      -9.834   9.127  68.213  1.00  0.00    -0.160 C  
BRANCH  13  14
HETATM   14  C   UNL     1     -10.894   8.307  68.957  1.00  0.00    -0.012 C  
BRANCH  14  15
HETATM   15  C   UNL     1     -11.115   6.917  68.388  1.00  0.00    -0.142 C  
BRANCH  15  16
HETATM   16  C   UNL     1     -10.119   5.941  69.034  1.00  0.00    -0.237 C  
BRANCH  16  17
HETATM   17  C   UNL     1     -10.632   5.467  70.365  1.00  0.00    -0.350 A  
HETATM   18  C   UNL     1     -10.205   4.245  70.900  1.00  0.00    -0.052 A  
HETATM   19  C   UNL     1     -11.497   6.279  71.108  1.00  0.00    -0.362 A  
HETATM   20  C   UNL     1     -11.501   4.656  72.898  1.00  0.00    -0.166 A  
HETATM   21  C   UNL     1     -10.648   3.839  72.164  1.00  0.00     0.064 A  
HETATM   22  C   UNL     1     -11.924   5.873  72.372  1.00  0.00    -0.206 A  
ENDBRANCH  16  17
ENDBRANCH  15  16
ENDBRANCH  14  15
ENDBRANCH  13  14
ENDBRANCH  11  13
BRANCH  11  23
HETATM   23  C   UNL     1     -10.398  11.700  68.645  1.00  0.00    -0.215 C  
BRANCH  23  24
HETATM   24  C   UNL     1     -10.801  12.843  69.595  1.00  0.00     0.339 C  
HETATM   25  C   UNL     1     -11.449  15.216  70.075  1.00  0.00    -0.286 C  
HETATM   26  O   UNL     1     -10.751  12.668  70.819  1.00  0.00     2.507 OA 
HETATM   27  N   UNL     1     -11.274  14.061  69.158  1.00  0.00    -0.260 N  
HETATM   28  C   UNL     1     -12.622  15.196  71.094  1.00  0.00    -0.367 C  
HETATM   29  O   UNL     1     -13.180  16.204  71.513  1.00  0.00    -0.230 OA 
HETATM   30  C   UNL     1     -11.906  14.371  67.891  1.00  0.00    -0.349 C  
HETATM   31  C   UNL     1     -11.754  15.891  67.702  1.00  0.00     0.153 C  
HETATM   32  O   UNL     1     -12.910  13.979  71.604  1.00  0.00    -0.323 OA 
HETATM   33  C   UNL     1     -11.615  16.431  69.141  1.00  0.00    -0.117 C  
BRANCH  31  34
HETATM   34  C   UNL     1     -10.573  16.356  66.795  1.00  0.00    -0.238 C  
HETATM   35  C   UNL     1      -8.688  15.721  68.372  1.00  0.00    -0.177 C  
HETATM   36  C   UNL     1      -8.219  14.598  67.453  1.00  0.00    -0.220 C  
HETATM   37  C   UNL     1      -9.309  14.116  66.498  1.00  0.00    -0.285 C  
HETATM   38  C   UNL     1      -9.334  16.842  67.566  1.00  0.00    -0.231 C  
HETATM   39  C   UNL     1     -10.091  15.250  65.822  1.00  0.00    -0.384 C  
ENDBRANCH  31  34
ENDBRANCH  23  24
ENDBRANCH  11  23
ENDBRANCH  10  11
ENDBRANCH   6  10
ENDBRANCH   5   6
ENDBRANCH   3   5
ENDBRANCH   2   3
TORSDOF 13
ENDMDL
MODEL      332
REMARK 921   NORMALIZED FREE ENERGY PREDICTED BY IDOCK:    3.38 KCAL/MOL
REMARK 922        TOTAL FREE ENERGY PREDICTED BY IDOCK:    3.48 KCAL/MOL
REMARK 923 INTER-LIGAND FREE ENERGY PREDICTED BY IDOCK:   -6.69 KCAL/MOL
REMARK 924 INTRA-LIGAND FREE ENERGY PREDICTED BY IDOCK:   10.17 KCAL/MOL
REMARK 927      BINDING AFFINITY PREDICTED BY RF-SCORE:    0.00 PKD
ROOT
HETATM    1  C   UNL     1     -12.962  11.483  69.980  1.00  0.00     0.359 C  
HETATM    2  C   UNL     1     -11.845  11.958  69.069  1.00  0.00    -0.368 C  
ENDROOT
BRANCH   2   3
HETATM    3  C   UNL     1     -11.746  13.455  68.783  1.00  0.00    -0.340 C  
HETATM    4  O   UNL     1     -11.058  14.210  69.461  1.00  0.00    -0.238 OA 
BRANCH   3   5
HETATM    5  O   UNL     1     -12.397  13.815  67.650  1.00  0.00    -0.260 OA 
BRANCH   5   6
HETATM    6  C   UNL     1     -11.600  14.194  66.483  1.00  0.00    -0.375 C  
HETATM    7  C   UNL     1     -11.198  12.868  65.741  1.00  0.00    -0.324 C  
HETATM    8  C   UNL     1     -10.335  13.087  64.500  1.00  0.00    -0.386 C  
HETATM    9  C   UNL     1     -12.403  12.004  65.362  1.00  0.00     0.198 C  
BRANCH   6  10
HETATM   10  O   UNL     1     -10.430  15.024  66.757  1.00  0.00    -0.273 OA 
BRANCH  10  11
HETATM   11  P   UNL     1      -8.939  14.281  66.743  1.00  0.00    -0.130 P  
HETATM   12  O   UNL     1      -9.369  13.334  65.596  1.00  0.00     0.038 OA 
BRANCH  11  13
HETATM   13  C   UNL     1      -9.118  12.820  68.047  1.00  0.00    -0.207 C  
BRANCH  13  14
HETATM   14  C   UNL     1      -8.948  11.440  67.402  1.00  0.00    -0.154 C  
BRANCH  14  15
HETATM   15  C   UNL     1      -7.629  10.762  67.727  1.00  0.00    -0.095 C  
BRANCH  15  16
HETATM   16  C   UNL     1      -7.784   9.243  67.552  1.00  0.00    -0.092 C  
BRANCH  16  17
HETATM   17  C   UNL     1      -7.815   8.558  68.889  1.00  0.00    -0.109 A  
HETATM   18  C   UNL     1      -6.801   8.783  69.829  1.00  0.00    -0.046 A  
HETATM   19  C   UNL     1      -8.896   7.735  69.227  1.00  0.00    -0.139 A  
HETATM   20  C   UNL     1      -7.949   7.372  71.421  1.00  0.00    -0.096 A  
HETATM   21  C   UNL     1      -6.868   8.182  71.091  1.00  0.00    -0.045 A  
HETATM   22  C   UNL     1      -8.961   7.150  70.491  1.00  0.00    -0.155 A  
ENDBRANCH  16  17
ENDBRANCH  15  16
ENDBRANCH  14  15
ENDBRANCH  13  14
ENDBRANCH  11  13
BRANCH  11  23
HETATM   23  C   UNL     1      -8.431  15.399  68.099  1.00  0.00    -0.147 C  
BRANCH  23  24
HETATM   24  C   UNL     1      -9.061  16.803  68.031  1.00  0.00    -0.228 C  
HETATM   25  C   UNL     1      -8.957  19.273  67.613  1.00  0.00    -0.298 C  
HETATM   26  O   UNL     1     -10.212  16.979  68.449  1.00  0.00    -0.290 OA 
HETATM   27  N   UNL     1      -8.426  17.892  67.474  1.00  0.00    -0.230 N  
HETATM   28  C   UNL     1     -10.223  19.676  66.808  1.00  0.00    -0.449 C  
HETATM   29  O   UNL     1     -10.455  20.818  66.427  1.00  0.00     0.140 OA 
HETATM   30  C   UNL     1      -7.360  17.899  66.492  1.00  0.00    -0.244 C  
HETATM   31  C   UNL     1      -6.681  19.275  66.612  1.00  0.00    -0.199 C  
HETATM   32  O   UNL     1     -11.140  18.695  66.662  1.00  0.00    -0.036 OA 
HETATM   33  C   UNL     1      -7.785  20.182  67.196  1.00  0.00    -0.343 C  
BRANCH  31  34
HETATM   34  C   UNL     1      -5.379  19.326  67.469  1.00  0.00    -0.171 C  
HETATM   35  C   UNL     1      -6.376  20.479  69.499  1.00  0.00    -0.191 C  
HETATM   36  C   UNL     1      -6.227  19.227  70.356  1.00  0.00    -0.082 C  
HETATM   37  C   UNL     1      -6.127  17.947  69.529  1.00  0.00    -0.249 C  
HETATM   38  C   UNL     1      -5.296  20.528  68.425  1.00  0.00    -0.284 C  
HETATM   39  C   UNL     1      -5.176  18.053  68.330  1.00  0.00    -0.157 C  
ENDBRANCH  31  34
ENDBRANCH  23  24
ENDBRANCH  11  23
ENDBRANCH  10  11
ENDBRANCH   6  10
ENDBRANCH   5   6
ENDBRANCH   3   5
ENDBRANCH   2   3
TORSDOF 13
ENDMDL
MODEL      333
REMARK 921   NORMALIZED FREE ENERGY PREDICTED BY IDOCK:    4.74 KCAL/MOL
REMARK 922        TOTAL FREE ENERGY PREDICTED BY IDOCK:    5.87 KCAL/MOL
REMARK 923 INTER-LIGAND FREE ENERGY PREDICTED BY IDOCK:   -4.13 KCAL/MOL
REMARK 924 INTRA-LIGAND FREE ENERGY PREDICTED BY IDOCK:   10.01 KCAL/MOL
REMARK 927      BINDING AFFINITY PREDICTED BY RF-SCORE:    0.00 PKD
ROOT
HETATM    1  C   UNL     1      -8.641   8.429  65.859  1.00  0.00    -0.179 C  
HETATM    2  C   UNL     1      -9.129   9.355  64.760  1.00  0.00    -0.248 C  
ENDROOT
BRANCH   2   3
HETATM    3  C   UNL     1      -8.080  10.080  63.921  1.00  0.00    -0.152 C  
HETATM    4  O   UNL     1      -7.562   9.571  62.932  1.00  0.00    -0.110 OA 
BRANCH   3   5
HETATM    5  O   UNL     1      -7.883  11.361  64.319  1.00  0.00     0.843 OA 
BRANCH   5   6
HETATM    6  C   UNL     1      -7.342  11.595  65.657  1.00  0.00     0.968 C  
HETATM    7  C   UNL     1      -6.763  10.227  66.172  1.00  0.00    -0.110 C  
HETATM    8  C   UNL     1      -6.172  10.292  67.580  1.00  0.00    -0.057 C  
HETATM    9  C   UNL     1      -5.724   9.621  65.226  1.00  0.00    -0.064 C  
BRANCH   6  10
HETATM   10  O   UNL     1      -8.269  12.176  66.624  1.00  0.00    -0.129 OA 
BRANCH  10  11
HETATM   11  P   UNL     1      -8.813  11.193  67.855  1.00  0.00    -0.146 P  
HETATM   12  O   UNL     1      -9.859  10.529  66.927  1.00  0.00    -0.181 OA 
BRANCH  11  13
HETATM   13  C   UNL     1     -10.222  12.251  68.727  1.00  0.00    -0.102 C  
BRANCH  13  14
HETATM   14  C   UNL     1     -11.523  11.458  68.897  1.00  0.00    -0.363 C  
BRANCH  14  15
HETATM   15  C   UNL     1     -11.318  10.010  69.302  1.00  0.00    -0.169 C  
BRANCH  15  16
HETATM   16  C   UNL     1     -11.032   9.942  70.811  1.00  0.00    -0.407 C  
BRANCH  16  17
HETATM   17  C   UNL     1     -10.695   8.536  71.222  1.00  0.00    -0.302 A  
HETATM   18  C   UNL     1     -10.416   8.232  72.561  1.00  0.00    -0.406 A  
HETATM   19  C   UNL     1     -10.717   7.508  70.272  1.00  0.00    -0.247 A  
HETATM   20  C   UNL     1     -10.189   5.894  71.992  1.00  0.00    -0.237 A  
HETATM   21  C   UNL     1     -10.157   6.910  72.940  1.00  0.00    -0.212 A  
HETATM   22  C   UNL     1     -10.469   6.192  70.661  1.00  0.00    -0.292 A  
ENDBRANCH  16  17
ENDBRANCH  15  16
ENDBRANCH  14  15
ENDBRANCH  13  14
ENDBRANCH  11  13
BRANCH  11  23
HETATM   23  C   UNL     1      -7.576  11.979  68.952  1.00  0.00    -0.016 C  
BRANCH  23  24
HETATM   24  C   UNL     1      -7.063  13.342  68.453  1.00  0.00    -0.108 C  
HETATM   25  C   UNL     1      -7.372  15.758  67.862  1.00  0.00    -0.136 C  
HETATM   26  O   UNL     1      -5.920  13.432  67.987  1.00  0.00    -0.101 OA 
HETATM   27  N   UNL     1      -7.794  14.506  68.541  1.00  0.00    -0.129 N  
HETATM   28  C   UNL     1      -6.160  16.548  68.429  1.00  0.00    -0.127 C  
HETATM   29  O   UNL     1      -6.028  17.763  68.325  1.00  0.00    -0.162 OA 
HETATM   30  C   UNL     1      -8.879  14.813  69.453  1.00  0.00     0.043 C  
HETATM   31  C   UNL     1      -9.662  15.969  68.806  1.00  0.00    -0.226 C  
HETATM   32  O   UNL     1      -5.172  15.784  68.940  1.00  0.00    -0.101 OA 
HETATM   33  C   UNL     1      -8.621  16.659  67.898  1.00  0.00    -0.196 C  
BRANCH  31  34
HETATM   34  C   UNL     1     -10.945  15.571  68.012  1.00  0.00    -0.311 C  
HETATM   35  C   UNL     1     -10.769  17.346  66.206  1.00  0.00    -0.082 C  
HETATM   36  C   UNL     1     -10.458  16.307  65.134  1.00  0.00    -0.254 C  
HETATM   37  C   UNL     1      -9.906  15.005  65.710  1.00  0.00    -0.386 C  
HETATM   38  C   UNL     1     -11.641  16.744  67.302  1.00  0.00     0.747 C  
HETATM   39  C   UNL     1     -10.673  14.491  66.934  1.00  0.00    -0.288 C  
ENDBRANCH  31  34
ENDBRANCH  23  24
ENDBRANCH  11  23
ENDBRANCH  10  11
ENDBRANCH   6  10
ENDBRANCH   5   6
ENDBRANCH   3   5
ENDBRANCH   2   3
TORSDOF 13
ENDMDL
MODEL      334
REMARK 921   NORMALIZED FREE ENERGY PREDICTED BY IDOCK:    4.80 KCAL/MOL
REMARK 922        TOTAL FREE ENERGY PREDICTED BY IDOCK:    5.98 KCAL/MOL
REMARK 923 INTER-LIGAND FREE ENERGY PREDICTED BY IDOCK:   -4.96 KCAL/MOL
REMARK 924 INTRA-LIGAND FREE ENERGY PREDICTED BY IDOCK:   10.94 KCAL/MOL
REMARK 927      BINDING AFFINITY PREDICTED BY RF-SCORE:    0.00 PKD
ROOT
HETATM    1  C   UNL     1     -13.194  11.434  70.261  1.00  0.00     0.553 C  
HETATM    2  C   UNL     1     -11.942  11.893  69.537  1.00  0.00    -0.355 C  
ENDROOT
BRANCH   2   3
HETATM    3  C   UNL     1     -11.921  13.315  68.982  1.00  0.00    -0.293 C  
HETATM    4  O   UNL     1     -11.512  14.270  69.635  1.00  0.00    -0.263 OA 
BRANCH   3   5
HETATM    5  O   UNL     1     -12.287  13.374  67.678  1.00  0.00    -0.228 OA 
BRANCH   5   6
HETATM    6  C   UNL     1     -11.234  13.412  66.664  1.00  0.00    -0.309 C  
HETATM    7  C   UNL     1     -10.463  12.044  66.740  1.00  0.00    -0.243 C  
HETATM    8  C   UNL     1      -9.304  11.928  65.751  1.00  0.00    -0.165 C  
HETATM    9  C   UNL     1     -11.379  10.830  66.576  1.00  0.00     0.235 C  
BRANCH   6  10
HETATM   10  O   UNL     1     -10.315  14.544  66.747  1.00  0.00    -0.264 OA 
BRANCH  10  11
HETATM   11  P   UNL     1      -8.833  14.282  67.463  1.00  0.00    -0.225 P  
HETATM   12  O   UNL     1      -8.413  13.299  66.343  1.00  0.00     0.166 OA 
BRANCH  11  13
HETATM   13  C   UNL     1      -9.153  12.782  68.692  1.00  0.00     0.048 C  
BRANCH  13  14
HETATM   14  C   UNL     1      -8.077  11.696  68.578  1.00  0.00    -0.145 C  
BRANCH  14  15
HETATM   15  C   UNL     1      -7.061  11.708  69.706  1.00  0.00     0.229 C  
BRANCH  15  16
HETATM   16  C   UNL     1      -6.313  10.365  69.726  1.00  0.00    -0.079 C  
BRANCH  16  17
HETATM   17  C   UNL     1      -6.335   9.728  68.365  1.00  0.00    -0.054 A  
HETATM   18  C   UNL     1      -7.073   8.559  68.138  1.00  0.00    -0.085 A  
HETATM   19  C   UNL     1      -5.663  10.337  67.299  1.00  0.00    -0.045 A  
HETATM   20  C   UNL     1      -6.465   8.621  65.799  1.00  0.00    -0.056 A  
HETATM   21  C   UNL     1      -7.129   8.004  66.853  1.00  0.00    -0.081 A  
HETATM   22  C   UNL     1      -5.734   9.784  66.021  1.00  0.00    -0.057 A  
ENDBRANCH  16  17
ENDBRANCH  15  16
ENDBRANCH  14  15
ENDBRANCH  13  14
ENDBRANCH  11  13
BRANCH  11  23
HETATM   23  C   UNL     1      -9.331  15.443  68.786  1.00  0.00    -0.209 C  
BRANCH  23  24
HETATM   24  C   UNL     1      -9.692  16.855  68.287  1.00  0.00    -0.256 C  
HETATM   25  C   UNL     1      -9.154  19.015  67.135  1.00  0.00    -0.283 C  
HETATM   26  O   UNL     1     -10.768  17.366  68.623  1.00  0.00    -0.335 OA 
HETATM   27  N   UNL     1      -8.896  17.582  67.429  1.00  0.00    -0.227 N  
HETATM   28  C   UNL     1     -10.364  19.392  66.235  1.00  0.00    -0.493 C  
HETATM   29  O   UNL     1     -10.400  20.388  65.521  1.00  0.00    -0.241 OA 
HETATM   30  C   UNL     1      -7.899  17.088  66.500  1.00  0.00    -0.296 C  
HETATM   31  C   UNL     1      -6.972  18.279  66.199  1.00  0.00    -0.301 C  
HETATM   32  O   UNL     1     -11.453  18.608  66.389  1.00  0.00     0.792 OA 
HETATM   33  C   UNL     1      -7.857  19.514  66.469  1.00  0.00    -0.305 C  
BRANCH  31  34
HETATM   34  C   UNL     1      -5.641  18.336  67.010  1.00  0.00    -0.155 C  
HETATM   35  C   UNL     1      -6.676  18.645  69.307  1.00  0.00    -0.266 C  
HETATM   36  C   UNL     1      -6.240  17.254  69.754  1.00  0.00    -0.199 C  
HETATM   37  C   UNL     1      -5.973  16.309  68.585  1.00  0.00    -0.109 C  
HETATM   38  C   UNL     1      -5.705  19.207  68.275  1.00  0.00    -0.211 C  
HETATM   39  C   UNL     1      -5.148  16.935  67.454  1.00  0.00    -0.150 C  
ENDBRANCH  31  34
ENDBRANCH  23  24
ENDBRANCH  11  23
ENDBRANCH  10  11
ENDBRANCH   6  10
ENDBRANCH   5   6
ENDBRANCH   3   5
ENDBRANCH   2   3
TORSDOF 13
ENDMDL
MODEL      335
REMARK 921   NORMALIZED FREE ENERGY PREDICTED BY IDOCK:    4.84 KCAL/MOL
REMARK 922        TOTAL FREE ENERGY PREDICTED BY IDOCK:    6.05 KCAL/MOL
REMARK 923 INTER-LIGAND FREE ENERGY PREDICTED BY IDOCK:    6.63 KCAL/MOL
REMARK 924 INTRA-LIGAND FREE ENERGY PREDICTED BY IDOCK:   -0.58 KCAL/MOL
REMARK 927      BINDING AFFINITY PREDICTED BY RF-SCORE:    0.00 PKD
ROOT
HETATM    1  C   UNL     1      -6.727  14.954  71.739  1.00  0.00     1.467 C  
HETATM    2  C   UNL     1      -7.389  15.063  70.378  1.00  0.00     0.482 C  
ENDROOT
BRANCH   2   3
HETATM    3  C   UNL     1      -8.906  14.908  70.307  1.00  0.00     0.983 C  
HETATM    4  O   UNL     1      -9.624  15.012  71.296  1.00  0.00     1.529 OA 
BRANCH   3   5
HETATM    5  O   UNL     1      -9.359  14.763  69.038  1.00  0.00    -0.206 OA 
BRANCH   5   6
HETATM    6  C   UNL     1      -8.594  13.918  68.121  1.00  0.00    -0.180 C  
HETATM    7  C   UNL     1      -8.717  14.555  66.688  1.00  0.00    -0.162 C  
HETATM    8  C   UNL     1      -7.986  13.774  65.597  1.00  0.00     3.962 C  
HETATM    9  C   UNL     1      -8.265  16.015  66.641  1.00  0.00    -0.324 C  
BRANCH   6  10
HETATM   10  O   UNL     1      -8.961  12.505  68.106  1.00  0.00    -0.191 OA 
BRANCH  10  11
HETATM   11  P   UNL     1      -9.316  11.787  69.567  1.00  0.00     1.687 P  
HETATM   12  O   UNL     1      -7.838  11.872  70.021  1.00  0.00     1.142 OA 
BRANCH  11  13
HETATM   13  C   UNL     1      -9.121   9.862  69.216  1.00  0.00    -0.189 C  
BRANCH  13  14
HETATM   14  C   UNL     1      -7.810   9.531  68.496  1.00  0.00    -0.085 C  
BRANCH  14  15
HETATM   15  C   UNL     1      -7.200   8.200  68.897  1.00  0.00    -0.078 C  
BRANCH  15  16
HETATM   16  C   UNL     1      -6.930   8.203  70.410  1.00  0.00    -0.037 C  
BRANCH  16  17
HETATM   17  C   UNL     1      -6.558   6.826  70.883  1.00  0.00    -0.053 A  
HETATM   18  C   UNL     1      -6.126   5.853  69.972  1.00  0.00    -0.026 A  
HETATM   19  C   UNL     1      -6.583   6.527  72.250  1.00  0.00    -0.059 A  
HETATM   20  C   UNL     1      -5.752   4.305  71.791  1.00  0.00    -0.012 A  
HETATM   21  C   UNL     1      -5.731   4.590  70.430  1.00  0.00    -0.013 A  
HETATM   22  C   UNL     1      -6.177   5.271  72.698  1.00  0.00    -0.038 A  
ENDBRANCH  16  17
ENDBRANCH  15  16
ENDBRANCH  14  15
ENDBRANCH  13  14
ENDBRANCH  11  13
BRANCH  11  23
HETATM   23  C   UNL     1     -11.062  11.685  69.030  1.00  0.00    -0.241 C  
BRANCH  23  24
HETATM   24  C   UNL     1     -11.291  12.049  67.551  1.00  0.00    -0.319 C  
HETATM   25  C   UNL     1     -11.008  11.658  65.091  1.00  0.00    -0.266 C  
HETATM   26  O   UNL     1     -11.822  13.129  67.261  1.00  0.00    -0.358 OA 
HETATM   27  N   UNL     1     -10.982  11.206  66.506  1.00  0.00    -0.249 N  
HETATM   28  C   UNL     1     -12.381  11.904  64.406  1.00  0.00    -0.154 C  
HETATM   29  O   UNL     1     -12.577  11.771  63.203  1.00  0.00    -0.514 OA 
HETATM   30  C   UNL     1     -10.848   9.763  66.532  1.00  0.00     0.123 C  
HETATM   31  C   UNL     1     -10.005   9.392  65.298  1.00  0.00     0.079 C  
HETATM   32  O   UNL     1     -13.336  12.412  65.214  1.00  0.00    -0.080 OA 
HETATM   33  C   UNL     1     -10.249  10.561  64.319  1.00  0.00    -0.314 C  
BRANCH  31  34
HETATM   34  C   UNL     1      -8.483   9.160  65.550  1.00  0.00    -0.160 C  
HETATM   35  C   UNL     1      -7.989   7.911  63.396  1.00  0.00    -0.125 C  
HETATM   36  C   UNL     1      -7.154   9.064  62.851  1.00  0.00    -0.091 C  
HETATM   37  C   UNL     1      -7.483  10.402  63.511  1.00  0.00    -0.036 C  
HETATM   38  C   UNL     1      -7.925   7.873  64.918  1.00  0.00    -0.138 C  
HETATM   39  C   UNL     1      -7.605  10.329  65.038  1.00  0.00    -0.124 C  
ENDBRANCH  31  34
ENDBRANCH  23  24
ENDBRANCH  11  23
ENDBRANCH  10  11
ENDBRANCH   6  10
ENDBRANCH   5   6
ENDBRANCH   3   5
ENDBRANCH   2   3
TORSDOF 13
ENDMDL
MODEL      336
REMARK 921   NORMALIZED FREE ENERGY PREDICTED BY IDOCK:    5.23 KCAL/MOL
REMARK 922        TOTAL FREE ENERGY PREDICTED BY IDOCK:    6.73 KCAL/MOL
REMARK 923 INTER-LIGAND FREE ENERGY PREDICTED BY IDOCK:   -0.20 KCAL/MOL
REMARK 924 INTRA-LIGAND FREE ENERGY PREDICTED BY IDOCK:    6.93 KCAL/MOL
REMARK 927      BINDING AFFINITY PREDICTED BY RF-SCORE:    0.00 PKD
ROOT
HETATM    1  C   UNL     1     -10.126  18.449  65.793  1.00  0.00    -0.021 C  
HETATM    2  C   UNL     1      -9.658  17.757  67.060  1.00  0.00    -0.284 C  
ENDROOT
BRANCH   2   3
HETATM    3  C   UNL     1      -8.339  16.990  67.008  1.00  0.00    -0.203 C  
HETATM    4  O   UNL     1      -8.037  16.264  66.066  1.00  0.00    -0.219 OA 
BRANCH   3   5
HETATM    5  O   UNL     1      -7.516  17.293  68.042  1.00  0.00    -0.184 OA 
BRANCH   5   6
HETATM    6  C   UNL     1      -7.556  16.443  69.231  1.00  0.00    -0.180 C  
HETATM    7  C   UNL     1      -6.575  15.240  68.980  1.00  0.00    -0.118 C  
HETATM    8  C   UNL     1      -6.515  14.236  70.129  1.00  0.00    -0.110 C  
HETATM    9  C   UNL     1      -5.153  15.688  68.637  1.00  0.00    -0.093 C  
BRANCH   6  10
HETATM   10  O   UNL     1      -8.880  15.973  69.630  1.00  0.00    -0.147 OA 
BRANCH  10  11
HETATM   11  P   UNL     1      -9.669  14.930  68.598  1.00  0.00    -0.232 P  
HETATM   12  O   UNL     1     -10.886  15.881  68.492  1.00  0.00    -0.267 OA 
BRANCH  11  13
HETATM   13  C   UNL     1     -10.674  13.738  69.795  1.00  0.00     0.329 C  
BRANCH  13  14
HETATM   14  C   UNL     1     -11.420  12.639  69.031  1.00  0.00    -0.354 C  
BRANCH  14  15
HETATM   15  C   UNL     1     -12.782  12.297  69.607  1.00  0.00     0.554 C  
BRANCH  15  16
HETATM   16  C   UNL     1     -12.666  12.162  71.134  1.00  0.00    -0.351 C  
BRANCH  16  17
HETATM   17  C   UNL     1     -12.897  13.489  71.800  1.00  0.00    -0.399 A  
HETATM   18  C   UNL     1     -14.196  13.990  71.958  1.00  0.00    -0.585 A  
HETATM   19  C   UNL     1     -11.814  14.205  72.323  1.00  0.00     0.520 A  
HETATM   20  C   UNL     1     -13.322  15.903  73.151  1.00  0.00    -0.681 A  
HETATM   21  C   UNL     1     -14.403  15.202  72.628  1.00  0.00    -0.104 A  
HETATM   22  C   UNL     1     -12.031  15.405  72.999  1.00  0.00    -0.557 A  
ENDBRANCH  16  17
ENDBRANCH  15  16
ENDBRANCH  14  15
ENDBRANCH  13  14
ENDBRANCH  11  13
BRANCH  11  23
HETATM   23  C   UNL     1      -8.230  13.806  68.724  1.00  0.00    -0.002 C  
BRANCH  23  24
HETATM   24  C   UNL     1      -8.504  12.371  68.237  1.00  0.00    -0.170 C  
HETATM   25  C   UNL     1      -9.511  10.711  66.652  1.00  0.00    -0.167 C  
HETATM   26  O   UNL     1      -8.175  11.411  68.946  1.00  0.00    -0.133 OA 
HETATM   27  N   UNL     1      -9.058  12.079  67.010  1.00  0.00    -0.185 N  
HETATM   28  C   UNL     1      -8.445   9.618  66.362  1.00  0.00    -0.123 C  
HETATM   29  O   UNL     1      -8.625   8.673  65.601  1.00  0.00    -0.149 OA 
HETATM   30  C   UNL     1      -9.065  12.900  65.815  1.00  0.00     0.370 C  
HETATM   31  C   UNL     1     -10.220  12.373  64.945  1.00  0.00    -0.301 C  
HETATM   32  O   UNL     1      -7.327   9.701  67.115  1.00  0.00    -0.087 OA 
HETATM   33  C   UNL     1     -10.386  10.906  65.399  1.00  0.00    -0.326 C  
BRANCH  31  34
HETATM   34  C   UNL     1     -11.564  13.159  65.036  1.00  0.00    -0.354 C  
HETATM   35  C   UNL     1     -12.320  12.782  62.642  1.00  0.00     1.081 C  
HETATM   36  C   UNL     1     -13.464  11.876  63.084  1.00  0.00     0.960 C  
HETATM   37  C   UNL     1     -13.243  11.272  64.470  1.00  0.00     2.819 C  
HETATM   38  C   UNL     1     -12.005  13.816  63.717  1.00  0.00    -0.365 C  
HETATM   39  C   UNL     1     -12.745  12.277  65.515  1.00  0.00     0.620 C  
ENDBRANCH  31  34
ENDBRANCH  23  24
ENDBRANCH  11  23
ENDBRANCH  10  11
ENDBRANCH   6  10
ENDBRANCH   5   6
ENDBRANCH   3   5
ENDBRANCH   2   3
TORSDOF 13
ENDMDL
MODEL      337
REMARK 921   NORMALIZED FREE ENERGY PREDICTED BY IDOCK:    5.28 KCAL/MOL
REMARK 922        TOTAL FREE ENERGY PREDICTED BY IDOCK:    6.84 KCAL/MOL
REMARK 923 INTER-LIGAND FREE ENERGY PREDICTED BY IDOCK:    2.67 KCAL/MOL
REMARK 924 INTRA-LIGAND FREE ENERGY PREDICTED BY IDOCK:    4.17 KCAL/MOL
REMARK 927      BINDING AFFINITY PREDICTED BY RF-SCORE:    0.00 PKD
ROOT
HETATM    1  C   UNL     1     -12.535  13.212  63.364  1.00  0.00    -0.328 C  
HETATM    2  C   UNL     1     -12.212  12.194  64.443  1.00  0.00    -0.435 C  
ENDROOT
BRANCH   2   3
HETATM    3  C   UNL     1     -11.542  10.890  64.015  1.00  0.00     1.091 C  
HETATM    4  O   UNL     1     -11.314  10.622  62.841  1.00  0.00     1.061 OA 
BRANCH   3   5
HETATM    5  O   UNL     1     -11.136  10.141  65.069  1.00  0.00     0.781 OA 
BRANCH   5   6
HETATM    6  C   UNL     1     -10.118  10.694  65.962  1.00  0.00    -0.250 C  
HETATM    7  C   UNL     1      -8.728  10.527  65.245  1.00  0.00    -0.200 C  
HETATM    8  C   UNL     1      -7.542  11.039  66.061  1.00  0.00    -0.042 C  
HETATM    9  C   UNL     1      -8.689  11.167  63.857  1.00  0.00     0.168 C  
BRANCH   6  10
HETATM   10  O   UNL     1     -10.088  10.138  67.312  1.00  0.00    -0.186 OA 
BRANCH  10  11
HETATM   11  P   UNL     1      -9.691  11.168  68.560  1.00  0.00    -0.185 P  
HETATM   12  O   UNL     1     -11.166  11.604  68.733  1.00  0.00    -0.205 OA 
BRANCH  11  13
HETATM   13  C   UNL     1      -9.269  12.867  67.665  1.00  0.00    -0.193 C  
BRANCH  13  14
HETATM   14  C   UNL     1     -10.405  13.342  66.752  1.00  0.00    -0.263 C  
BRANCH  14  15
HETATM   15  C   UNL     1     -10.148  14.684  66.089  1.00  0.00    -0.316 C  
BRANCH  15  16
HETATM   16  C   UNL     1     -10.586  15.810  67.039  1.00  0.00    -0.316 C  
BRANCH  16  17
HETATM   17  C   UNL     1     -10.979  15.249  68.377  1.00  0.00    -0.271 A  
HETATM   18  C   UNL     1     -10.133  15.388  69.485  1.00  0.00    -0.278 A  
HETATM   19  C   UNL     1     -12.227  14.634  68.536  1.00  0.00    -0.135 A  
HETATM   20  C   UNL     1     -11.778  14.307  70.888  1.00  0.00    -0.242 A  
HETATM   21  C   UNL     1     -10.534  14.909  70.737  1.00  0.00     0.331 A  
HETATM   22  C   UNL     1     -12.622  14.170  69.790  1.00  0.00    -0.151 A  
ENDBRANCH  16  17
ENDBRANCH  15  16
ENDBRANCH  14  15
ENDBRANCH  13  14
ENDBRANCH  11  13
BRANCH  11  23
HETATM   23  C   UNL     1      -7.947  10.653  68.354  1.00  0.00    -0.120 C  
BRANCH  23  24
HETATM   24  C   UNL     1      -7.518   9.491  69.270  1.00  0.00    -0.078 C  
HETATM   25  C   UNL     1      -7.541   7.087  69.977  1.00  0.00    -0.099 C  
HETATM   26  O   UNL     1      -6.874   9.730  70.300  1.00  0.00    -0.091 OA 
HETATM   27  N   UNL     1      -7.768   8.167  68.984  1.00  0.00    -0.098 N  
HETATM   28  C   UNL     1      -6.083   6.674  70.318  1.00  0.00    -0.027 C  
HETATM   29  O   UNL     1      -5.758   5.546  70.676  1.00  0.00    -0.015 OA 
HETATM   30  C   UNL     1      -8.017   7.566  67.688  1.00  0.00    -0.117 C  
HETATM   31  C   UNL     1      -8.736   6.234  67.970  1.00  0.00    -0.114 C  
HETATM   32  O   UNL     1      -5.192   7.688  70.324  1.00  0.00    -0.023 OA 
HETATM   33  C   UNL     1      -8.288   5.868  69.402  1.00  0.00    -0.114 C  
BRANCH  31  34
HETATM   34  C   UNL     1     -10.291   6.251  67.840  1.00  0.00    -0.239 C  
HETATM   35  C   UNL     1     -10.398   6.622  65.331  1.00  0.00     2.299 C  
HETATM   36  C   UNL     1     -10.950   5.221  65.089  1.00  0.00     1.001 C  
HETATM   37  C   UNL     1     -10.641   4.254  66.230  1.00  0.00     0.316 C  
HETATM   38  C   UNL     1     -10.822   7.138  66.701  1.00  0.00     0.016 C  
HETATM   39  C   UNL     1     -10.891   4.838  67.626  1.00  0.00     0.728 C  
ENDBRANCH  31  34
ENDBRANCH  23  24
ENDBRANCH  11  23
ENDBRANCH  10  11
ENDBRANCH   6  10
ENDBRANCH   5   6
ENDBRANCH   3   5
ENDBRANCH   2   3
TORSDOF 13
ENDMDL
MODEL      338
REMARK 921   NORMALIZED FREE ENERGY PREDICTED BY IDOCK:    5.49 KCAL/MOL
REMARK 922        TOTAL FREE ENERGY PREDICTED BY IDOCK:    7.20 KCAL/MOL
REMARK 923 INTER-LIGAND FREE ENERGY PREDICTED BY IDOCK:    4.73 KCAL/MOL
REMARK 924 INTRA-LIGAND FREE ENERGY PREDICTED BY IDOCK:    2.47 KCAL/MOL
REMARK 927      BINDING AFFINITY PREDICTED BY RF-SCORE:    0.00 PKD
ROOT
HETATM    1  C   UNL     1     -12.251  11.392  68.889  1.00  0.00    -0.153 C  
HETATM    2  C   UNL     1     -13.223  10.281  69.243  1.00  0.00     2.247 C  
ENDROOT
BRANCH   2   3
HETATM    3  C   UNL     1     -12.701   9.118  70.083  1.00  0.00     0.958 C  
HETATM    4  O   UNL     1     -12.208   8.113  69.580  1.00  0.00     1.061 OA 
BRANCH   3   5
HETATM    5  O   UNL     1     -12.738   9.374  71.413  1.00  0.00    -0.318 OA 
BRANCH   5   6
HETATM    6  C   UNL     1     -11.914  10.465  71.933  1.00  0.00     0.341 C  
HETATM    7  C   UNL     1     -12.568  11.812  71.455  1.00  0.00    -0.367 C  
HETATM    8  C   UNL     1     -11.810  13.063  71.898  1.00  0.00     1.812 C  
HETATM    9  C   UNL     1     -14.034  11.947  71.871  1.00  0.00     0.591 C  
BRANCH   6  10
HETATM   10  O   UNL     1     -10.497  10.411  71.584  1.00  0.00     1.387 OA 
BRANCH  10  11
HETATM   11  P   UNL     1      -9.773   8.911  71.536  1.00  0.00    -0.251 P  
HETATM   12  O   UNL     1     -10.435   8.497  72.873  1.00  0.00    -0.174 OA 
BRANCH  11  13
HETATM   13  C   UNL     1      -8.050   9.180  72.445  1.00  0.00     0.771 C  
BRANCH  13  14
HETATM   14  C   UNL     1      -7.263   7.874  72.598  1.00  0.00    -0.106 C  
BRANCH  14  15
HETATM   15  C   UNL     1      -7.301   7.287  73.998  1.00  0.00    -0.117 C  
BRANCH  15  16
HETATM   16  C   UNL     1      -7.127   5.762  73.912  1.00  0.00    -0.082 C  
BRANCH  16  17
HETATM   17  C   UNL     1      -8.243   5.148  73.116  1.00  0.00    -0.108 A  
HETATM   18  C   UNL     1      -9.574   5.280  73.535  1.00  0.00    -0.139 A  
HETATM   19  C   UNL     1      -7.962   4.489  71.913  1.00  0.00    -0.098 A  
HETATM   20  C   UNL     1     -10.322   4.104  71.559  1.00  0.00    -0.020 A  
HETATM   21  C   UNL     1     -10.610   4.750  72.756  1.00  0.00    -0.272 A  
HETATM   22  C   UNL     1      -9.001   3.975  71.139  1.00  0.00    -0.161 A  
ENDBRANCH  16  17
ENDBRANCH  15  16
ENDBRANCH  14  15
ENDBRANCH  13  14
ENDBRANCH  11  13
BRANCH  11  23
HETATM   23  C   UNL     1      -8.991   9.400  69.956  1.00  0.00    -0.212 C  
BRANCH  23  24
HETATM   24  C   UNL     1      -8.873   8.260  68.928  1.00  0.00    -0.140 C  
HETATM   25  C   UNL     1      -8.128   7.309  66.732  1.00  0.00    -0.119 C  
HETATM   26  O   UNL     1      -9.493   7.204  69.112  1.00  0.00    -0.148 OA 
HETATM   27  N   UNL     1      -8.062   8.322  67.816  1.00  0.00    -0.125 N  
HETATM   28  C   UNL     1      -7.556   5.888  66.995  1.00  0.00    -0.099 C  
HETATM   29  O   UNL     1      -7.087   5.168  66.119  1.00  0.00    -0.069 OA 
HETATM   30  C   UNL     1      -6.890   9.149  67.611  1.00  0.00    -0.077 C  
HETATM   31  C   UNL     1      -6.690   9.231  66.087  1.00  0.00    -0.074 C  
HETATM   32  O   UNL     1      -7.729   5.430  68.253  1.00  0.00    -0.080 OA 
HETATM   33  C   UNL     1      -7.367   7.949  65.555  1.00  0.00    -0.076 C  
BRANCH  31  34
HETATM   34  C   UNL     1      -7.248  10.509  65.388  1.00  0.00    -0.077 C  
HETATM   35  C   UNL     1      -9.265   9.423  64.294  1.00  0.00    -0.073 C  
HETATM   36  C   UNL     1     -10.234  10.173  65.202  1.00  0.00    -0.233 C  
HETATM   37  C   UNL     1      -9.583  10.659  66.495  1.00  0.00    -0.218 C  
HETATM   38  C   UNL     1      -7.996  10.237  64.072  1.00  0.00    -0.126 C  
HETATM   39  C   UNL     1      -8.212  11.316  66.294  1.00  0.00    -0.126 C  
ENDBRANCH  31  34
ENDBRANCH  23  24
ENDBRANCH  11  23
ENDBRANCH  10  11
ENDBRANCH   6  10
ENDBRANCH   5   6
ENDBRANCH   3   5
ENDBRANCH   2   3
TORSDOF 13
ENDMDL
MODEL      339
REMARK 921   NORMALIZED FREE ENERGY PREDICTED BY IDOCK:    6.49 KCAL/MOL
REMARK 922        TOTAL FREE ENERGY PREDICTED BY IDOCK:    8.97 KCAL/MOL
REMARK 923 INTER-LIGAND FREE ENERGY PREDICTED BY IDOCK:   -0.16 KCAL/MOL
REMARK 924 INTRA-LIGAND FREE ENERGY PREDICTED BY IDOCK:    9.13 KCAL/MOL
REMARK 927      BINDING AFFINITY PREDICTED BY RF-SCORE:    0.00 PKD
ROOT
HETATM    1  C   UNL     1      -6.580   8.626  67.606  1.00  0.00    -0.062 C  
HETATM    2  C   UNL     1      -6.635   9.682  66.517  1.00  0.00    -0.071 C  
ENDROOT
BRANCH   2   3
HETATM    3  C   UNL     1      -7.468   9.381  65.273  1.00  0.00    -0.100 C  
HETATM    4  O   UNL     1      -7.655   8.239  64.867  1.00  0.00    -0.087 OA 
BRANCH   3   5
HETATM    5  O   UNL     1      -8.056  10.488  64.756  1.00  0.00    -0.154 OA 
BRANCH   5   6
HETATM    6  C   UNL     1      -8.972  11.247  65.606  1.00  0.00    -0.163 C  
HETATM    7  C   UNL     1      -9.828  12.169  64.663  1.00  0.00    -0.153 C  
HETATM    8  C   UNL     1     -10.830  13.055  65.401  1.00  0.00    -0.304 C  
HETATM    9  C   UNL     1     -10.564  11.390  63.571  1.00  0.00    -0.468 C  
BRANCH   6  10
HETATM   10  O   UNL     1      -8.350  12.019  66.679  1.00  0.00    -0.165 OA 
BRANCH  10  11
HETATM   11  P   UNL     1      -6.845  12.671  66.384  1.00  0.00     2.456 P  
HETATM   12  O   UNL     1      -6.333  11.339  65.784  1.00  0.00     0.029 OA 
BRANCH  11  13
HETATM   13  C   UNL     1      -5.843  12.335  68.043  1.00  0.00    -0.064 C  
BRANCH  13  14
HETATM   14  C   UNL     1      -6.373  11.117  68.807  1.00  0.00    -0.046 C  
BRANCH  14  15
HETATM   15  C   UNL     1      -7.437  11.447  69.839  1.00  0.00     0.614 C  
BRANCH  15  16
HETATM   16  C   UNL     1      -8.028  10.140  70.391  1.00  0.00     0.242 C  
BRANCH  16  17
HETATM   17  C   UNL     1      -7.028   9.435  71.263  1.00  0.00     0.027 A  
HETATM   18  C   UNL     1      -6.461  10.086  72.367  1.00  0.00     1.321 A  
HETATM   19  C   UNL     1      -6.702   8.097  71.010  1.00  0.00    -0.042 A  
HETATM   20  C   UNL     1      -5.260   8.070  72.950  1.00  0.00    -0.037 A  
HETATM   21  C   UNL     1      -5.572   9.401  73.204  1.00  0.00     0.045 A  
HETATM   22  C   UNL     1      -5.824   7.420  71.856  1.00  0.00    -0.036 A  
ENDBRANCH  16  17
ENDBRANCH  15  16
ENDBRANCH  14  15
ENDBRANCH  13  14
ENDBRANCH  11  13
BRANCH  11  23
HETATM   23  C   UNL     1      -7.450  14.245  67.095  1.00  0.00     0.093 C  
BRANCH  23  24
HETATM   24  C   UNL     1      -8.708  14.102  67.972  1.00  0.00    -0.177 C  
HETATM   25  C   UNL     1     -10.664  15.036  69.230  1.00  0.00    -0.248 C  
HETATM   26  O   UNL     1      -8.993  13.000  68.458  1.00  0.00    -0.152 OA 
HETATM   27  N   UNL     1      -9.585  15.136  68.214  1.00  0.00    -0.207 N  
HETATM   28  C   UNL     1     -11.898  14.141  68.930  1.00  0.00    -0.347 C  
HETATM   29  O   UNL     1     -13.019  14.350  69.382  1.00  0.00     0.264 OA 
HETATM   30  C   UNL     1      -9.804  16.327  67.417  1.00  0.00    -0.242 C  
HETATM   31  C   UNL     1     -10.453  17.356  68.360  1.00  0.00    -0.384 C  
HETATM   32  O   UNL     1     -11.629  13.017  68.232  1.00  0.00    -0.295 OA 
HETATM   33  C   UNL     1     -11.134  16.488  69.441  1.00  0.00    -0.253 C  
BRANCH  31  34
HETATM   34  C   UNL     1      -9.494  18.412  68.990  1.00  0.00    -0.163 C  
HETATM   35  C   UNL     1      -8.859  19.594  66.835  1.00  0.00    -0.387 C  
HETATM   36  C   UNL     1      -9.612  20.857  67.238  1.00  0.00    -0.386 C  
HETATM   37  C   UNL     1     -10.690  20.598  68.289  1.00  0.00     0.386 C  
HETATM   38  C   UNL     1      -8.346  18.857  68.068  1.00  0.00    -0.325 C  
HETATM   39  C   UNL     1     -10.231  19.698  69.443  1.00  0.00    -0.118 C  
ENDBRANCH  31  34
ENDBRANCH  23  24
ENDBRANCH  11  23
ENDBRANCH  10  11
ENDBRANCH   6  10
ENDBRANCH   5   6
ENDBRANCH   3   5
ENDBRANCH   2   3
TORSDOF 13
ENDMDL
MODEL      340
REMARK 921   NORMALIZED FREE ENERGY PREDICTED BY IDOCK:    7.45 KCAL/MOL
REMARK 922        TOTAL FREE ENERGY PREDICTED BY IDOCK:   10.65 KCAL/MOL
REMARK 923 INTER-LIGAND FREE ENERGY PREDICTED BY IDOCK:    9.41 KCAL/MOL
REMARK 924 INTRA-LIGAND FREE ENERGY PREDICTED BY IDOCK:    1.24 KCAL/MOL
REMARK 927      BINDING AFFINITY PREDICTED BY RF-SCORE:    0.00 PKD
ROOT
HETATM    1  C   UNL     1     -10.461  13.506  70.520  1.00  0.00     2.460 C  
HETATM    2  C   UNL     1      -9.642  12.229  70.569  1.00  0.00     5.784 C  
ENDROOT
BRANCH   2   3
HETATM    3  C   UNL     1      -8.209  12.280  70.046  1.00  0.00     2.935 C  
HETATM    4  O   UNL     1      -7.235  12.158  70.781  1.00  0.00     1.895 OA 
BRANCH   3   5
HETATM    5  O   UNL     1      -8.148  12.356  68.694  1.00  0.00    -0.114 OA 
BRANCH   5   6
HETATM    6  C   UNL     1      -6.879  12.041  68.039  1.00  0.00    -0.078 C  
HETATM    7  C   UNL     1      -6.509  13.265  67.124  1.00  0.00     0.354 C  
HETATM    8  C   UNL     1      -5.208  13.087  66.343  1.00  0.00     2.295 C  
HETATM    9  C   UNL     1      -6.451  14.589  67.889  1.00  0.00    -0.175 C  
BRANCH   6  10
HETATM   10  O   UNL     1      -6.847  10.789  67.287  1.00  0.00    -0.075 OA 
BRANCH  10  11
HETATM   11  P   UNL     1      -8.173  10.423  66.347  1.00  0.00    -0.152 P  
HETATM   12  O   UNL     1      -7.440  10.865  65.057  1.00  0.00     0.102 OA 
BRANCH  11  13
HETATM   13  C   UNL     1      -9.232  12.079  66.342  1.00  0.00    -0.216 C  
BRANCH  13  14
HETATM   14  C   UNL     1     -10.688  11.840  66.754  1.00  0.00    -0.289 C  
BRANCH  14  15
HETATM   15  C   UNL     1     -11.523  13.105  66.848  1.00  0.00    -0.384 C  
BRANCH  15  16
HETATM   16  C   UNL     1     -10.881  14.199  65.979  1.00  0.00    -0.297 C  
BRANCH  16  17
HETATM   17  C   UNL     1     -10.604  15.428  66.798  1.00  0.00    -0.309 A  
HETATM   18  C   UNL     1     -10.373  16.662  66.176  1.00  0.00    -0.340 A  
HETATM   19  C   UNL     1     -10.637  15.357  68.195  1.00  0.00    -0.263 A  
HETATM   20  C   UNL     1     -10.211  17.732  68.337  1.00  0.00    -0.384 A  
HETATM   21  C   UNL     1     -10.170  17.810  66.950  1.00  0.00    -0.346 A  
HETATM   22  C   UNL     1     -10.444  16.508  68.958  1.00  0.00    -0.303 A  
ENDBRANCH  16  17
ENDBRANCH  15  16
ENDBRANCH  14  15
ENDBRANCH  13  14
ENDBRANCH  11  13
BRANCH  11  23
HETATM   23  C   UNL     1      -9.039   9.900  67.871  1.00  0.00    -0.131 C  
BRANCH  23  24
HETATM   24  C   UNL     1      -8.834   8.418  68.239  1.00  0.00    -0.139 C  
HETATM   25  C   UNL     1      -9.507   6.295  69.389  1.00  0.00    -0.139 C  
HETATM   26  O   UNL     1      -7.774   7.855  67.940  1.00  0.00    -0.119 OA 
HETATM   27  N   UNL     1      -9.799   7.648  68.850  1.00  0.00    -0.161 N  
HETATM   28  C   UNL     1      -9.287   5.122  68.395  1.00  0.00    -0.122 C  
HETATM   29  O   UNL     1      -9.546   3.951  68.652  1.00  0.00    -0.159 OA 
HETATM   30  C   UNL     1     -11.235   7.851  68.853  1.00  0.00     0.430 C  
HETATM   31  C   UNL     1     -11.772   7.067  70.064  1.00  0.00    -0.185 C  
HETATM   32  O   UNL     1      -8.656   5.458  67.249  1.00  0.00    -0.110 OA 
HETATM   33  C   UNL     1     -10.711   5.969  70.294  1.00  0.00    -0.367 C  
BRANCH  31  34
HETATM   34  C   UNL     1     -12.033   7.897  71.359  1.00  0.00    -0.331 C  
HETATM   35  C   UNL     1     -10.935   6.294  72.993  1.00  0.00    -0.271 C  
HETATM   36  C   UNL     1      -9.793   7.266  73.269  1.00  0.00    -0.302 C  
HETATM   37  C   UNL     1      -9.601   8.291  72.153  1.00  0.00    -0.338 C  
HETATM   38  C   UNL     1     -12.209   7.049  72.630  1.00  0.00     0.172 C  
HETATM   39  C   UNL     1     -10.907   8.920  71.653  1.00  0.00    -0.420 C  
ENDBRANCH  31  34
ENDBRANCH  23  24
ENDBRANCH  11  23
ENDBRANCH  10  11
ENDBRANCH   6  10
ENDBRANCH   5   6
ENDBRANCH   3   5
ENDBRANCH   2   3
TORSDOF 13
ENDMDL
MODEL      341
REMARK 921   NORMALIZED FREE ENERGY PREDICTED BY IDOCK:    7.50 KCAL/MOL
REMARK 922        TOTAL FREE ENERGY PREDICTED BY IDOCK:   10.73 KCAL/MOL
REMARK 923 INTER-LIGAND FREE ENERGY PREDICTED BY IDOCK:    3.47 KCAL/MOL
REMARK 924 INTRA-LIGAND FREE ENERGY PREDICTED BY IDOCK:    7.26 KCAL/MOL
REMARK 927      BINDING AFFINITY PREDICTED BY RF-SCORE:    0.00 PKD
ROOT
HETATM    1  C   UNL     1     -12.578  13.135  63.412  1.00  0.00    -0.172 C  
HETATM    2  C   UNL     1     -12.384  12.334  64.686  1.00  0.00    -0.449 C  
ENDROOT
BRANCH   2   3
HETATM    3  C   UNL     1     -11.862  10.905  64.558  1.00  0.00     1.467 C  
HETATM    4  O   UNL     1     -11.702  10.358  63.472  1.00  0.00     2.338 OA 
BRANCH   3   5
HETATM    5  O   UNL     1     -11.495  10.372  65.749  1.00  0.00     0.639 OA 
BRANCH   5   6
HETATM    6  C   UNL     1     -10.435  11.036  66.509  1.00  0.00    -0.257 C  
HETATM    7  C   UNL     1      -9.065  10.611  65.866  1.00  0.00    -0.201 C  
HETATM    8  C   UNL     1      -7.841  11.205  66.562  1.00  0.00    -0.151 C  
HETATM    9  C   UNL     1      -8.983  10.918  64.370  1.00  0.00    -0.121 C  
BRANCH   6  10
HETATM   10  O   UNL     1     -10.442  10.797  67.949  1.00  0.00    -0.179 OA 
BRANCH  10  11
HETATM   11  P   UNL     1      -9.870  12.013  68.934  1.00  0.00     0.277 P  
HETATM   12  O   UNL     1     -11.226  12.758  68.882  1.00  0.00    -0.256 OA 
BRANCH  11  13
HETATM   13  C   UNL     1      -9.082  13.311  67.686  1.00  0.00    -0.204 C  
BRANCH  13  14
HETATM   14  C   UNL     1     -10.024  13.649  66.525  1.00  0.00    -0.288 C  
BRANCH  14  15
HETATM   15  C   UNL     1      -9.536  14.783  65.640  1.00  0.00    -0.235 C  
BRANCH  15  16
HETATM   16  C   UNL     1      -9.920  16.126  66.281  1.00  0.00    -0.336 C  
BRANCH  16  17
HETATM   17  C   UNL     1     -10.470  15.913  67.663  1.00  0.00    -0.289 A  
HETATM   18  C   UNL     1      -9.710  16.248  68.792  1.00  0.00    -0.240 A  
HETATM   19  C   UNL     1     -11.774  15.434  67.829  1.00  0.00    -0.159 A  
HETATM   20  C   UNL     1     -11.552  15.626  70.228  1.00  0.00    -0.370 A  
HETATM   21  C   UNL     1     -10.253  16.096  70.073  1.00  0.00    -0.060 A  
HETATM   22  C   UNL     1     -12.311  15.297  69.109  1.00  0.00    -0.092 A  
ENDBRANCH  16  17
ENDBRANCH  15  16
ENDBRANCH  14  15
ENDBRANCH  13  14
ENDBRANCH  11  13
BRANCH  11  23
HETATM   23  C   UNL     1      -8.267  11.132  68.995  1.00  0.00    -0.062 C  
BRANCH  23  24
HETATM   24  C   UNL     1      -8.076  10.252  70.244  1.00  0.00     0.335 C  
HETATM   25  C   UNL     1      -8.589   8.244  71.654  1.00  0.00    -0.155 C  
HETATM   26  O   UNL     1      -7.382  10.664  71.183  1.00  0.00     0.918 OA 
HETATM   27  N   UNL     1      -8.601   8.984  70.366  1.00  0.00    -0.172 N  
HETATM   28  C   UNL     1      -7.244   7.672  72.180  1.00  0.00    -0.071 C  
HETATM   29  O   UNL     1      -7.155   6.671  72.883  1.00  0.00    -0.076 OA 
HETATM   30  C   UNL     1      -8.989   8.073  69.308  1.00  0.00    -0.148 C  
HETATM   31  C   UNL     1      -9.965   7.070  69.948  1.00  0.00    -0.183 C  
HETATM   32  O   UNL     1      -6.161   8.435  71.919  1.00  0.00    -0.050 OA 
HETATM   33  C   UNL     1      -9.582   7.084  71.444  1.00  0.00    -0.162 C  
BRANCH  31  34
HETATM   34  C   UNL     1     -11.483   7.359  69.739  1.00  0.00     0.038 C  
HETATM   35  C   UNL     1     -12.367   5.635  71.380  1.00  0.00     1.243 C  
HETATM   36  C   UNL     1     -12.863   6.714  72.336  1.00  0.00     0.181 C  
HETATM   37  C   UNL     1     -12.156   8.053  72.141  1.00  0.00    -0.391 C  
HETATM   38  C   UNL     1     -12.395   6.137  69.940  1.00  0.00     1.616 C  
HETATM   39  C   UNL     1     -12.016   8.475  70.673  1.00  0.00    -0.047 C  
ENDBRANCH  31  34
ENDBRANCH  23  24
ENDBRANCH  11  23
ENDBRANCH  10  11
ENDBRANCH   6  10
ENDBRANCH   5   6
ENDBRANCH   3   5
ENDBRANCH   2   3
TORSDOF 13
ENDMDL
MODEL      342
REMARK 921   NORMALIZED FREE ENERGY PREDICTED BY IDOCK:    7.62 KCAL/MOL
REMARK 922        TOTAL FREE ENERGY PREDICTED BY IDOCK:   10.95 KCAL/MOL
REMARK 923 INTER-LIGAND FREE ENERGY PREDICTED BY IDOCK:   -2.27 KCAL/MOL
REMARK 924 INTRA-LIGAND FREE ENERGY PREDICTED BY IDOCK:   13.21 KCAL/MOL
REMARK 927      BINDING AFFINITY PREDICTED BY RF-SCORE:    0.00 PKD
ROOT
HETATM    1  C   UNL     1      -6.943  17.320  66.858  1.00  0.00    -0.229 C  
HETATM    2  C   UNL     1      -7.158  17.779  68.289  1.00  0.00    -0.230 C  
ENDROOT
BRANCH   2   3
HETATM    3  C   UNL     1      -8.037  16.916  69.190  1.00  0.00    -0.082 C  
HETATM    4  O   UNL     1      -9.253  16.843  69.049  1.00  0.00    -0.252 OA 
BRANCH   3   5
HETATM    5  O   UNL     1      -7.318  16.169  70.064  1.00  0.00     0.186 OA 
BRANCH   5   6
HETATM    6  C   UNL     1      -7.530  14.722  70.077  1.00  0.00     0.173 C  
HETATM    7  C   UNL     1      -6.115  14.042  69.989  1.00  0.00    -0.148 C  
HETATM    8  C   UNL     1      -6.159  12.515  69.970  1.00  0.00    -0.117 C  
HETATM    9  C   UNL     1      -5.161  14.497  71.095  1.00  0.00    -0.139 C  
BRANCH   6  10
HETATM   10  O   UNL     1      -8.432  14.204  69.053  1.00  0.00    -0.054 OA 
BRANCH  10  11
HETATM   11  P   UNL     1      -9.977  14.825  69.003  1.00  0.00    -0.142 P  
HETATM   12  O   UNL     1     -10.246  14.401  70.467  1.00  0.00     0.725 OA 
BRANCH  11  13
HETATM   13  C   UNL     1     -11.075  13.332  68.345  1.00  0.00    -0.270 C  
BRANCH  13  14
HETATM   14  C   UNL     1     -10.436  11.969  68.632  1.00  0.00    -0.238 C  
BRANCH  14  15
HETATM   15  C   UNL     1     -10.180  11.702  70.105  1.00  0.00     1.705 C  
BRANCH  15  16
HETATM   16  C   UNL     1     -10.554  10.247  70.427  1.00  0.00    -0.212 C  
BRANCH  16  17
HETATM   17  C   UNL     1      -9.326   9.446  70.757  1.00  0.00    -0.292 A  
HETATM   18  C   UNL     1      -8.144   9.621  70.025  1.00  0.00    -0.190 A  
HETATM   19  C   UNL     1      -9.340   8.562  71.842  1.00  0.00    -0.337 A  
HETATM   20  C   UNL     1      -7.011   8.039  71.459  1.00  0.00    -0.060 A  
HETATM   21  C   UNL     1      -6.990   8.910  70.376  1.00  0.00    -0.052 A  
HETATM   22  C   UNL     1      -8.183   7.866  72.191  1.00  0.00    -0.160 A  
ENDBRANCH  16  17
ENDBRANCH  15  16
ENDBRANCH  14  15
ENDBRANCH  13  14
ENDBRANCH  11  13
BRANCH  11  23
HETATM   23  C   UNL     1      -9.660  15.325  67.272  1.00  0.00    -0.211 C  
BRANCH  23  24
HETATM   24  C   UNL     1     -10.430  14.502  66.223  1.00  0.00    -0.301 C  
HETATM   25  C   UNL     1     -10.784  12.457  64.817  1.00  0.00    -0.298 C  
HETATM   26  O   UNL     1     -11.355  15.029  65.590  1.00  0.00    -0.345 OA 
HETATM   27  N   UNL     1     -10.184  13.170  65.974  1.00  0.00    -0.281 N  
HETATM   28  C   UNL     1     -12.297  12.107  64.853  1.00  0.00    -0.179 C  
HETATM   29  O   UNL     1     -12.788  11.141  64.278  1.00  0.00     0.798 OA 
HETATM   30  C   UNL     1      -9.570  12.195  66.854  1.00  0.00    -0.206 C  
HETATM   31  C   UNL     1      -9.063  11.062  65.945  1.00  0.00    -0.214 C  
HETATM   32  O   UNL     1     -13.079  13.026  65.460  1.00  0.00    -0.494 OA 
HETATM   33  C   UNL     1      -9.969  11.155  64.698  1.00  0.00    -0.345 C  
BRANCH  31  34
HETATM   34  C   UNL     1      -7.551  11.109  65.564  1.00  0.00     0.293 C  
HETATM   35  C   UNL     1      -6.632  11.301  67.923  1.00  0.00    -0.059 C  
HETATM   36  C   UNL     1      -6.030   9.902  67.864  1.00  0.00    -0.043 C  
HETATM   37  C   UNL     1      -6.693   9.012  66.815  1.00  0.00    -0.076 C  
HETATM   38  C   UNL     1      -6.679  11.926  66.533  1.00  0.00     0.200 C  
HETATM   39  C   UNL     1      -6.913   9.701  65.463  1.00  0.00    -0.093 C  
ENDBRANCH  31  34
ENDBRANCH  23  24
ENDBRANCH  11  23
ENDBRANCH  10  11
ENDBRANCH   6  10
ENDBRANCH   5   6
ENDBRANCH   3   5
ENDBRANCH   2   3
TORSDOF 13
ENDMDL
MODEL      343
REMARK 921   NORMALIZED FREE ENERGY PREDICTED BY IDOCK:    9.04 KCAL/MOL
REMARK 922        TOTAL FREE ENERGY PREDICTED BY IDOCK:   13.45 KCAL/MOL
REMARK 923 INTER-LIGAND FREE ENERGY PREDICTED BY IDOCK:    4.26 KCAL/MOL
REMARK 924 INTRA-LIGAND FREE ENERGY PREDICTED BY IDOCK:    9.19 KCAL/MOL
REMARK 927      BINDING AFFINITY PREDICTED BY RF-SCORE:    0.00 PKD
ROOT
HETATM    1  C   UNL     1      -9.629  17.141  70.197  1.00  0.00     1.572 C  
HETATM    2  C   UNL     1      -8.727  16.103  69.554  1.00  0.00     0.033 C  
ENDROOT
BRANCH   2   3
HETATM    3  C   UNL     1      -7.370  15.839  70.201  1.00  0.00     0.473 C  
HETATM    4  O   UNL     1      -6.708  16.727  70.729  1.00  0.00     1.299 OA 
BRANCH   3   5
HETATM    5  O   UNL     1      -7.049  14.522  70.225  1.00  0.00    -0.011 OA 
BRANCH   5   6
HETATM    6  C   UNL     1      -6.881  13.826  68.950  1.00  0.00    -0.110 C  
HETATM    7  C   UNL     1      -7.439  14.772  67.825  1.00  0.00    -0.178 C  
HETATM    8  C   UNL     1      -7.359  14.181  66.418  1.00  0.00     2.350 C  
HETATM    9  C   UNL     1      -6.779  16.152  67.821  1.00  0.00    -0.169 C  
BRANCH   6  10
HETATM   10  O   UNL     1      -7.481  12.497  68.869  1.00  0.00    -0.084 OA 
BRANCH  10  11
HETATM   11  P   UNL     1      -6.457  11.185  68.946  1.00  0.00    -0.070 P  
HETATM   12  O   UNL     1      -5.243  12.091  69.264  1.00  0.00    -0.055 OA 
BRANCH  11  13
HETATM   13  C   UNL     1      -5.831  10.954  67.097  1.00  0.00    -0.058 C  
BRANCH  13  14
HETATM   14  C   UNL     1      -6.198   9.581  66.525  1.00  0.00    -0.065 C  
BRANCH  14  15
HETATM   15  C   UNL     1      -7.083   9.638  65.292  1.00  0.00    -0.109 C  
BRANCH  15  16
HETATM   16  C   UNL     1      -6.443   8.803  64.171  1.00  0.00    -0.072 C  
BRANCH  16  17
HETATM   17  C   UNL     1      -6.404   7.350  64.553  1.00  0.00    -0.040 A  
HETATM   18  C   UNL     1      -7.003   6.382  63.736  1.00  0.00    -0.043 A  
HETATM   19  C   UNL     1      -5.712   6.949  65.701  1.00  0.00    -0.031 A  
HETATM   20  C   UNL     1      -6.218   4.636  65.212  1.00  0.00    -0.034 A  
HETATM   21  C   UNL     1      -6.914   5.027  64.073  1.00  0.00    -0.048 A  
HETATM   22  C   UNL     1      -5.618   5.595  66.023  1.00  0.00    -0.013 A  
ENDBRANCH  16  17
ENDBRANCH  15  16
ENDBRANCH  14  15
ENDBRANCH  13  14
ENDBRANCH  11  13
BRANCH  11  23
HETATM   23  C   UNL     1      -7.892  10.114  68.570  1.00  0.00    -0.095 C  
BRANCH  23  24
HETATM   24  C   UNL     1      -9.184  10.502  69.314  1.00  0.00    -0.148 C  
HETATM   25  C   UNL     1     -11.349  11.748  69.515  1.00  0.00    -0.248 C  
HETATM   26  O   UNL     1      -9.346  10.141  70.486  1.00  0.00     0.117 OA 
HETATM   27  N   UNL     1     -10.216  11.199  68.726  1.00  0.00    -0.201 N  
HETATM   28  C   UNL     1     -12.414  10.770  70.083  1.00  0.00    -0.285 C  
HETATM   29  O   UNL     1     -13.586  11.073  70.276  1.00  0.00     0.581 OA 
HETATM   30  C   UNL     1     -10.538  11.300  67.316  1.00  0.00    -0.233 C  
HETATM   31  C   UNL     1     -11.402  12.565  67.167  1.00  0.00    -0.381 C  
HETATM   32  O   UNL     1     -11.930   9.574  70.483  1.00  0.00    -0.234 OA 
HETATM   33  C   UNL     1     -12.038  12.745  68.562  1.00  0.00    -0.142 C  
BRANCH  31  34
HETATM   34  C   UNL     1     -10.658  13.854  66.702  1.00  0.00    -0.274 C  
HETATM   35  C   UNL     1     -12.639  15.436  66.842  1.00  0.00     1.557 C  
HETATM   36  C   UNL     1     -12.033  16.183  68.025  1.00  0.00     0.430 C  
HETATM   37  C   UNL     1     -10.995  15.357  68.783  1.00  0.00    -0.264 C  
HETATM   38  C   UNL     1     -11.544  14.862  65.950  1.00  0.00    -0.228 C  
HETATM   39  C   UNL     1     -10.000  14.624  67.875  1.00  0.00    -0.221 C  
ENDBRANCH  31  34
ENDBRANCH  23  24
ENDBRANCH  11  23
ENDBRANCH  10  11
ENDBRANCH   6  10
ENDBRANCH   5   6
ENDBRANCH   3   5
ENDBRANCH   2   3
TORSDOF 13
ENDMDL
MODEL      344
REMARK 921   NORMALIZED FREE ENERGY PREDICTED BY IDOCK:    9.08 KCAL/MOL
REMARK 922        TOTAL FREE ENERGY PREDICTED BY IDOCK:   13.52 KCAL/MOL
REMARK 923 INTER-LIGAND FREE ENERGY PREDICTED BY IDOCK:    4.80 KCAL/MOL
REMARK 924 INTRA-LIGAND FREE ENERGY PREDICTED BY IDOCK:    8.72 KCAL/MOL
REMARK 927      BINDING AFFINITY PREDICTED BY RF-SCORE:    0.00 PKD
ROOT
HETATM    1  C   UNL     1      -8.039   7.360  69.206  1.00  0.00    -0.123 C  
HETATM    2  C   UNL     1      -9.160   6.959  70.146  1.00  0.00    -0.152 C  
ENDROOT
BRANCH   2   3
HETATM    3  C   UNL     1      -9.682   8.009  71.123  1.00  0.00    -0.160 C  
HETATM    4  O   UNL     1     -10.786   7.926  71.651  1.00  0.00    -0.216 OA 
BRANCH   3   5
HETATM    5  O   UNL     1      -8.756   8.955  71.418  1.00  0.00    -0.200 OA 
BRANCH   5   6
HETATM    6  C   UNL     1      -7.554   9.031  70.589  1.00  0.00    -0.119 C  
HETATM    7  C   UNL     1      -6.452   9.771  71.431  1.00  0.00     0.172 C  
HETATM    8  C   UNL     1      -5.126   9.955  70.695  1.00  0.00    -0.041 C  
HETATM    9  C   UNL     1      -6.181   9.104  72.781  1.00  0.00     0.151 C  
BRANCH   6  10
HETATM   10  O   UNL     1      -7.726   9.654  69.279  1.00  0.00    -0.083 OA 
BRANCH  10  11
HETATM   11  P   UNL     1      -8.638  11.046  69.202  1.00  0.00     0.193 P  
HETATM   12  O   UNL     1      -9.902  10.302  69.697  1.00  0.00    -0.230 OA 
BRANCH  11  13
HETATM   13  C   UNL     1      -9.338  11.062  67.365  1.00  0.00    -0.155 C  
BRANCH  13  14
HETATM   14  C   UNL     1     -10.282  12.243  67.112  1.00  0.00    -0.224 C  
BRANCH  14  15
HETATM   15  C   UNL     1      -9.798  13.205  66.042  1.00  0.00    -0.266 C  
BRANCH  15  16
HETATM   16  C   UNL     1      -9.702  12.462  64.699  1.00  0.00     0.008 C  
BRANCH  16  17
HETATM   17  C   UNL     1      -9.293  11.032  64.916  1.00  0.00    -0.243 A  
HETATM   18  C   UNL     1      -7.995  10.719  65.341  1.00  0.00    -0.027 A  
HETATM   19  C   UNL     1     -10.231  10.006  64.751  1.00  0.00     0.030 A  
HETATM   20  C   UNL     1      -8.582   8.375  65.432  1.00  0.00    -0.193 A  
HETATM   21  C   UNL     1      -7.642   9.387  65.591  1.00  0.00    -0.095 A  
HETATM   22  C   UNL     1      -9.873   8.684  65.014  1.00  0.00     1.156 A  
ENDBRANCH  16  17
ENDBRANCH  15  16
ENDBRANCH  14  15
ENDBRANCH  13  14
ENDBRANCH  11  13
BRANCH  11  23
HETATM   23  C   UNL     1      -7.144  11.925  68.617  1.00  0.00    -0.102 C  
BRANCH  23  24
HETATM   24  C   UNL     1      -6.521  12.876  69.656  1.00  0.00    -0.044 C  
HETATM   25  C   UNL     1      -6.376  15.066  70.867  1.00  0.00     0.237 C  
HETATM   26  O   UNL     1      -5.474  12.552  70.231  1.00  0.00    -0.108 OA 
HETATM   27  N   UNL     1      -7.096  14.070  70.032  1.00  0.00     0.203 N  
HETATM   28  C   UNL     1      -6.159  14.765  72.376  1.00  0.00     0.707 C  
HETATM   29  O   UNL     1      -6.071  15.631  73.239  1.00  0.00     1.556 OA 
HETATM   30  C   UNL     1      -8.490  14.458  69.941  1.00  0.00     0.868 C  
HETATM   31  C   UNL     1      -8.506  15.997  69.983  1.00  0.00     0.829 C  
HETATM   32  O   UNL     1      -5.937  13.466  72.670  1.00  0.00    -0.036 OA 
HETATM   33  C   UNL     1      -7.201  16.360  70.725  1.00  0.00     2.661 C  
BRANCH  31  34
HETATM   34  C   UNL     1      -8.606  16.721  68.606  1.00  0.00    -0.263 C  
HETATM   35  C   UNL     1     -10.019  18.684  69.377  1.00  0.00     0.029 C  
HETATM   36  C   UNL     1      -8.868  19.664  69.181  1.00  0.00    -0.070 C  
HETATM   37  C   UNL     1      -7.499  18.986  69.193  1.00  0.00    -0.270 C  
HETATM   38  C   UNL     1      -9.905  17.518  68.401  1.00  0.00    -0.325 C  
HETATM   39  C   UNL     1      -7.433  17.703  68.357  1.00  0.00    -0.253 C  
ENDBRANCH  31  34
ENDBRANCH  23  24
ENDBRANCH  11  23
ENDBRANCH  10  11
ENDBRANCH   6  10
ENDBRANCH   5   6
ENDBRANCH   3   5
ENDBRANCH   2   3
TORSDOF 13
ENDMDL
MODEL      345
REMARK 921   NORMALIZED FREE ENERGY PREDICTED BY IDOCK:    9.17 KCAL/MOL
REMARK 922        TOTAL FREE ENERGY PREDICTED BY IDOCK:   13.67 KCAL/MOL
REMARK 923 INTER-LIGAND FREE ENERGY PREDICTED BY IDOCK:    3.34 KCAL/MOL
REMARK 924 INTRA-LIGAND FREE ENERGY PREDICTED BY IDOCK:   10.33 KCAL/MOL
REMARK 927      BINDING AFFINITY PREDICTED BY RF-SCORE:    0.00 PKD
ROOT
HETATM    1  C   UNL     1      -6.836  12.105  71.015  1.00  0.00     3.018 C  
HETATM    2  C   UNL     1      -7.534  10.995  70.251  1.00  0.00     0.976 C  
ENDROOT
BRANCH   2   3
HETATM    3  C   UNL     1      -7.306   9.558  70.713  1.00  0.00    -0.084 C  
HETATM    4  O   UNL     1      -6.244   9.184  71.200  1.00  0.00    -0.058 OA 
BRANCH   3   5
HETATM    5  O   UNL     1      -8.426   8.798  70.632  1.00  0.00    -0.137 OA 
BRANCH   5   6
HETATM    6  C   UNL     1      -9.179   8.804  69.378  1.00  0.00    -0.146 C  
HETATM    7  C   UNL     1      -9.853   7.392  69.231  1.00  0.00    -0.168 C  
HETATM    8  C   UNL     1     -10.668   7.222  67.950  1.00  0.00    -0.239 C  
HETATM    9  C   UNL     1     -10.728   7.018  70.429  1.00  0.00    -0.259 C  
BRANCH   6  10
HETATM   10  O   UNL     1      -8.417   9.155  68.183  1.00  0.00    -0.123 OA 
BRANCH  10  11
HETATM   11  P   UNL     1      -7.857   7.906  67.234  1.00  0.00    -0.116 P  
HETATM   12  O   UNL     1      -7.305   8.893  66.177  1.00  0.00    -0.088 OA 
BRANCH  11  13
HETATM   13  C   UNL     1      -9.377   7.469  66.067  1.00  0.00     0.001 C  
BRANCH  13  14
HETATM   14  C   UNL     1      -9.238   6.085  65.424  1.00  0.00     0.166 C  
BRANCH  14  15
HETATM   15  C   UNL     1      -8.055   5.954  64.481  1.00  0.00    -0.132 C  
BRANCH  15  16
HETATM   16  C   UNL     1      -7.958   4.501  63.989  1.00  0.00    -0.093 C  
BRANCH  16  17
HETATM   17  C   UNL     1      -8.033   3.546  65.146  1.00  0.00    -0.086 A  
HETATM   18  C   UNL     1      -7.328   3.803  66.329  1.00  0.00    -0.075 A  
HETATM   19  C   UNL     1      -8.861   2.419  65.068  1.00  0.00    -0.119 A  
HETATM   20  C   UNL     1      -8.278   1.821  67.337  1.00  0.00    -0.072 A  
HETATM   21  C   UNL     1      -7.448   2.934  67.420  1.00  0.00    -0.061 A  
HETATM   22  C   UNL     1      -8.983   1.565  66.164  1.00  0.00    -0.092 A  
ENDBRANCH  16  17
ENDBRANCH  15  16
ENDBRANCH  14  15
ENDBRANCH  13  14
ENDBRANCH  11  13
BRANCH  11  23
HETATM   23  C   UNL     1      -8.509   6.738  68.483  1.00  0.00    -0.123 C  
BRANCH  23  24
HETATM   24  C   UNL     1      -7.424   5.963  69.253  1.00  0.00    -0.084 C  
HETATM   25  C   UNL     1      -6.642   4.497  71.130  1.00  0.00    -0.030 C  
HETATM   26  O   UNL     1      -6.234   6.101  68.939  1.00  0.00    -0.033 OA 
HETATM   27  N   UNL     1      -7.703   5.066  70.260  1.00  0.00    -0.066 N  
HETATM   28  C   UNL     1      -5.673   3.437  70.537  1.00  0.00    -0.017 C  
HETATM   29  O   UNL     1      -5.136   2.556  71.200  1.00  0.00    -0.003 OA 
HETATM   30  C   UNL     1      -8.935   4.337  70.491  1.00  0.00    -0.094 C  
HETATM   31  C   UNL     1      -8.907   3.914  71.970  1.00  0.00    -0.130 C  
HETATM   32  O   UNL     1      -5.345   3.628  69.241  1.00  0.00    -0.011 OA 
HETATM   33  C   UNL     1      -7.403   3.876  72.316  1.00  0.00    -0.057 C  
BRANCH  31  34
HETATM   34  C   UNL     1      -9.703   4.821  72.959  1.00  0.00    -0.164 C  
HETATM   35  C   UNL     1     -12.029   4.025  72.324  1.00  0.00     1.966 C  
HETATM   36  C   UNL     1     -12.224   3.339  73.672  1.00  0.00     0.705 C  
HETATM   37  C   UNL     1     -10.906   3.018  74.374  1.00  0.00    -0.067 C  
HETATM   38  C   UNL     1     -11.101   5.227  72.463  1.00  0.00    -0.289 C  
HETATM   39  C   UNL     1      -9.893   4.169  74.352  1.00  0.00    -0.174 C  
ENDBRANCH  31  34
ENDBRANCH  23  24
ENDBRANCH  11  23
ENDBRANCH  10  11
ENDBRANCH   6  10
ENDBRANCH   5   6
ENDBRANCH   3   5
ENDBRANCH   2   3
TORSDOF 13
ENDMDL
MODEL      346
REMARK 921   NORMALIZED FREE ENERGY PREDICTED BY IDOCK:    9.51 KCAL/MOL
REMARK 922        TOTAL FREE ENERGY PREDICTED BY IDOCK:   14.28 KCAL/MOL
REMARK 923 INTER-LIGAND FREE ENERGY PREDICTED BY IDOCK:   -0.62 KCAL/MOL
REMARK 924 INTRA-LIGAND FREE ENERGY PREDICTED BY IDOCK:   14.90 KCAL/MOL
REMARK 927      BINDING AFFINITY PREDICTED BY RF-SCORE:    0.00 PKD
ROOT
HETATM    1  C   UNL     1      -9.222  18.181  69.522  1.00  0.00     0.565 C  
HETATM    2  C   UNL     1      -8.801  16.985  68.689  1.00  0.00    -0.267 C  
ENDROOT
BRANCH   2   3
HETATM    3  C   UNL     1      -7.484  16.298  69.040  1.00  0.00    -0.220 C  
HETATM    4  O   UNL     1      -6.467  16.927  69.313  1.00  0.00    -0.204 OA 
BRANCH   3   5
HETATM    5  O   UNL     1      -7.602  14.951  69.125  1.00  0.00    -0.140 OA 
BRANCH   5   6
HETATM    6  C   UNL     1      -8.546  14.279  68.233  1.00  0.00    -0.176 C  
HETATM    7  C   UNL     1      -9.456  15.391  67.594  1.00  0.00    -0.205 C  
HETATM    8  C   UNL     1     -10.522  14.851  66.643  1.00  0.00    -0.292 C  
HETATM    9  C   UNL     1      -8.656  16.481  66.876  1.00  0.00    -0.237 C  
BRANCH   6  10
HETATM   10  O   UNL     1      -9.349  13.221  68.839  1.00  0.00     0.048 OA 
BRANCH  10  11
HETATM   11  P   UNL     1      -9.072  11.659  68.331  1.00  0.00    -0.115 P  
HETATM   12  O   UNL     1      -8.398  12.151  67.027  1.00  0.00    -0.173 OA 
BRANCH  11  13
HETATM   13  C   UNL     1     -10.700  11.181  67.337  1.00  0.00    -0.250 C  
BRANCH  13  14
HETATM   14  C   UNL     1     -10.675   9.730  66.843  1.00  0.00    -0.192 C  
BRANCH  14  15
HETATM   15  C   UNL     1     -10.836   8.697  67.944  1.00  0.00    -0.061 C  
BRANCH  15  16
HETATM   16  C   UNL     1     -11.423   7.408  67.347  1.00  0.00     0.748 C  
BRANCH  16  17
HETATM   17  C   UNL     1     -10.415   6.730  66.462  1.00  0.00    -0.101 A  
HETATM   18  C   UNL     1     -10.142   5.364  66.610  1.00  0.00    -0.250 A  
HETATM   19  C   UNL     1      -9.785   7.452  65.442  1.00  0.00     1.181 A  
HETATM   20  C   UNL     1      -8.626   5.454  64.729  1.00  0.00    -0.117 A  
HETATM   21  C   UNL     1      -9.241   4.731  65.746  1.00  0.00    -0.149 A  
HETATM   22  C   UNL     1      -8.898   6.811  64.578  1.00  0.00     0.604 A  
ENDBRANCH  16  17
ENDBRANCH  15  16
ENDBRANCH  14  15
ENDBRANCH  13  14
ENDBRANCH  11  13
BRANCH  11  23
HETATM   23  C   UNL     1      -9.869  11.076  69.872  1.00  0.00     0.703 C  
BRANCH  23  24
HETATM   24  C   UNL     1      -9.180   9.862  70.521  1.00  0.00     0.126 C  
HETATM   25  C   UNL     1      -7.353   8.152  70.666  1.00  0.00    -0.053 C  
HETATM   26  O   UNL     1      -9.758   9.239  71.421  1.00  0.00    -0.284 OA 
HETATM   27  N   UNL     1      -7.910   9.444  70.190  1.00  0.00    -0.123 N  
HETATM   28  C   UNL     1      -6.944   8.015  72.159  1.00  0.00    -0.077 C  
HETATM   29  O   UNL     1      -6.054   7.270  72.558  1.00  0.00    -0.041 OA 
HETATM   30  C   UNL     1      -6.841  10.221  69.595  1.00  0.00    -0.094 C  
HETATM   31  C   UNL     1      -5.874   9.202  68.966  1.00  0.00    -0.039 C  
HETATM   32  O   UNL     1      -7.732   8.683  73.028  1.00  0.00    -0.361 OA 
HETATM   33  C   UNL     1      -6.115   7.913  69.781  1.00  0.00    -0.026 C  
BRANCH  31  34
HETATM   34  C   UNL     1      -6.036   8.955  67.435  1.00  0.00    -0.047 C  
HETATM   35  C   UNL     1      -5.644   6.447  67.471  1.00  0.00    -0.009 C  
HETATM   36  C   UNL     1      -7.096   6.156  67.106  1.00  0.00    -0.070 C  
HETATM   37  C   UNL     1      -8.037   7.312  67.441  1.00  0.00    -0.113 C  
HETATM   38  C   UNL     1      -5.201   7.784  66.889  1.00  0.00    -0.027 C  
HETATM   39  C   UNL     1      -7.506   8.689  67.022  1.00  0.00    -0.084 C  
ENDBRANCH  31  34
ENDBRANCH  23  24
ENDBRANCH  11  23
ENDBRANCH  10  11
ENDBRANCH   6  10
ENDBRANCH   5   6
ENDBRANCH   3   5
ENDBRANCH   2   3
TORSDOF 13
ENDMDL
MODEL      347
REMARK 921   NORMALIZED FREE ENERGY PREDICTED BY IDOCK:   10.23 KCAL/MOL
REMARK 922        TOTAL FREE ENERGY PREDICTED BY IDOCK:   15.53 KCAL/MOL
REMARK 923 INTER-LIGAND FREE ENERGY PREDICTED BY IDOCK:   -3.64 KCAL/MOL
REMARK 924 INTRA-LIGAND FREE ENERGY PREDICTED BY IDOCK:   19.17 KCAL/MOL
REMARK 927      BINDING AFFINITY PREDICTED BY RF-SCORE:    0.00 PKD
ROOT
HETATM    1  C   UNL     1      -8.601   9.227  66.238  1.00  0.00    -0.139 C  
HETATM    2  C   UNL     1      -9.728  10.038  65.625  1.00  0.00    -0.336 C  
ENDROOT
BRANCH   2   3
HETATM    3  C   UNL     1      -9.354  11.245  64.768  1.00  0.00    -0.145 C  
HETATM    4  O   UNL     1      -8.870  11.132  63.647  1.00  0.00    -0.079 OA 
BRANCH   3   5
HETATM    5  O   UNL     1      -9.721  12.422  65.332  1.00  0.00    -0.217 OA 
BRANCH   5   6
HETATM    6  C   UNL     1      -8.944  12.919  66.467  1.00  0.00    -0.078 C  
HETATM    7  C   UNL     1      -8.175  11.692  67.079  1.00  0.00    -0.170 C  
HETATM    8  C   UNL     1      -7.323  12.039  68.300  1.00  0.00    -0.095 C  
HETATM    9  C   UNL     1      -7.302  10.961  66.057  1.00  0.00    -0.081 C  
BRANCH   6  10
HETATM   10  O   UNL     1      -9.701  13.634  67.490  1.00  0.00    -0.218 OA 
BRANCH  10  11
HETATM   11  P   UNL     1     -10.116  12.794  68.868  1.00  0.00     0.293 P  
HETATM   12  O   UNL     1     -11.140  11.932  68.092  1.00  0.00    -0.211 OA 
BRANCH  11  13
HETATM   13  C   UNL     1     -11.571  13.854  69.658  1.00  0.00    -0.286 C  
BRANCH  13  14
HETATM   14  C   UNL     1     -12.736  12.980  70.134  1.00  0.00     0.102 C  
BRANCH  14  15
HETATM   15  C   UNL     1     -12.390  11.508  70.276  1.00  0.00    -0.355 C  
BRANCH  15  16
HETATM   16  C   UNL     1     -10.888  11.314  70.010  1.00  0.00     0.124 C  
BRANCH  16  17
HETATM   17  C   UNL     1     -10.464   9.919  70.375  1.00  0.00    -0.347 A  
HETATM   18  C   UNL     1     -11.054   9.255  71.458  1.00  0.00    -0.443 A  
HETATM   19  C   UNL     1      -9.515   9.252  69.592  1.00  0.00    -0.188 A  
HETATM   20  C   UNL     1      -9.752   7.279  70.968  1.00  0.00    -0.169 A  
HETATM   21  C   UNL     1     -10.690   7.937  71.756  1.00  0.00    -0.281 A  
HETATM   22  C   UNL     1      -9.167   7.935  69.889  1.00  0.00    -0.153 A  
ENDBRANCH  16  17
ENDBRANCH  15  16
ENDBRANCH  14  15
ENDBRANCH  13  14
ENDBRANCH  11  13
BRANCH  11  23
HETATM   23  C   UNL     1      -8.905  13.814  69.786  1.00  0.00     1.652 C  
BRANCH  23  24
HETATM   24  C   UNL     1      -7.982  14.661  68.890  1.00  0.00    -0.149 C  
HETATM   25  C   UNL     1      -7.352  16.787  67.720  1.00  0.00    -0.151 C  
HETATM   26  O   UNL     1      -7.045  14.119  68.291  1.00  0.00    -0.091 OA 
HETATM   27  N   UNL     1      -8.107  16.026  68.749  1.00  0.00    -0.198 N  
HETATM   28  C   UNL     1      -5.827  17.007  67.918  1.00  0.00    -0.120 C  
HETATM   29  O   UNL     1      -5.215  17.977  67.482  1.00  0.00    -0.134 OA 
HETATM   30  C   UNL     1      -8.726  16.966  69.663  1.00  0.00     0.721 C  
HETATM   31  C   UNL     1      -9.062  18.213  68.826  1.00  0.00    -0.239 C  
HETATM   32  O   UNL     1      -5.174  15.978  68.499  1.00  0.00    -0.093 OA 
HETATM   33  C   UNL     1      -8.055  18.156  67.657  1.00  0.00    -0.234 C  
BRANCH  31  34
HETATM   34  C   UNL     1     -10.532  18.322  68.315  1.00  0.00    -0.324 C  
HETATM   35  C   UNL     1     -10.214  20.377  66.858  1.00  0.00    -0.417 C  
HETATM   36  C   UNL     1     -10.418  19.573  65.579  1.00  0.00    -0.245 C  
HETATM   37  C   UNL     1     -10.154  18.080  65.766  1.00  0.00    -0.038 C  
HETATM   38  C   UNL     1     -10.993  19.758  68.013  1.00  0.00     0.051 C  
HETATM   39  C   UNL     1     -10.786  17.490  67.033  1.00  0.00    -0.157 C  
ENDBRANCH  31  34
ENDBRANCH  23  24
ENDBRANCH  11  23
ENDBRANCH  10  11
ENDBRANCH   6  10
ENDBRANCH   5   6
ENDBRANCH   3   5
ENDBRANCH   2   3
TORSDOF 13
ENDMDL
MODEL      348
REMARK 921   NORMALIZED FREE ENERGY PREDICTED BY IDOCK:   10.83 KCAL/MOL
REMARK 922        TOTAL FREE ENERGY PREDICTED BY IDOCK:   16.60 KCAL/MOL
REMARK 923 INTER-LIGAND FREE ENERGY PREDICTED BY IDOCK:    6.14 KCAL/MOL
REMARK 924 INTRA-LIGAND FREE ENERGY PREDICTED BY IDOCK:   10.46 KCAL/MOL
REMARK 927      BINDING AFFINITY PREDICTED BY RF-SCORE:    0.00 PKD
ROOT
HETATM    1  C   UNL     1     -10.743   3.759  69.557  1.00  0.00     2.611 C  
HETATM    2  C   UNL     1     -11.255   5.182  69.422  1.00  0.00     1.407 C  
ENDROOT
BRANCH   2   3
HETATM    3  C   UNL     1     -10.589   6.085  68.387  1.00  0.00    -0.261 C  
HETATM    4  O   UNL     1      -9.713   5.681  67.629  1.00  0.00    -0.115 OA 
BRANCH   3   5
HETATM    5  O   UNL     1     -11.150   7.317  68.329  1.00  0.00    -0.033 OA 
BRANCH   5   6
HETATM    6  C   UNL     1     -11.110   8.154  69.528  1.00  0.00     0.052 C  
HETATM    7  C   UNL     1     -12.412   7.849  70.354  1.00  0.00     0.495 C  
HETATM    8  C   UNL     1     -12.538   8.665  71.640  1.00  0.00    -0.381 C  
HETATM    9  C   UNL     1     -12.574   6.365  70.690  1.00  0.00     0.476 C  
BRANCH   6  10
HETATM   10  O   UNL     1     -10.953   9.587  69.296  1.00  0.00    -0.219 OA 
BRANCH  10  11
HETATM   11  P   UNL     1      -9.676  10.078  68.346  1.00  0.00    -0.155 P  
HETATM   12  O   UNL     1      -9.650   8.723  67.598  1.00  0.00    -0.139 OA 
BRANCH  11  13
HETATM   13  C   UNL     1      -8.084   9.565  69.379  1.00  0.00    -0.116 C  
BRANCH  13  14
HETATM   14  C   UNL     1      -7.166  10.759  69.665  1.00  0.00    -0.127 C  
BRANCH  14  15
HETATM   15  C   UNL     1      -5.694  10.484  69.415  1.00  0.00    -0.038 C  
BRANCH  15  16
HETATM   16  C   UNL     1      -5.188   9.462  70.446  1.00  0.00    -0.027 C  
BRANCH  16  17
HETATM   17  C   UNL     1      -5.933   8.164  70.312  1.00  0.00    -0.028 A  
HETATM   18  C   UNL     1      -7.210   8.015  70.869  1.00  0.00    -0.053 A  
HETATM   19  C   UNL     1      -5.376   7.113  69.574  1.00  0.00    -0.015 A  
HETATM   20  C   UNL     1      -7.360   5.784  69.950  1.00  0.00    -0.070 A  
HETATM   21  C   UNL     1      -7.917   6.820  70.691  1.00  0.00    -0.110 A  
HETATM   22  C   UNL     1      -6.093   5.930  69.393  1.00  0.00    -0.028 A  
ENDBRANCH  16  17
ENDBRANCH  15  16
ENDBRANCH  14  15
ENDBRANCH  13  14
ENDBRANCH  11  13
BRANCH  11  23
HETATM   23  C   UNL     1      -9.706  11.680  69.231  1.00  0.00     0.359 C  
BRANCH  23  24
HETATM   24  C   UNL     1     -10.151  12.873  68.364  1.00  0.00    -0.227 C  
HETATM   25  C   UNL     1     -10.293  14.119  66.194  1.00  0.00    -0.300 C  
HETATM   26  O   UNL     1     -10.657  13.865  68.903  1.00  0.00    -0.242 OA 
HETATM   27  N   UNL     1     -10.064  12.886  66.989  1.00  0.00    -0.242 N  
HETATM   28  C   UNL     1     -11.742  14.661  66.048  1.00  0.00    -0.306 C  
HETATM   29  O   UNL     1     -12.138  15.297  65.077  1.00  0.00    -0.117 OA 
HETATM   30  C   UNL     1     -10.012  11.752  66.087  1.00  0.00    -0.226 C  
HETATM   31  C   UNL     1      -9.404  12.281  64.776  1.00  0.00     0.338 C  
HETATM   32  O   UNL     1     -12.522  14.499  67.138  1.00  0.00    -0.180 OA 
HETATM   33  C   UNL     1      -9.735  13.789  64.797  1.00  0.00     0.270 C  
BRANCH  31  34
HETATM   34  C   UNL     1      -7.878  12.029  64.575  1.00  0.00     3.053 C  
HETATM   35  C   UNL     1      -7.519  10.580  66.629  1.00  0.00    -0.120 C  
HETATM   36  C   UNL     1      -7.269   9.338  65.780  1.00  0.00    -0.090 C  
HETATM   37  C   UNL     1      -7.859   9.448  64.375  1.00  0.00    -0.123 C  
HETATM   38  C   UNL     1      -7.089  11.838  65.882  1.00  0.00     0.883 C  
HETATM   39  C   UNL     1      -7.585  10.792  63.689  1.00  0.00     0.284 C  
ENDBRANCH  31  34
ENDBRANCH  23  24
ENDBRANCH  11  23
ENDBRANCH  10  11
ENDBRANCH   6  10
ENDBRANCH   5   6
ENDBRANCH   3   5
ENDBRANCH   2   3
TORSDOF 13
ENDMDL
MODEL      349
REMARK 921   NORMALIZED FREE ENERGY PREDICTED BY IDOCK:   10.83 KCAL/MOL
REMARK 922        TOTAL FREE ENERGY PREDICTED BY IDOCK:   16.60 KCAL/MOL
REMARK 923 INTER-LIGAND FREE ENERGY PREDICTED BY IDOCK:    1.26 KCAL/MOL
REMARK 924 INTRA-LIGAND FREE ENERGY PREDICTED BY IDOCK:   15.34 KCAL/MOL
REMARK 927      BINDING AFFINITY PREDICTED BY RF-SCORE:    0.00 PKD
ROOT
HETATM    1  C   UNL     1      -8.642   8.683  65.961  1.00  0.00    -0.173 C  
HETATM    2  C   UNL     1      -9.853   9.319  65.303  1.00  0.00     0.042 C  
ENDROOT
BRANCH   2   3
HETATM    3  C   UNL     1      -9.633  10.578  64.469  1.00  0.00    -0.302 C  
HETATM    4  O   UNL     1      -9.198  10.540  63.323  1.00  0.00    -0.220 OA 
BRANCH   3   5
HETATM    5  O   UNL     1     -10.074  11.701  65.088  1.00  0.00    -0.243 OA 
BRANCH   5   6
HETATM    6  C   UNL     1      -9.491  12.054  66.382  1.00  0.00    -0.231 C  
HETATM    7  C   UNL     1      -8.250  11.115  66.606  1.00  0.00    -0.158 C  
HETATM    8  C   UNL     1      -7.532  11.341  67.935  1.00  0.00    -0.094 C  
HETATM    9  C   UNL     1      -7.227  11.191  65.470  1.00  0.00     0.347 C  
BRANCH   6  10
HETATM   10  O   UNL     1     -10.402  12.010  67.522  1.00  0.00    -0.198 OA 
BRANCH  10  11
HETATM   11  P   UNL     1      -9.971  11.052  68.815  1.00  0.00    -0.167 P  
HETATM   12  O   UNL     1     -10.702   9.828  68.212  1.00  0.00    -0.229 OA 
BRANCH  11  13
HETATM   13  C   UNL     1     -11.424  11.312  70.112  1.00  0.00    -0.247 C  
BRANCH  13  14
HETATM   14  C   UNL     1     -11.937   9.987  70.685  1.00  0.00    -0.401 C  
BRANCH  14  15
HETATM   15  C   UNL     1     -10.912   8.867  70.674  1.00  0.00    -0.287 C  
BRANCH  15  16
HETATM   16  C   UNL     1      -9.522   9.457  70.384  1.00  0.00    -0.319 C  
BRANCH  16  17
HETATM   17  C   UNL     1      -8.465   8.394  70.486  1.00  0.00    -0.133 A  
HETATM   18  C   UNL     1      -8.567   7.377  71.445  1.00  0.00    -0.118 A  
HETATM   19  C   UNL     1      -7.400   8.379  69.578  1.00  0.00    -0.073 A  
HETATM   20  C   UNL     1      -6.555   6.351  70.584  1.00  0.00    -0.052 A  
HETATM   21  C   UNL     1      -7.606   6.361  71.495  1.00  0.00    -0.098 A  
HETATM   22  C   UNL     1      -6.453   7.357  69.628  1.00  0.00    -0.036 A  
ENDBRANCH  16  17
ENDBRANCH  15  16
ENDBRANCH  14  15
ENDBRANCH  13  14
ENDBRANCH  11  13
BRANCH  11  23
HETATM   23  C   UNL     1      -9.106  12.499  69.527  1.00  0.00     1.636 C  
BRANCH  23  24
HETATM   24  C   UNL     1      -9.595  13.856  68.989  1.00  0.00     0.139 C  
HETATM   25  C   UNL     1     -10.765  16.059  69.236  1.00  0.00    -0.275 C  
HETATM   26  O   UNL     1      -9.496  14.108  67.781  1.00  0.00    -0.198 OA 
HETATM   27  N   UNL     1     -10.102  14.853  69.794  1.00  0.00    -0.073 N  
HETATM   28  C   UNL     1      -9.893  17.144  68.546  1.00  0.00    -0.297 C  
HETATM   29  O   UNL     1     -10.183  18.336  68.515  1.00  0.00    -0.381 OA 
HETATM   30  C   UNL     1      -9.875  15.058  71.211  1.00  0.00     2.028 C  
HETATM   31  C   UNL     1     -11.039  15.936  71.704  1.00  0.00    -0.042 C  
HETATM   32  O   UNL     1      -8.836  16.668  67.853  1.00  0.00    -0.200 OA 
HETATM   33  C   UNL     1     -11.497  16.690  70.437  1.00  0.00     0.184 C  
BRANCH  31  34
HETATM   34  C   UNL     1     -12.224  15.187  72.388  1.00  0.00    -0.462 C  
HETATM   35  C   UNL     1     -14.004  15.768  70.674  1.00  0.00     0.924 C  
HETATM   36  C   UNL     1     -14.097  14.324  70.195  1.00  0.00     2.273 C  
HETATM   37  C   UNL     1     -12.848  13.507  70.520  1.00  0.00    -0.131 C  
HETATM   38  C   UNL     1     -13.603  15.823  72.144  1.00  0.00    -0.462 C  
HETATM   39  C   UNL     1     -12.329  13.704  71.950  1.00  0.00    -0.020 C  
ENDBRANCH  31  34
ENDBRANCH  23  24
ENDBRANCH  11  23
ENDBRANCH  10  11
ENDBRANCH   6  10
ENDBRANCH   5   6
ENDBRANCH   3   5
ENDBRANCH   2   3
TORSDOF 13
ENDMDL
MODEL      350
REMARK 921   NORMALIZED FREE ENERGY PREDICTED BY IDOCK:   10.92 KCAL/MOL
REMARK 922        TOTAL FREE ENERGY PREDICTED BY IDOCK:   16.76 KCAL/MOL
REMARK 923 INTER-LIGAND FREE ENERGY PREDICTED BY IDOCK:    7.60 KCAL/MOL
REMARK 924 INTRA-LIGAND FREE ENERGY PREDICTED BY IDOCK:    9.16 KCAL/MOL
REMARK 927      BINDING AFFINITY PREDICTED BY RF-SCORE:    0.00 PKD
ROOT
HETATM    1  C   UNL     1      -7.849  19.559  66.337  1.00  0.00    -0.317 C  
HETATM    2  C   UNL     1      -7.774  18.178  65.714  1.00  0.00    -0.010 C  
ENDROOT
BRANCH   2   3
HETATM    3  C   UNL     1      -8.287  16.996  66.533  1.00  0.00    -0.278 C  
HETATM    4  O   UNL     1      -9.246  17.090  67.293  1.00  0.00    -0.217 OA 
BRANCH   3   5
HETATM    5  O   UNL     1      -7.649  15.838  66.238  1.00  0.00     0.071 OA 
BRANCH   5   6
HETATM    6  C   UNL     1      -8.457  14.640  66.009  1.00  0.00     0.969 C  
HETATM    7  C   UNL     1      -9.908  15.119  65.642  1.00  0.00    -0.378 C  
HETATM    8  C   UNL     1     -10.894  13.980  65.390  1.00  0.00    -0.331 C  
HETATM    9  C   UNL     1      -9.940  16.075  64.447  1.00  0.00     2.272 C  
BRANCH   6  10
HETATM   10  O   UNL     1      -8.479  13.672  67.101  1.00  0.00    -0.203 OA 
BRANCH  10  11
HETATM   11  P   UNL     1      -8.376  12.057  66.701  1.00  0.00     0.060 P  
HETATM   12  O   UNL     1      -9.749  12.098  65.988  1.00  0.00    -0.239 OA 
BRANCH  11  13
HETATM   13  C   UNL     1      -9.174  11.129  68.239  1.00  0.00    -0.169 C  
BRANCH  13  14
HETATM   14  C   UNL     1      -9.922  12.086  69.172  1.00  0.00     0.241 C  
BRANCH  14  15
HETATM   15  C   UNL     1      -9.055  12.701  70.256  1.00  0.00     4.961 C  
BRANCH  15  16
HETATM   16  C   UNL     1      -9.563  14.118  70.569  1.00  0.00     2.646 C  
BRANCH  16  17
HETATM   17  C   UNL     1      -8.615  15.150  70.026  1.00  0.00     0.382 A  
HETATM   18  C   UNL     1      -9.068  16.436  69.707  1.00  0.00     0.507 A  
HETATM   19  C   UNL     1      -7.255  14.846  69.894  1.00  0.00    -0.069 A  
HETATM   20  C   UNL     1      -6.816  17.098  69.132  1.00  0.00    -0.236 A  
HETATM   21  C   UNL     1      -8.166  17.406  69.253  1.00  0.00     0.183 A  
HETATM   22  C   UNL     1      -6.361  15.822  69.452  1.00  0.00    -0.154 A  
ENDBRANCH  16  17
ENDBRANCH  15  16
ENDBRANCH  14  15
ENDBRANCH  13  14
ENDBRANCH  11  13
BRANCH  11  23
HETATM   23  C   UNL     1      -6.752  12.010  67.544  1.00  0.00    -0.120 C  
BRANCH  23  24
HETATM   24  C   UNL     1      -6.787  11.382  68.950  1.00  0.00    -0.089 C  
HETATM   25  C   UNL     1      -7.298   9.517  70.544  1.00  0.00    -0.138 C  
HETATM   26  O   UNL     1      -6.517  12.078  69.937  1.00  0.00    -0.121 OA 
HETATM   27  N   UNL     1      -7.057  10.051  69.180  1.00  0.00    -0.064 N  
HETATM   28  C   UNL     1      -6.098   9.379  71.521  1.00  0.00    -0.037 C  
HETATM   29  O   UNL     1      -6.033   8.536  72.409  1.00  0.00    -0.058 OA 
HETATM   30  C   UNL     1      -6.904   8.938  68.264  1.00  0.00    -0.065 C  
HETATM   31  C   UNL     1      -7.808   7.816  68.805  1.00  0.00    -0.123 C  
HETATM   32  O   UNL     1      -5.165  10.349  71.415  1.00  0.00    -0.085 OA 
HETATM   33  C   UNL     1      -7.921   8.127  70.313  1.00  0.00    -0.103 C  
BRANCH  31  34
HETATM   34  C   UNL     1      -9.211   7.681  68.137  1.00  0.00    -0.138 C  
HETATM   35  C   UNL     1      -8.841   5.410  67.066  1.00  0.00    -0.110 C  
HETATM   36  C   UNL     1      -9.840   4.740  68.004  1.00  0.00    -0.185 C  
HETATM   37  C   UNL     1     -10.068   5.529  69.292  1.00  0.00    -0.293 C  
HETATM   38  C   UNL     1      -9.218   6.868  66.832  1.00  0.00    -0.167 C  
HETATM   39  C   UNL     1     -10.263   7.034  69.074  1.00  0.00    -0.191 C  
ENDBRANCH  31  34
ENDBRANCH  23  24
ENDBRANCH  11  23
ENDBRANCH  10  11
ENDBRANCH   6  10
ENDBRANCH   5   6
ENDBRANCH   3   5
ENDBRANCH   2   3
TORSDOF 13
ENDMDL
MODEL      351
REMARK 921   NORMALIZED FREE ENERGY PREDICTED BY IDOCK:   11.58 KCAL/MOL
REMARK 922        TOTAL FREE ENERGY PREDICTED BY IDOCK:   17.92 KCAL/MOL
REMARK 923 INTER-LIGAND FREE ENERGY PREDICTED BY IDOCK:    2.37 KCAL/MOL
REMARK 924 INTRA-LIGAND FREE ENERGY PREDICTED BY IDOCK:   15.55 KCAL/MOL
REMARK 927      BINDING AFFINITY PREDICTED BY RF-SCORE:    0.00 PKD
ROOT
HETATM    1  C   UNL     1     -10.080  12.014  70.581  1.00  0.00     4.760 C  
HETATM    2  C   UNL     1      -9.475  13.257  69.954  1.00  0.00     2.453 C  
ENDROOT
BRANCH   2   3
HETATM    3  C   UNL     1      -8.755  13.102  68.617  1.00  0.00     0.045 C  
HETATM    4  O   UNL     1      -9.143  12.330  67.746  1.00  0.00    -0.176 OA 
BRANCH   3   5
HETATM    5  O   UNL     1      -7.735  13.982  68.466  1.00  0.00    -0.128 OA 
BRANCH   5   6
HETATM    6  C   UNL     1      -7.635  14.719  67.207  1.00  0.00    -0.165 C  
HETATM    7  C   UNL     1      -6.721  15.971  67.470  1.00  0.00    -0.205 C  
HETATM    8  C   UNL     1      -6.530  16.870  66.249  1.00  0.00     0.061 C  
HETATM    9  C   UNL     1      -5.348  15.604  68.035  1.00  0.00    -0.133 C  
BRANCH   6  10
HETATM   10  O   UNL     1      -8.903  15.107  66.597  1.00  0.00    -0.258 OA 
BRANCH  10  11
HETATM   11  P   UNL     1      -9.675  13.981  65.642  1.00  0.00     0.030 P  
HETATM   12  O   UNL     1     -10.245  15.084  64.718  1.00  0.00    -0.308 OA 
BRANCH  11  13
HETATM   13  C   UNL     1     -11.432  13.752  66.493  1.00  0.00    -0.348 C  
BRANCH  13  14
HETATM   14  C   UNL     1     -11.495  14.396  67.882  1.00  0.00    -0.346 C  
BRANCH  14  15
HETATM   15  C   UNL     1     -10.586  15.602  68.049  1.00  0.00    -0.271 C  
BRANCH  15  16
HETATM   16  C   UNL     1     -11.387  16.882  67.759  1.00  0.00     0.153 C  
BRANCH  16  17
HETATM   17  C   UNL     1     -10.505  18.093  67.879  1.00  0.00    -0.408 A  
HETATM   18  C   UNL     1     -10.973  19.356  67.493  1.00  0.00    -0.416 A  
HETATM   19  C   UNL     1      -9.228  17.974  68.438  1.00  0.00    -0.301 A  
HETATM   20  C   UNL     1      -8.898  20.358  68.222  1.00  0.00     0.099 A  
HETATM   21  C   UNL     1     -10.163  20.485  67.659  1.00  0.00    -0.328 A  
HETATM   22  C   UNL     1      -8.432  19.106  68.611  1.00  0.00    -0.397 A  
ENDBRANCH  16  17
ENDBRANCH  15  16
ENDBRANCH  14  15
ENDBRANCH  13  14
ENDBRANCH  11  13
BRANCH  11  23
HETATM   23  C   UNL     1      -9.001  12.677  66.735  1.00  0.00    -0.197 C  
BRANCH  23  24
HETATM   24  C   UNL     1      -8.100  11.654  66.019  1.00  0.00     0.218 C  
HETATM   25  C   UNL     1      -7.531   9.334  65.260  1.00  0.00    -0.098 C  
HETATM   26  O   UNL     1      -6.984  12.001  65.612  1.00  0.00     1.198 OA 
HETATM   27  N   UNL     1      -8.486  10.358  65.752  1.00  0.00    -0.160 N  
HETATM   28  C   UNL     1      -7.024   9.421  63.793  1.00  0.00    -0.095 C  
HETATM   29  O   UNL     1      -6.687   8.447  63.128  1.00  0.00    -0.085 OA 
HETATM   30  C   UNL     1      -9.833   9.834  65.635  1.00  0.00    -0.301 C  
HETATM   31  C   UNL     1      -9.718   8.316  65.859  1.00  0.00     0.019 C  
HETATM   32  O   UNL     1      -6.848  10.676  63.326  1.00  0.00    -0.030 OA 
HETATM   33  C   UNL     1      -8.262   7.992  65.461  1.00  0.00    -0.138 C  
BRANCH  31  34
HETATM   34  C   UNL     1     -10.049   7.806  67.296  1.00  0.00    -0.307 C  
HETATM   35  C   UNL     1     -10.730   5.447  66.650  1.00  0.00    -0.309 C  
HETATM   36  C   UNL     1      -9.501   4.846  67.322  1.00  0.00    -0.157 C  
HETATM   37  C   UNL     1      -8.363   5.851  67.492  1.00  0.00    -0.105 C  
HETATM   38  C   UNL     1     -11.151   6.734  67.350  1.00  0.00    -0.366 C  
HETATM   39  C   UNL     1      -8.814   7.217  68.024  1.00  0.00    -0.129 C  
ENDBRANCH  31  34
ENDBRANCH  23  24
ENDBRANCH  11  23
ENDBRANCH  10  11
ENDBRANCH   6  10
ENDBRANCH   5   6
ENDBRANCH   3   5
ENDBRANCH   2   3
TORSDOF 13
ENDMDL
MODEL      352
REMARK 921   NORMALIZED FREE ENERGY PREDICTED BY IDOCK:   11.61 KCAL/MOL
REMARK 922        TOTAL FREE ENERGY PREDICTED BY IDOCK:   17.97 KCAL/MOL
REMARK 923 INTER-LIGAND FREE ENERGY PREDICTED BY IDOCK:   -3.23 KCAL/MOL
REMARK 924 INTRA-LIGAND FREE ENERGY PREDICTED BY IDOCK:   21.20 KCAL/MOL
REMARK 927      BINDING AFFINITY PREDICTED BY RF-SCORE:    0.00 PKD
ROOT
HETATM    1  C   UNL     1      -6.831   9.900  69.924  1.00  0.00    -0.096 C  
HETATM    2  C   UNL     1      -7.115   8.471  70.349  1.00  0.00    -0.038 C  
ENDROOT
BRANCH   2   3
HETATM    3  C   UNL     1      -5.995   7.445  70.197  1.00  0.00    -0.024 C  
HETATM    4  O   UNL     1      -5.501   6.863  71.157  1.00  0.00    -0.026 OA 
BRANCH   3   5
HETATM    5  O   UNL     1      -5.704   7.176  68.901  1.00  0.00    -0.018 OA 
BRANCH   5   6
HETATM    6  C   UNL     1      -6.500   7.828  67.862  1.00  0.00    -0.051 C  
HETATM    7  C   UNL     1      -6.321   6.992  66.543  1.00  0.00    -0.050 C  
HETATM    8  C   UNL     1      -7.077   7.556  65.341  1.00  0.00    -0.063 C  
HETATM    9  C   UNL     1      -6.690   5.517  66.713  1.00  0.00    -0.061 C  
BRANCH   6  10
HETATM   10  O   UNL     1      -6.212   9.242  67.636  1.00  0.00    -0.056 OA 
BRANCH  10  11
HETATM   11  P   UNL     1      -7.180  10.357  68.408  1.00  0.00    -0.085 P  
HETATM   12  O   UNL     1      -7.320   9.446  69.651  1.00  0.00    -0.065 OA 
BRANCH  11  13
HETATM   13  C   UNL     1      -9.002   9.892  67.833  1.00  0.00    -0.128 C  
BRANCH  13  14
HETATM   14  C   UNL     1      -9.842   9.311  68.975  1.00  0.00    -0.168 C  
BRANCH  14  15
HETATM   15  C   UNL     1     -10.788  10.309  69.619  1.00  0.00    -0.311 C  
BRANCH  15  16
HETATM   16  C   UNL     1     -10.724  10.152  71.147  1.00  0.00     0.228 C  
BRANCH  16  17
HETATM   17  C   UNL     1     -11.957   9.463  71.659  1.00  0.00    -0.465 A  
HETATM   18  C   UNL     1     -13.227  10.002  71.416  1.00  0.00    -0.486 A  
HETATM   19  C   UNL     1     -11.844   8.241  72.333  1.00  0.00    -0.461 A  
HETATM   20  C   UNL     1     -14.251   8.106  72.513  1.00  0.00    -0.148 A  
HETATM   21  C   UNL     1     -14.372   9.323  71.851  1.00  0.00    -0.128 A  
HETATM   22  C   UNL     1     -12.990   7.567  72.752  1.00  0.00     0.683 A  
ENDBRANCH  16  17
ENDBRANCH  15  16
ENDBRANCH  14  15
ENDBRANCH  13  14
ENDBRANCH  11  13
BRANCH  11  23
HETATM   23  C   UNL     1      -7.015  11.434  66.938  1.00  0.00    -0.140 C  
BRANCH  23  24
HETATM   24  C   UNL     1      -8.077  11.187  65.850  1.00  0.00    -0.017 C  
HETATM   25  C   UNL     1     -10.293  11.619  64.762  1.00  0.00    -0.282 C  
HETATM   26  O   UNL     1      -7.933  10.248  65.056  1.00  0.00    -0.144 OA 
HETATM   27  N   UNL     1      -9.177  11.995  65.667  1.00  0.00    -0.081 N  
HETATM   28  C   UNL     1     -10.068  11.682  63.226  1.00  0.00    -0.423 C  
HETATM   29  O   UNL     1     -10.960  11.903  62.413  1.00  0.00     0.965 OA 
HETATM   30  C   UNL     1      -9.344  13.380  66.061  1.00  0.00     0.012 C  
HETATM   31  C   UNL     1     -10.862  13.628  66.111  1.00  0.00    -0.279 C  
HETATM   32  O   UNL     1      -8.827  11.340  62.818  1.00  0.00    -0.266 OA 
HETATM   33  C   UNL     1     -11.441  12.574  65.142  1.00  0.00    -0.369 C  
BRANCH  31  34
HETATM   34  C   UNL     1     -11.527  13.541  67.520  1.00  0.00    -0.361 C  
HETATM   35  C   UNL     1      -9.841  14.978  68.760  1.00  0.00    -0.233 C  
HETATM   36  C   UNL     1     -10.856  16.096  68.963  1.00  0.00    -0.299 C  
HETATM   37  C   UNL     1     -12.006  16.047  67.959  1.00  0.00     0.333 C  
HETATM   38  C   UNL     1     -10.537  13.623  68.694  1.00  0.00    -0.260 C  
HETATM   39  C   UNL     1     -12.591  14.644  67.751  1.00  0.00     0.637 C  
ENDBRANCH  31  34
ENDBRANCH  23  24
ENDBRANCH  11  23
ENDBRANCH  10  11
ENDBRANCH   6  10
ENDBRANCH   5   6
ENDBRANCH   3   5
ENDBRANCH   2   3
TORSDOF 13
ENDMDL
MODEL      353
REMARK 921   NORMALIZED FREE ENERGY PREDICTED BY IDOCK:   13.17 KCAL/MOL
REMARK 922        TOTAL FREE ENERGY PREDICTED BY IDOCK:   20.71 KCAL/MOL
REMARK 923 INTER-LIGAND FREE ENERGY PREDICTED BY IDOCK:    2.47 KCAL/MOL
REMARK 924 INTRA-LIGAND FREE ENERGY PREDICTED BY IDOCK:   18.24 KCAL/MOL
REMARK 927      BINDING AFFINITY PREDICTED BY RF-SCORE:    0.00 PKD
ROOT
HETATM    1  C   UNL     1     -10.640   9.029  63.230  1.00  0.00     6.547 C  
HETATM    2  C   UNL     1     -10.369  10.521  63.304  1.00  0.00     0.155 C  
ENDROOT
BRANCH   2   3
HETATM    3  C   UNL     1      -9.747  11.070  64.585  1.00  0.00    -0.266 C  
HETATM    4  O   UNL     1     -10.332  11.048  65.663  1.00  0.00    -0.246 OA 
BRANCH   3   5
HETATM    5  O   UNL     1      -8.462  11.466  64.415  1.00  0.00     0.346 OA 
BRANCH   5   6
HETATM    6  C   UNL     1      -7.411  10.734  65.122  1.00  0.00     0.138 C  
HETATM    7  C   UNL     1      -8.092   9.502  65.822  1.00  0.00    -0.111 C  
HETATM    8  C   UNL     1      -7.128   8.636  66.631  1.00  0.00    -0.080 C  
HETATM    9  C   UNL     1      -8.863   8.609  64.848  1.00  0.00    -0.076 C  
BRANCH   6  10
HETATM   10  O   UNL     1      -6.624  11.515  66.072  1.00  0.00     0.100 OA 
BRANCH  10  11
HETATM   11  P   UNL     1      -6.890  11.248  67.695  1.00  0.00    -0.090 P  
HETATM   12  O   UNL     1      -5.370  11.170  67.979  1.00  0.00    -0.043 OA 
BRANCH  11  13
HETATM   13  C   UNL     1      -7.043   9.294  67.842  1.00  0.00    -0.078 C  
BRANCH  13  14
HETATM   14  C   UNL     1      -8.039   8.868  68.925  1.00  0.00    -0.112 C  
BRANCH  14  15
HETATM   15  C   UNL     1      -7.910   7.417  69.352  1.00  0.00    -0.122 C  
BRANCH  15  16
HETATM   16  C   UNL     1      -7.076   7.341  70.641  1.00  0.00    -0.065 C  
BRANCH  16  17
HETATM   17  C   UNL     1      -7.968   7.153  71.836  1.00  0.00    -0.093 A  
HETATM   18  C   UNL     1      -8.748   8.213  72.317  1.00  0.00    -0.243 A  
HETATM   19  C   UNL     1      -8.070   5.894  72.439  1.00  0.00    -0.110 A  
HETATM   20  C   UNL     1      -9.716   6.756  73.985  1.00  0.00    -0.308 A  
HETATM   21  C   UNL     1      -9.615   8.012  73.397  1.00  0.00    -0.277 A  
HETATM   22  C   UNL     1      -8.945   5.700  73.507  1.00  0.00    -0.125 A  
ENDBRANCH  16  17
ENDBRANCH  15  16
ENDBRANCH  14  15
ENDBRANCH  13  14
ENDBRANCH  11  13
BRANCH  11  23
HETATM   23  C   UNL     1      -8.686  11.341  67.358  1.00  0.00    -0.139 C  
BRANCH  23  24
HETATM   24  C   UNL     1      -9.506  12.013  68.475  1.00  0.00    -0.133 C  
HETATM   25  C   UNL     1     -10.913  13.872  69.394  1.00  0.00    -0.126 C  
HETATM   26  O   UNL     1      -9.497  11.530  69.615  1.00  0.00     0.606 OA 
HETATM   27  N   UNL     1     -10.308  13.114  68.270  1.00  0.00    -0.247 N  
HETATM   28  C   UNL     1     -12.093  13.235  70.180  1.00  0.00    -0.333 C  
HETATM   29  O   UNL     1     -12.975  13.885  70.732  1.00  0.00    -0.283 OA 
HETATM   30  C   UNL     1     -10.906  13.565  67.028  1.00  0.00    -0.282 C  
HETATM   31  C   UNL     1     -11.233  15.055  67.231  1.00  0.00    -0.339 C  
HETATM   32  O   UNL     1     -12.017  11.896  70.334  1.00  0.00    -0.351 OA 
HETATM   33  C   UNL     1     -11.386  15.195  68.761  1.00  0.00    -0.313 C  
BRANCH  31  34
HETATM   34  C   UNL     1     -10.196  16.071  66.661  1.00  0.00    -0.295 C  
HETATM   35  C   UNL     1      -8.527  15.932  68.569  1.00  0.00    -0.184 C  
HETATM   36  C   UNL     1      -7.494  15.235  67.691  1.00  0.00    -0.197 C  
HETATM   37  C   UNL     1      -8.111  14.547  66.475  1.00  0.00     0.537 C  
HETATM   38  C   UNL     1      -9.413  16.848  67.732  1.00  0.00    -0.237 C  
HETATM   39  C   UNL     1      -9.148  15.402  65.735  1.00  0.00    -0.053 C  
ENDBRANCH  31  34
ENDBRANCH  23  24
ENDBRANCH  11  23
ENDBRANCH  10  11
ENDBRANCH   6  10
ENDBRANCH   5   6
ENDBRANCH   3   5
ENDBRANCH   2   3
TORSDOF 13
ENDMDL
MODEL      354
REMARK 921   NORMALIZED FREE ENERGY PREDICTED BY IDOCK:   14.89 KCAL/MOL
REMARK 922        TOTAL FREE ENERGY PREDICTED BY IDOCK:   23.74 KCAL/MOL
REMARK 923 INTER-LIGAND FREE ENERGY PREDICTED BY IDOCK:    6.18 KCAL/MOL
REMARK 924 INTRA-LIGAND FREE ENERGY PREDICTED BY IDOCK:   17.56 KCAL/MOL
REMARK 927      BINDING AFFINITY PREDICTED BY RF-SCORE:    0.00 PKD
ROOT
HETATM    1  C   UNL     1      -9.758  16.896  68.578  1.00  0.00    -0.264 C  
HETATM    2  C   UNL     1      -8.603  16.035  69.056  1.00  0.00    -0.244 C  
ENDROOT
BRANCH   2   3
HETATM    3  C   UNL     1      -8.828  15.158  70.285  1.00  0.00     0.824 C  
HETATM    4  O   UNL     1      -8.460  15.490  71.407  1.00  0.00     3.167 OA 
BRANCH   3   5
HETATM    5  O   UNL     1      -9.567  14.055  70.012  1.00  0.00     1.106 OA 
BRANCH   5   6
HETATM    6  C   UNL     1     -10.885  14.236  69.404  1.00  0.00    -0.168 C  
HETATM    7  C   UNL     1     -11.856  14.735  70.535  1.00  0.00    -0.362 C  
HETATM    8  C   UNL     1     -13.294  14.955  70.068  1.00  0.00     0.455 C  
HETATM    9  C   UNL     1     -11.362  16.004  71.233  1.00  0.00    -0.397 C  
BRANCH   6  10
HETATM   10  O   UNL     1     -11.430  13.071  68.714  1.00  0.00    -0.256 OA 
BRANCH  10  11
HETATM   11  P   UNL     1     -11.461  13.108  67.048  1.00  0.00    -0.375 P  
HETATM   12  O   UNL     1     -12.596  12.056  66.998  1.00  0.00     0.360 OA 
BRANCH  11  13
HETATM   13  C   UNL     1     -10.145  11.748  66.513  1.00  0.00    -0.203 C  
BRANCH  13  14
HETATM   14  C   UNL     1     -10.367  10.411  67.228  1.00  0.00    -0.278 C  
BRANCH  14  15
HETATM   15  C   UNL     1      -9.834   9.207  66.471  1.00  0.00    -0.333 C  
BRANCH  15  16
HETATM   16  C   UNL     1     -10.476   7.930  67.036  1.00  0.00    -0.419 C  
BRANCH  16  17
HETATM   17  C   UNL     1      -9.451   7.097  67.753  1.00  0.00    -0.136 A  
HETATM   18  C   UNL     1      -8.098   7.461  67.735  1.00  0.00    -0.119 A  
HETATM   19  C   UNL     1      -9.854   5.982  68.497  1.00  0.00    -0.156 A  
HETATM   20  C   UNL     1      -7.570   5.607  69.194  1.00  0.00    -0.088 A  
HETATM   21  C   UNL     1      -7.160   6.708  68.451  1.00  0.00    -0.083 A  
HETATM   22  C   UNL     1      -8.914   5.246  69.217  1.00  0.00    -0.126 A  
ENDBRANCH  16  17
ENDBRANCH  15  16
ENDBRANCH  14  15
ENDBRANCH  13  14
ENDBRANCH  11  13
BRANCH  11  23
HETATM   23  C   UNL     1     -10.119  14.350  67.107  1.00  0.00    -0.253 C  
BRANCH  23  24
HETATM   24  C   UNL     1      -8.708  13.752  67.260  1.00  0.00    -0.219 C  
HETATM   25  C   UNL     1      -7.079  12.104  68.216  1.00  0.00    -0.084 C  
HETATM   26  O   UNL     1      -7.738  14.336  66.760  1.00  0.00     0.184 OA 
HETATM   27  N   UNL     1      -8.457  12.553  67.890  1.00  0.00    -0.161 N  
HETATM   28  C   UNL     1      -6.154  11.623  67.064  1.00  0.00    -0.138 C  
HETATM   29  O   UNL     1      -5.262  10.792  67.206  1.00  0.00    -0.039 OA 
HETATM   30  C   UNL     1      -9.370  11.447  68.102  1.00  0.00    -0.181 C  
HETATM   31  C   UNL     1      -8.783  10.628  69.265  1.00  0.00    -0.090 C  
HETATM   32  O   UNL     1      -6.306  12.286  65.898  1.00  0.00     1.074 OA 
HETATM   33  C   UNL     1      -7.274  10.951  69.220  1.00  0.00    -0.128 C  
BRANCH  31  34
HETATM   34  C   UNL     1      -9.389  10.905  70.675  1.00  0.00     2.923 C  
HETATM   35  C   UNL     1     -11.823  10.532  70.057  1.00  0.00    -0.388 C  
HETATM   36  C   UNL     1     -11.899   9.256  70.888  1.00  0.00    -0.346 C  
HETATM   37  C   UNL     1     -10.530   8.629  71.142  1.00  0.00    -0.291 C  
HETATM   38  C   UNL     1     -10.807  11.501  70.651  1.00  0.00     1.659 C  
HETATM   39  C   UNL     1      -9.452   9.635  71.562  1.00  0.00     0.754 C  
ENDBRANCH  31  34
ENDBRANCH  23  24
ENDBRANCH  11  23
ENDBRANCH  10  11
ENDBRANCH   6  10
ENDBRANCH   5   6
ENDBRANCH   3   5
ENDBRANCH   2   3
TORSDOF 13
ENDMDL
MODEL      355
REMARK 921   NORMALIZED FREE ENERGY PREDICTED BY IDOCK:   17.22 KCAL/MOL
REMARK 922        TOTAL FREE ENERGY PREDICTED BY IDOCK:   27.84 KCAL/MOL
REMARK 923 INTER-LIGAND FREE ENERGY PREDICTED BY IDOCK:    9.57 KCAL/MOL
REMARK 924 INTRA-LIGAND FREE ENERGY PREDICTED BY IDOCK:   18.27 KCAL/MOL
REMARK 927      BINDING AFFINITY PREDICTED BY RF-SCORE:    0.00 PKD
ROOT
HETATM    1  C   UNL     1     -10.125  18.745  65.105  1.00  0.00     1.502 C  
HETATM    2  C   UNL     1      -9.507  18.633  66.487  1.00  0.00    -0.331 C  
ENDROOT
BRANCH   2   3
HETATM    3  C   UNL     1      -8.000  18.845  66.614  1.00  0.00    -0.270 C  
HETATM    4  O   UNL     1      -7.235  18.714  65.665  1.00  0.00    -0.458 OA 
BRANCH   3   5
HETATM    5  O   UNL     1      -7.637  19.297  67.839  1.00  0.00    -0.263 OA 
BRANCH   5   6
HETATM    6  C   UNL     1      -7.979  18.486  69.007  1.00  0.00    -0.115 C  
HETATM    7  C   UNL     1      -6.988  17.266  69.035  1.00  0.00    -0.235 C  
HETATM    8  C   UNL     1      -7.226  16.297  70.192  1.00  0.00     0.829 C  
HETATM    9  C   UNL     1      -5.518  17.688  69.036  1.00  0.00    -0.175 C  
BRANCH   6  10
HETATM   10  O   UNL     1      -9.368  18.042  69.086  1.00  0.00    -0.126 OA 
BRANCH  10  11
HETATM   11  P   UNL     1      -9.947  17.101  67.839  1.00  0.00    -0.323 P  
HETATM   12  O   UNL     1     -11.409  17.505  68.149  1.00  0.00     0.028 OA 
BRANCH  11  13
HETATM   13  C   UNL     1     -10.235  15.338  68.660  1.00  0.00    -0.223 C  
BRANCH  13  14
HETATM   14  C   UNL     1     -11.230  14.483  67.869  1.00  0.00    -0.310 C  
BRANCH  14  15
HETATM   15  C   UNL     1     -12.184  13.679  68.734  1.00  0.00    -0.204 C  
BRANCH  15  16
HETATM   16  C   UNL     1     -11.383  12.940  69.818  1.00  0.00    -0.107 C  
BRANCH  16  17
HETATM   17  C   UNL     1     -11.821  13.377  71.188  1.00  0.00     0.331 A  
HETATM   18  C   UNL     1     -11.716  14.719  71.576  1.00  0.00    -0.350 A  
HETATM   19  C   UNL     1     -12.396  12.449  72.065  1.00  0.00     0.627 A  
HETATM   20  C   UNL     1     -12.753  14.197  73.696  1.00  0.00     0.563 A  
HETATM   21  C   UNL     1     -12.177  15.123  72.834  1.00  0.00    -0.493 A  
HETATM   22  C   UNL     1     -12.863  12.864  73.312  1.00  0.00     2.819 A  
ENDBRANCH  16  17
ENDBRANCH  15  16
ENDBRANCH  14  15
ENDBRANCH  13  14
ENDBRANCH  11  13
BRANCH  11  23
HETATM   23  C   UNL     1      -8.219  16.623  67.473  1.00  0.00    -0.164 C  
BRANCH  23  24
HETATM   24  C   UNL     1      -8.004  15.107  67.304  1.00  0.00    -0.205 C  
HETATM   25  C   UNL     1      -8.605  12.863  66.362  1.00  0.00     0.240 C  
HETATM   26  O   UNL     1      -7.166  14.526  68.006  1.00  0.00    -0.112 OA 
HETATM   27  N   UNL     1      -8.665  14.347  66.363  1.00  0.00    -0.012 N  
HETATM   28  C   UNL     1      -7.291  12.164  65.915  1.00  0.00     1.541 C  
HETATM   29  O   UNL     1      -7.252  11.056  65.390  1.00  0.00     0.093 OA 
HETATM   30  C   UNL     1      -9.274  14.791  65.125  1.00  0.00     1.138 C  
HETATM   31  C   UNL     1     -10.291  13.702  64.739  1.00  0.00    -0.414 C  
HETATM   32  O   UNL     1      -6.157  12.808  66.266  1.00  0.00     1.094 OA 
HETATM   33  C   UNL     1      -9.750  12.430  65.426  1.00  0.00    -0.129 C  
BRANCH  31  34
HETATM   34  C   UNL     1     -11.776  13.979  65.129  1.00  0.00    -0.353 C  
HETATM   35  C   UNL     1     -12.841  12.292  63.558  1.00  0.00    -0.409 C  
HETATM   36  C   UNL     1     -13.285  11.407  64.717  1.00  0.00     2.996 C  
HETATM   37  C   UNL     1     -12.473  11.639  65.990  1.00  0.00     1.915 C  
HETATM   38  C   UNL     1     -12.784  13.753  63.989  1.00  0.00     0.063 C  
HETATM   39  C   UNL     1     -12.254  13.119  66.327  1.00  0.00    -0.423 C  
ENDBRANCH  31  34
ENDBRANCH  23  24
ENDBRANCH  11  23
ENDBRANCH  10  11
ENDBRANCH   6  10
ENDBRANCH   5   6
ENDBRANCH   3   5
ENDBRANCH   2   3
TORSDOF 13
ENDMDL
MODEL      356
REMARK 921   NORMALIZED FREE ENERGY PREDICTED BY IDOCK:   17.32 KCAL/MOL
REMARK 922        TOTAL FREE ENERGY PREDICTED BY IDOCK:   28.01 KCAL/MOL
REMARK 923 INTER-LIGAND FREE ENERGY PREDICTED BY IDOCK:   20.43 KCAL/MOL
REMARK 924 INTRA-LIGAND FREE ENERGY PREDICTED BY IDOCK:    7.59 KCAL/MOL
REMARK 927      BINDING AFFINITY PREDICTED BY RF-SCORE:    0.00 PKD
ROOT
HETATM    1  C   UNL     1      -9.507  12.307  65.352  1.00  0.00     0.014 C  
HETATM    2  C   UNL     1     -10.488  11.913  66.440  1.00  0.00    -0.258 C  
ENDROOT
BRANCH   2   3
HETATM    3  C   UNL     1     -11.081  10.507  66.390  1.00  0.00     0.169 C  
HETATM    4  O   UNL     1     -10.672   9.647  65.616  1.00  0.00     0.258 OA 
BRANCH   3   5
HETATM    5  O   UNL     1     -12.006  10.294  67.358  1.00  0.00     0.498 OA 
BRANCH   5   6
HETATM    6  C   UNL     1     -11.605  10.476  68.753  1.00  0.00    -0.182 C  
HETATM    7  C   UNL     1     -11.660   9.065  69.442  1.00  0.00     0.515 C  
HETATM    8  C   UNL     1     -11.288   9.081  70.924  1.00  0.00    -0.351 C  
HETATM    9  C   UNL     1     -10.807   8.015  68.728  1.00  0.00     0.019 C  
BRANCH   6  10
HETATM   10  O   UNL     1     -12.369  11.465  69.508  1.00  0.00    -0.252 OA 
BRANCH  10  11
HETATM   11  P   UNL     1     -11.705  12.029  70.929  1.00  0.00     1.256 P  
HETATM   12  O   UNL     1     -12.316  10.857  71.735  1.00  0.00    -0.229 OA 
BRANCH  11  13
HETATM   13  C   UNL     1     -13.064  13.258  71.640  1.00  0.00    -0.363 C  
BRANCH  13  14
HETATM   14  C   UNL     1     -12.460  14.326  72.558  1.00  0.00    -0.242 C  
BRANCH  14  15
HETATM   15  C   UNL     1     -12.710  15.752  72.101  1.00  0.00    -0.520 C  
BRANCH  15  16
HETATM   16  C   UNL     1     -11.580  16.656  72.620  1.00  0.00    -0.035 C  
BRANCH  16  17
HETATM   17  C   UNL     1     -10.777  17.207  71.475  1.00  0.00     2.067 A  
HETATM   18  C   UNL     1     -10.978  18.521  71.032  1.00  0.00     3.323 A  
HETATM   19  C   UNL     1      -9.778  16.425  70.884  1.00  0.00     2.612 A  
HETATM   20  C   UNL     1      -9.191  18.261  69.424  1.00  0.00     0.346 A  
HETATM   21  C   UNL     1     -10.187  19.042  70.001  1.00  0.00     0.914 A  
HETATM   22  C   UNL     1      -8.988  16.956  69.865  1.00  0.00     1.265 A  
ENDBRANCH  16  17
ENDBRANCH  15  16
ENDBRANCH  14  15
ENDBRANCH  13  14
ENDBRANCH  11  13
BRANCH  11  23
HETATM   23  C   UNL     1     -10.983  13.414  69.976  1.00  0.00     0.499 C  
BRANCH  23  24
HETATM   24  C   UNL     1      -9.493  13.235  69.628  1.00  0.00     1.675 C  
HETATM   25  C   UNL     1      -7.489  13.591  68.165  1.00  0.00    -0.132 C  
HETATM   26  O   UNL     1      -8.797  12.463  70.299  1.00  0.00     3.607 OA 
HETATM   27  N   UNL     1      -8.860  13.934  68.624  1.00  0.00    -0.127 N  
HETATM   28  C   UNL     1      -6.282  13.933  69.082  1.00  0.00    -0.098 C  
HETATM   29  O   UNL     1      -5.157  14.184  68.664  1.00  0.00    -0.082 OA 
HETATM   30  C   UNL     1      -9.241  15.206  68.043  1.00  0.00    -0.185 C  
HETATM   31  C   UNL     1      -8.549  15.270  66.670  1.00  0.00    -0.305 C  
HETATM   32  O   UNL     1      -6.519  13.805  70.405  1.00  0.00    -0.058 OA 
HETATM   33  C   UNL     1      -7.331  14.335  66.825  1.00  0.00     0.970 C  
BRANCH  31  34
HETATM   34  C   UNL     1      -9.425  14.876  65.440  1.00  0.00     0.085 C  
HETATM   35  C   UNL     1     -11.688  15.134  66.562  1.00  0.00    -0.030 C  
HETATM   36  C   UNL     1     -12.034  16.353  65.714  1.00  0.00     1.716 C  
HETATM   37  C   UNL     1     -10.801  17.048  65.139  1.00  0.00    -0.059 C  
HETATM   38  C   UNL     1     -10.756  14.197  65.801  1.00  0.00    -0.301 C  
HETATM   39  C   UNL     1      -9.769  16.087  64.536  1.00  0.00     2.430 C  
ENDBRANCH  31  34
ENDBRANCH  23  24
ENDBRANCH  11  23
ENDBRANCH  10  11
ENDBRANCH   6  10
ENDBRANCH   5   6
ENDBRANCH   3   5
ENDBRANCH   2   3
TORSDOF 13
ENDMDL
MODEL      357
REMARK 921   NORMALIZED FREE ENERGY PREDICTED BY IDOCK:   17.43 KCAL/MOL
REMARK 922        TOTAL FREE ENERGY PREDICTED BY IDOCK:   28.22 KCAL/MOL
REMARK 923 INTER-LIGAND FREE ENERGY PREDICTED BY IDOCK:   -3.33 KCAL/MOL
REMARK 924 INTRA-LIGAND FREE ENERGY PREDICTED BY IDOCK:   31.54 KCAL/MOL
REMARK 927      BINDING AFFINITY PREDICTED BY RF-SCORE:    0.00 PKD
ROOT
HETATM    1  C   UNL     1      -6.859   9.917  69.913  1.00  0.00    -0.096 C  
HETATM    2  C   UNL     1      -7.023   8.464  70.320  1.00  0.00    -0.036 C  
ENDROOT
BRANCH   2   3
HETATM    3  C   UNL     1      -5.801   7.554  70.222  1.00  0.00    -0.023 C  
HETATM    4  O   UNL     1      -5.398   6.889  71.171  1.00  0.00    -0.026 OA 
BRANCH   3   5
HETATM    5  O   UNL     1      -5.302   7.482  68.964  1.00  0.00    -0.018 OA 
BRANCH   5   6
HETATM    6  C   UNL     1      -5.995   8.208  67.900  1.00  0.00    -0.043 C  
HETATM    7  C   UNL     1      -5.399   7.712  66.532  1.00  0.00    -0.025 C  
HETATM    8  C   UNL     1      -6.005   8.394  65.306  1.00  0.00    -0.045 C  
HETATM    9  C   UNL     1      -5.492   6.196  66.352  1.00  0.00    -0.013 C  
BRANCH   6  10
HETATM   10  O   UNL     1      -5.957   9.664  67.998  1.00  0.00    -0.043 OA 
BRANCH  10  11
HETATM   11  P   UNL     1      -7.144  10.405  68.903  1.00  0.00    -0.090 P  
HETATM   12  O   UNL     1      -7.054   9.317  70.000  1.00  0.00    -0.055 OA 
BRANCH  11  13
HETATM   13  C   UNL     1      -8.819   9.625  68.232  1.00  0.00    -0.120 C  
BRANCH  13  14
HETATM   14  C   UNL     1      -8.792   8.092  68.244  1.00  0.00    -0.133 C  
BRANCH  14  15
HETATM   15  C   UNL     1      -8.984   7.458  66.877  1.00  0.00    -0.150 C  
BRANCH  15  16
HETATM   16  C   UNL     1     -10.025   6.332  66.984  1.00  0.00    -0.201 C  
BRANCH  16  17
HETATM   17  C   UNL     1      -9.349   4.990  67.011  1.00  0.00    -0.133 A  
HETATM   18  C   UNL     1      -9.464   4.157  68.132  1.00  0.00    -0.215 A  
HETATM   19  C   UNL     1      -8.649   4.539  65.886  1.00  0.00    -0.115 A  
HETATM   20  C   UNL     1      -8.189   2.443  67.000  1.00  0.00    -0.083 A  
HETATM   21  C   UNL     1      -8.876   2.887  68.124  1.00  0.00    -0.166 A  
HETATM   22  C   UNL     1      -8.076   3.267  65.884  1.00  0.00    -0.093 A  
ENDBRANCH  16  17
ENDBRANCH  15  16
ENDBRANCH  14  15
ENDBRANCH  13  14
ENDBRANCH  11  13
BRANCH  11  23
HETATM   23  C   UNL     1      -7.251  11.692  67.606  1.00  0.00    -0.107 C  
BRANCH  23  24
HETATM   24  C   UNL     1      -8.017  11.256  66.343  1.00  0.00    -0.125 C  
HETATM   25  C   UNL     1     -10.028  11.258  64.847  1.00  0.00    -0.274 C  
HETATM   26  O   UNL     1      -7.544  10.375  65.614  1.00  0.00    -0.144 OA 
HETATM   27  N   UNL     1      -9.200  11.834  65.937  1.00  0.00    -0.206 N  
HETATM   28  C   UNL     1      -9.533  11.385  63.380  1.00  0.00    -0.277 C  
HETATM   29  O   UNL     1     -10.280  11.438  62.409  1.00  0.00     0.246 OA 
HETATM   30  C   UNL     1      -9.707  13.153  66.260  1.00  0.00    -0.265 C  
HETATM   31  C   UNL     1     -11.226  13.096  66.017  1.00  0.00    -0.316 C  
HETATM   32  O   UNL     1      -8.195  11.301  63.222  1.00  0.00     0.216 OA 
HETATM   33  C   UNL     1     -11.392  11.963  64.981  1.00  0.00    -0.333 C  
BRANCH  31  34
HETATM   34  C   UNL     1     -12.115  12.860  67.277  1.00  0.00    -0.275 C  
HETATM   35  C   UNL     1     -10.350  13.394  69.021  1.00  0.00    -0.004 C  
HETATM   36  C   UNL     1     -11.068  14.672  69.440  1.00  0.00    -0.293 C  
HETATM   37  C   UNL     1     -12.009  15.207  68.363  1.00  0.00    -0.216 C  
HETATM   38  C   UNL     1     -11.347  12.359  68.511  1.00  0.00    -0.336 C  
HETATM   39  C   UNL     1     -12.887  14.131  67.713  1.00  0.00     1.301 C  
ENDBRANCH  31  34
ENDBRANCH  23  24
ENDBRANCH  11  23
ENDBRANCH  10  11
ENDBRANCH   6  10
ENDBRANCH   5   6
ENDBRANCH   3   5
ENDBRANCH   2   3
TORSDOF 13
ENDMDL
MODEL      358
REMARK 921   NORMALIZED FREE ENERGY PREDICTED BY IDOCK:   22.98 KCAL/MOL
REMARK 922        TOTAL FREE ENERGY PREDICTED BY IDOCK:   37.97 KCAL/MOL
REMARK 923 INTER-LIGAND FREE ENERGY PREDICTED BY IDOCK:   29.28 KCAL/MOL
REMARK 924 INTRA-LIGAND FREE ENERGY PREDICTED BY IDOCK:    8.69 KCAL/MOL
REMARK 927      BINDING AFFINITY PREDICTED BY RF-SCORE:    0.00 PKD
ROOT
HETATM    1  C   UNL     1     -12.803  10.006  69.120  1.00  0.00     2.052 C  
HETATM    2  C   UNL     1     -13.103  11.435  69.533  1.00  0.00     1.133 C  
ENDROOT
BRANCH   2   3
HETATM    3  C   UNL     1     -12.462  12.561  68.726  1.00  0.00     0.567 C  
HETATM    4  O   UNL     1     -12.839  13.725  68.807  1.00  0.00     0.564 OA 
BRANCH   3   5
HETATM    5  O   UNL     1     -11.380  12.149  68.020  1.00  0.00    -0.251 OA 
BRANCH   5   6
HETATM    6  C   UNL     1     -11.059  12.845  66.775  1.00  0.00    -0.281 C  
HETATM    7  C   UNL     1     -11.773  12.070  65.609  1.00  0.00    -0.312 C  
HETATM    8  C   UNL     1     -11.519  12.660  64.223  1.00  0.00    -0.420 C  
HETATM    9  C   UNL     1     -13.282  11.928  65.819  1.00  0.00     4.190 C  
BRANCH   6  10
HETATM   10  O   UNL     1      -9.636  13.025  66.498  1.00  0.00    -0.252 OA 
BRANCH  10  11
HETATM   11  P   UNL     1      -8.800  14.112  67.445  1.00  0.00    -0.227 P  
HETATM   12  O   UNL     1      -9.562  13.664  68.716  1.00  0.00    -0.143 OA 
BRANCH  11  13
HETATM   13  C   UNL     1      -9.874  15.756  67.352  1.00  0.00    -0.233 C  
BRANCH  13  14
HETATM   14  C   UNL     1     -10.869  15.868  68.512  1.00  0.00    -0.298 C  
BRANCH  14  15
HETATM   15  C   UNL     1     -11.418  17.267  68.726  1.00  0.00     0.744 C  
BRANCH  15  16
HETATM   16  C   UNL     1     -12.617  17.490  67.790  1.00  0.00     4.498 C  
BRANCH  16  17
HETATM   17  C   UNL     1     -12.357  16.875  66.444  1.00  0.00     3.973 A  
HETATM   18  C   UNL     1     -11.230  17.244  65.698  1.00  0.00     0.559 A  
HETATM   19  C   UNL     1     -13.211  15.880  65.955  1.00  0.00     4.010 A  
HETATM   20  C   UNL     1     -11.819  15.632  63.995  1.00  0.00     0.058 A  
HETATM   21  C   UNL     1     -10.969  16.625  64.469  1.00  0.00     0.159 A  
HETATM   22  C   UNL     1     -12.937  15.261  64.736  1.00  0.00     0.829 A  
ENDBRANCH  16  17
ENDBRANCH  15  16
ENDBRANCH  14  15
ENDBRANCH  13  14
ENDBRANCH  11  13
BRANCH  11  23
HETATM   23  C   UNL     1      -7.900  14.642  65.942  1.00  0.00     3.156 C  
BRANCH  23  24
HETATM   24  C   UNL     1      -7.572  16.146  65.898  1.00  0.00     1.205 C  
HETATM   25  C   UNL     1      -6.518  18.224  66.821  1.00  0.00    -0.182 C  
HETATM   26  O   UNL     1      -8.110  16.865  65.046  1.00  0.00     1.836 OA 
HETATM   27  N   UNL     1      -6.658  16.748  66.734  1.00  0.00    -0.211 N  
HETATM   28  C   UNL     1      -5.851  18.986  65.643  1.00  0.00    -0.179 C  
HETATM   29  O   UNL     1      -5.229  20.036  65.773  1.00  0.00    -0.161 OA 
HETATM   30  C   UNL     1      -5.550  16.133  67.437  1.00  0.00    -0.105 C  
HETATM   31  C   UNL     1      -5.199  17.085  68.594  1.00  0.00    -0.132 C  
HETATM   32  O   UNL     1      -6.113  18.482  64.419  1.00  0.00    -0.299 OA 
HETATM   33  C   UNL     1      -5.698  18.462  68.104  1.00  0.00    -0.176 C  
BRANCH  31  34
HETATM   34  C   UNL     1      -5.793  16.720  69.989  1.00  0.00    -0.210 C  
HETATM   35  C   UNL     1      -7.567  18.535  70.068  1.00  0.00     1.170 C  
HETATM   36  C   UNL     1      -8.695  17.518  69.941  1.00  0.00     1.696 C  
HETATM   37  C   UNL     1      -8.240  16.196  69.326  1.00  0.00    -0.183 C  
HETATM   38  C   UNL     1      -6.362  17.918  70.769  1.00  0.00     1.180 C  
HETATM   39  C   UNL     1      -6.923  15.663  69.903  1.00  0.00    -0.045 C  
ENDBRANCH  31  34
ENDBRANCH  23  24
ENDBRANCH  11  23
ENDBRANCH  10  11
ENDBRANCH   6  10
ENDBRANCH   5   6
ENDBRANCH   3   5
ENDBRANCH   2   3
TORSDOF 13
ENDMDL
MODEL      359
REMARK 921   NORMALIZED FREE ENERGY PREDICTED BY IDOCK:   24.24 KCAL/MOL
REMARK 922        TOTAL FREE ENERGY PREDICTED BY IDOCK:   40.20 KCAL/MOL
REMARK 923 INTER-LIGAND FREE ENERGY PREDICTED BY IDOCK:    1.82 KCAL/MOL
REMARK 924 INTRA-LIGAND FREE ENERGY PREDICTED BY IDOCK:   38.38 KCAL/MOL
REMARK 927      BINDING AFFINITY PREDICTED BY RF-SCORE:    0.00 PKD
ROOT
HETATM    1  C   UNL     1      -6.364  10.099  69.285  1.00  0.00    -0.046 C  
HETATM    2  C   UNL     1      -6.828   8.913  70.111  1.00  0.00    -0.042 C  
ENDROOT
BRANCH   2   3
HETATM    3  C   UNL     1      -5.783   7.884  70.532  1.00  0.00    -0.029 C  
HETATM    4  O   UNL     1      -5.565   7.610  71.707  1.00  0.00    -0.035 OA 
BRANCH   3   5
HETATM    5  O   UNL     1      -5.225   7.242  69.476  1.00  0.00    -0.015 OA 
BRANCH   5   6
HETATM    6  C   UNL     1      -5.683   7.591  68.132  1.00  0.00    -0.027 C  
HETATM    7  C   UNL     1      -5.166   6.472  67.157  1.00  0.00    -0.008 C  
HETATM    8  C   UNL     1      -5.542   6.698  65.694  1.00  0.00    -0.029 C  
HETATM    9  C   UNL     1      -5.607   5.066  67.571  1.00  0.00    -0.013 C  
BRANCH   6  10
HETATM   10  O   UNL     1      -5.307   8.921  67.659  1.00  0.00    -0.034 OA 
BRANCH  10  11
HETATM   11  P   UNL     1      -6.219  10.212  68.186  1.00  0.00    -0.048 P  
HETATM   12  O   UNL     1      -5.997   9.824  69.668  1.00  0.00    -0.039 OA 
BRANCH  11  13
HETATM   13  C   UNL     1      -8.053   9.509  68.251  1.00  0.00    -0.102 C  
BRANCH  13  14
HETATM   14  C   UNL     1      -8.149   8.205  69.051  1.00  0.00    -0.115 C  
BRANCH  14  15
HETATM   15  C   UNL     1      -8.710   7.034  68.263  1.00  0.00    -0.127 C  
BRANCH  15  16
HETATM   16  C   UNL     1      -9.931   6.465  69.003  1.00  0.00    -0.171 C  
BRANCH  16  17
HETATM   17  C   UNL     1      -9.598   5.142  69.631  1.00  0.00    -0.234 A  
HETATM   18  C   UNL     1      -9.644   4.982  71.022  1.00  0.00    -0.232 A  
HETATM   19  C   UNL     1      -9.298   4.041  68.821  1.00  0.00    -0.227 A  
HETATM   20  C   UNL     1      -9.095   2.640  70.781  1.00  0.00    -0.189 A  
HETATM   21  C   UNL     1      -9.385   3.730  71.593  1.00  0.00    -0.198 A  
HETATM   22  C   UNL     1      -9.052   2.795  69.398  1.00  0.00    -0.189 A  
ENDBRANCH  16  17
ENDBRANCH  15  16
ENDBRANCH  14  15
ENDBRANCH  13  14
ENDBRANCH  11  13
BRANCH  11  23
HETATM   23  C   UNL     1      -6.480  10.670  66.434  1.00  0.00    -0.117 C  
BRANCH  23  24
HETATM   24  C   UNL     1      -7.369   9.687  65.649  1.00  0.00    -0.101 C  
HETATM   25  C   UNL     1      -9.482   9.063  64.454  1.00  0.00     0.652 C  
HETATM   26  O   UNL     1      -7.017   8.507  65.526  1.00  0.00    -0.072 OA 
HETATM   27  N   UNL     1      -8.535  10.059  65.016  1.00  0.00    -0.150 N  
HETATM   28  C   UNL     1      -9.091   8.304  63.155  1.00  0.00     1.072 C  
HETATM   29  O   UNL     1      -9.904   7.884  62.338  1.00  0.00     2.544 OA 
HETATM   30  C   UNL     1      -8.921  11.379  64.557  1.00  0.00     0.185 C  
HETATM   31  C   UNL     1     -10.454  11.351  64.422  1.00  0.00    -0.388 C  
HETATM   32  O   UNL     1      -7.778   8.011  63.042  1.00  0.00    -0.121 OA 
HETATM   33  C   UNL     1     -10.778   9.857  64.201  1.00  0.00     2.387 C  
BRANCH  31  34
HETATM   34  C   UNL     1     -11.260  11.945  65.618  1.00  0.00    -0.360 C  
HETATM   35  C   UNL     1      -9.321  13.116  66.763  1.00  0.00    -0.244 C  
HETATM   36  C   UNL     1      -9.878  14.494  66.426  1.00  0.00    -0.306 C  
HETATM   37  C   UNL     1     -10.846  14.472  65.244  1.00  0.00    -0.377 C  
HETATM   38  C   UNL     1     -10.448  12.102  66.915  1.00  0.00    -0.250 C  
HETATM   39  C   UNL     1     -11.871  13.333  65.300  1.00  0.00    -0.386 C  
ENDBRANCH  31  34
ENDBRANCH  23  24
ENDBRANCH  11  23
ENDBRANCH  10  11
ENDBRANCH   6  10
ENDBRANCH   5   6
ENDBRANCH   3   5
ENDBRANCH   2   3
TORSDOF 13
ENDMDL
MODEL      360
REMARK 921   NORMALIZED FREE ENERGY PREDICTED BY IDOCK:   26.27 KCAL/MOL
REMARK 922        TOTAL FREE ENERGY PREDICTED BY IDOCK:   43.77 KCAL/MOL
REMARK 923 INTER-LIGAND FREE ENERGY PREDICTED BY IDOCK:   26.88 KCAL/MOL
REMARK 924 INTRA-LIGAND FREE ENERGY PREDICTED BY IDOCK:   16.89 KCAL/MOL
REMARK 927      BINDING AFFINITY PREDICTED BY RF-SCORE:    0.00 PKD
ROOT
HETATM    1  C   UNL     1     -10.165  13.783  70.098  1.00  0.00     1.557 C  
HETATM    2  C   UNL     1     -10.081  12.477  69.331  1.00  0.00     0.663 C  
ENDROOT
BRANCH   2   3
HETATM    3  C   UNL     1      -8.845  12.234  68.468  1.00  0.00    -0.068 C  
HETATM    4  O   UNL     1      -8.208  11.186  68.512  1.00  0.00    -0.135 OA 
BRANCH   3   5
HETATM    5  O   UNL     1      -8.614  13.239  67.589  1.00  0.00    -0.171 OA 
BRANCH   5   6
HETATM    6  C   UNL     1      -7.700  12.990  66.475  1.00  0.00     0.886 C  
HETATM    7  C   UNL     1      -6.672  11.899  66.950  1.00  0.00    -0.076 C  
HETATM    8  C   UNL     1      -5.622  11.536  65.902  1.00  0.00     0.341 C  
HETATM    9  C   UNL     1      -7.345  10.617  67.444  1.00  0.00    -0.093 C  
BRANCH   6  10
HETATM   10  O   UNL     1      -7.016  14.165  65.941  1.00  0.00     4.041 OA 
BRANCH  10  11
HETATM   11  P   UNL     1      -6.660  15.398  67.003  1.00  0.00     0.841 P  
HETATM   12  O   UNL     1      -5.218  15.518  66.455  1.00  0.00     1.084 OA 
BRANCH  11  13
HETATM   13  C   UNL     1      -5.999  14.474  68.608  1.00  0.00    -0.089 C  
BRANCH  13  14
HETATM   14  C   UNL     1      -7.130  14.105  69.574  1.00  0.00    -0.003 C  
BRANCH  14  15
HETATM   15  C   UNL     1      -6.696  13.214  70.725  1.00  0.00     1.427 C  
BRANCH  15  16
HETATM   16  C   UNL     1      -5.478  12.384  70.290  1.00  0.00    -0.139 C  
BRANCH  16  17
HETATM   17  C   UNL     1      -5.682  10.933  70.622  1.00  0.00    -0.123 A  
HETATM   18  C   UNL     1      -6.307  10.557  71.818  1.00  0.00     1.193 A  
HETATM   19  C   UNL     1      -5.302   9.947  69.704  1.00  0.00    -0.034 A  
HETATM   20  C   UNL     1      -6.167   8.232  71.170  1.00  0.00    -0.036 A  
HETATM   21  C   UNL     1      -6.541   9.204  72.091  1.00  0.00     0.158 A  
HETATM   22  C   UNL     1      -5.549   8.603  69.980  1.00  0.00    -0.028 A  
ENDBRANCH  16  17
ENDBRANCH  15  16
ENDBRANCH  14  15
ENDBRANCH  13  14
ENDBRANCH  11  13
BRANCH  11  23
HETATM   23  C   UNL     1      -8.366  15.256  67.651  1.00  0.00    -0.164 C  
BRANCH  23  24
HETATM   24  C   UNL     1      -9.030  16.604  67.987  1.00  0.00    -0.211 C  
HETATM   25  C   UNL     1     -10.376  18.117  69.464  1.00  0.00     0.387 C  
HETATM   26  O   UNL     1      -9.067  17.498  67.132  1.00  0.00    -0.234 OA 
HETATM   27  N   UNL     1      -9.553  16.904  69.226  1.00  0.00    -0.148 N  
HETATM   28  C   UNL     1      -9.678  19.506  69.490  1.00  0.00    -0.023 C  
HETATM   29  O   UNL     1     -10.082  20.461  70.144  1.00  0.00     0.211 OA 
HETATM   30  C   UNL     1      -9.217  16.310  70.505  1.00  0.00     2.140 C  
HETATM   31  C   UNL     1     -10.409  16.602  71.434  1.00  0.00     2.491 C  
HETATM   32  O   UNL     1      -8.650  19.641  68.625  1.00  0.00    -0.335 OA 
HETATM   33  C   UNL     1     -11.051  17.868  70.826  1.00  0.00     2.522 C  
BRANCH  31  34
HETATM   34  C   UNL     1     -11.449  15.451  71.600  1.00  0.00    -0.492 C  
HETATM   35  C   UNL     1     -13.538  16.891  71.510  1.00  0.00     6.083 C  
HETATM   36  C   UNL     1     -13.947  16.315  70.160  1.00  0.00     3.993 C  
HETATM   37  C   UNL     1     -12.776  15.706  69.392  1.00  0.00     0.338 C  
HETATM   38  C   UNL     1     -12.746  15.866  72.315  1.00  0.00    -0.515 C  
HETATM   39  C   UNL     1     -11.864  14.818  70.248  1.00  0.00    -0.357 C  
ENDBRANCH  31  34
ENDBRANCH  23  24
ENDBRANCH  11  23
ENDBRANCH  10  11
ENDBRANCH   6  10
ENDBRANCH   5   6
ENDBRANCH   3   5
ENDBRANCH   2   3
TORSDOF 13
ENDMDL
MODEL      361
REMARK 921   NORMALIZED FREE ENERGY PREDICTED BY IDOCK:   26.42 KCAL/MOL
REMARK 922        TOTAL FREE ENERGY PREDICTED BY IDOCK:   44.04 KCAL/MOL
REMARK 923 INTER-LIGAND FREE ENERGY PREDICTED BY IDOCK:   26.77 KCAL/MOL
REMARK 924 INTRA-LIGAND FREE ENERGY PREDICTED BY IDOCK:   17.27 KCAL/MOL
REMARK 927      BINDING AFFINITY PREDICTED BY RF-SCORE:    0.00 PKD
ROOT
HETATM    1  C   UNL     1     -10.173  13.795  70.195  1.00  0.00     1.557 C  
HETATM    2  C   UNL     1      -9.637  12.566  69.482  1.00  0.00     1.373 C  
ENDROOT
BRANCH   2   3
HETATM    3  C   UNL     1      -8.197  12.606  68.976  1.00  0.00     0.389 C  
HETATM    4  O   UNL     1      -7.418  11.672  69.134  1.00  0.00    -0.089 OA 
BRANCH   3   5
HETATM    5  O   UNL     1      -7.928  13.719  68.250  1.00  0.00    -0.130 OA 
BRANCH   5   6
HETATM    6  C   UNL     1      -6.601  13.850  67.649  1.00  0.00    -0.164 C  
HETATM    7  C   UNL     1      -6.582  15.205  66.852  1.00  0.00     0.776 C  
HETATM    8  C   UNL     1      -5.261  15.488  66.138  1.00  0.00     3.556 C  
HETATM    9  C   UNL     1      -6.948  16.414  67.715  1.00  0.00    -0.157 C  
BRANCH   6  10
HETATM   10  O   UNL     1      -6.171  12.735  66.810  1.00  0.00    -0.037 OA 
BRANCH  10  11
HETATM   11  P   UNL     1      -7.343  11.932  65.939  1.00  0.00     1.656 P  
HETATM   12  O   UNL     1      -6.570  12.143  64.615  1.00  0.00     3.691 OA 
BRANCH  11  13
HETATM   13  C   UNL     1      -8.623  13.339  65.444  1.00  0.00     2.196 C  
BRANCH  13  14
HETATM   14  C   UNL     1      -9.805  13.419  66.417  1.00  0.00    -0.299 C  
BRANCH  14  15
HETATM   15  C   UNL     1     -10.670  14.654  66.242  1.00  0.00    -0.316 C  
BRANCH  15  16
HETATM   16  C   UNL     1      -9.787  15.831  65.796  1.00  0.00    -0.383 C  
BRANCH  16  17
HETATM   17  C   UNL     1     -10.046  17.039  66.652  1.00  0.00    -0.308 A  
HETATM   18  C   UNL     1     -11.349  17.363  67.052  1.00  0.00     0.713 A  
HETATM   19  C   UNL     1      -8.973  17.815  67.106  1.00  0.00    -0.249 A  
HETATM   20  C   UNL     1     -10.500  19.219  68.347  1.00  0.00    -0.331 A  
HETATM   21  C   UNL     1     -11.573  18.458  67.894  1.00  0.00     1.372 A  
HETATM   22  C   UNL     1      -9.204  18.898  67.954  1.00  0.00    -0.339 A  
ENDBRANCH  16  17
ENDBRANCH  15  16
ENDBRANCH  14  15
ENDBRANCH  13  14
ENDBRANCH  11  13
BRANCH  11  23
HETATM   23  C   UNL     1      -8.256  11.683  67.505  1.00  0.00    -0.148 C  
BRANCH  23  24
HETATM   24  C   UNL     1      -8.717  10.233  67.745  1.00  0.00    -0.121 C  
HETATM   25  C   UNL     1     -10.474   8.494  68.158  1.00  0.00    -0.182 C  
HETATM   26  O   UNL     1      -7.875   9.346  67.933  1.00  0.00    -0.091 OA 
HETATM   27  N   UNL     1     -10.038   9.842  67.713  1.00  0.00    -0.169 N  
HETATM   28  C   UNL     1     -10.152   7.265  67.263  1.00  0.00    -0.225 C  
HETATM   29  O   UNL     1     -10.842   6.252  67.219  1.00  0.00    -0.301 OA 
HETATM   30  C   UNL     1     -11.146  10.493  67.042  1.00  0.00    -0.110 C  
HETATM   31  C   UNL     1     -12.421   9.981  67.735  1.00  0.00     4.724 C  
HETATM   32  O   UNL     1      -8.967   7.327  66.619  1.00  0.00    -0.137 OA 
HETATM   33  C   UNL     1     -12.002   8.614  68.317  1.00  0.00     3.034 C  
BRANCH  31  34
HETATM   34  C   UNL     1     -13.030  10.911  68.829  1.00  0.00     2.287 C  
HETATM   35  C   UNL     1     -13.743   9.085  70.443  1.00  0.00     1.034 C  
HETATM   36  C   UNL     1     -12.692   9.499  71.466  1.00  0.00    -0.461 C  
HETATM   37  C   UNL     1     -11.537  10.286  70.850  1.00  0.00    -0.454 C  
HETATM   38  C   UNL     1     -14.193  10.286  69.618  1.00  0.00     4.043 C  
HETATM   39  C   UNL     1     -11.981  11.379  69.870  1.00  0.00    -0.434 C  
ENDBRANCH  31  34
ENDBRANCH  23  24
ENDBRANCH  11  23
ENDBRANCH  10  11
ENDBRANCH   6  10
ENDBRANCH   5   6
ENDBRANCH   3   5
ENDBRANCH   2   3
TORSDOF 13
ENDMDL
MODEL      362
REMARK 921   NORMALIZED FREE ENERGY PREDICTED BY IDOCK:   32.30 KCAL/MOL
REMARK 922        TOTAL FREE ENERGY PREDICTED BY IDOCK:   54.38 KCAL/MOL
REMARK 923 INTER-LIGAND FREE ENERGY PREDICTED BY IDOCK:   42.40 KCAL/MOL
REMARK 924 INTRA-LIGAND FREE ENERGY PREDICTED BY IDOCK:   11.98 KCAL/MOL
REMARK 927      BINDING AFFINITY PREDICTED BY RF-SCORE:    0.00 PKD
ROOT
HETATM    1  C   UNL     1      -8.062   7.323  69.213  1.00  0.00    -0.124 C  
HETATM    2  C   UNL     1      -9.058   6.825  70.244  1.00  0.00    -0.153 C  
ENDROOT
BRANCH   2   3
HETATM    3  C   UNL     1      -9.549   7.814  71.298  1.00  0.00    -0.157 C  
HETATM    4  O   UNL     1     -10.551   7.610  71.976  1.00  0.00    -0.208 OA 
BRANCH   3   5
HETATM    5  O   UNL     1      -8.702   8.858  71.471  1.00  0.00    -0.228 OA 
BRANCH   5   6
HETATM    6  C   UNL     1      -7.638   9.058  70.488  1.00  0.00    -0.110 C  
HETATM    7  C   UNL     1      -6.616  10.080  71.107  1.00  0.00     0.199 C  
HETATM    8  C   UNL     1      -5.443  10.419  70.189  1.00  0.00    -0.051 C  
HETATM    9  C   UNL     1      -6.071   9.634  72.465  1.00  0.00     0.438 C  
BRANCH   6  10
HETATM   10  O   UNL     1      -8.074   9.483  69.160  1.00  0.00    -0.094 OA 
BRANCH  10  11
HETATM   11  P   UNL     1      -9.233  10.676  69.076  1.00  0.00    -0.086 P  
HETATM   12  O   UNL     1     -10.208   9.858  69.957  1.00  0.00    -0.244 OA 
BRANCH  11  13
HETATM   13  C   UNL     1     -10.270  10.226  67.468  1.00  0.00    -0.210 C  
BRANCH  13  14
HETATM   14  C   UNL     1     -11.431  11.199  67.233  1.00  0.00    -0.218 C  
BRANCH  14  15
HETATM   15  C   UNL     1     -12.038  11.117  65.843  1.00  0.00     1.784 C  
BRANCH  15  16
HETATM   16  C   UNL     1     -12.712   9.747  65.666  1.00  0.00    12.697 C  
BRANCH  16  17
HETATM   17  C   UNL     1     -11.984   8.694  66.453  1.00  0.00     6.987 A  
HETATM   18  C   UNL     1     -10.947   7.956  65.867  1.00  0.00     3.162 A  
HETATM   19  C   UNL     1     -12.299   8.489  67.801  1.00  0.00     6.635 A  
HETATM   20  C   UNL     1     -10.555   6.824  67.966  1.00  0.00    -0.283 A  
HETATM   21  C   UNL     1     -10.240   7.016  66.626  1.00  0.00    -0.218 A  
HETATM   22  C   UNL     1     -11.582   7.559  68.552  1.00  0.00     1.036 A  
ENDBRANCH  16  17
ENDBRANCH  15  16
ENDBRANCH  14  15
ENDBRANCH  13  14
ENDBRANCH  11  13
BRANCH  11  23
HETATM   23  C   UNL     1      -8.081  11.644  68.034  1.00  0.00    -0.139 C  
BRANCH  23  24
HETATM   24  C   UNL     1      -7.298  12.729  68.797  1.00  0.00    -0.067 C  
HETATM   25  C   UNL     1      -7.086  14.988  69.863  1.00  0.00    -0.121 C  
HETATM   26  O   UNL     1      -6.085  12.582  68.997  1.00  0.00    -0.070 OA 
HETATM   27  N   UNL     1      -7.886  13.857  69.326  1.00  0.00     0.154 N  
HETATM   28  C   UNL     1      -6.348  14.810  71.219  1.00  0.00     0.395 C  
HETATM   29  O   UNL     1      -6.110  15.731  71.993  1.00  0.00     1.186 OA 
HETATM   30  C   UNL     1      -9.274  14.051  69.696  1.00  0.00     1.010 C  
HETATM   31  C   UNL     1      -9.497  15.574  69.721  1.00  0.00    -0.178 C  
HETATM   32  O   UNL     1      -5.857  13.572  71.440  1.00  0.00    -0.305 OA 
HETATM   33  C   UNL     1      -8.090  16.150  69.985  1.00  0.00     0.941 C  
BRANCH  31  34
HETATM   34  C   UNL     1     -10.144  16.195  68.445  1.00  0.00    -0.236 C  
HETATM   35  C   UNL     1     -12.406  16.738  69.463  1.00  0.00     2.056 C  
HETATM   36  C   UNL     1     -12.146  18.238  69.383  1.00  0.00     7.165 C  
HETATM   37  C   UNL     1     -10.660  18.582  69.303  1.00  0.00     0.579 C  
HETATM   38  C   UNL     1     -11.668  16.004  68.349  1.00  0.00    -0.196 C  
HETATM   39  C   UNL     1      -9.873  17.715  68.313  1.00  0.00    -0.324 C  
ENDBRANCH  31  34
ENDBRANCH  23  24
ENDBRANCH  11  23
ENDBRANCH  10  11
ENDBRANCH   6  10
ENDBRANCH   5   6
ENDBRANCH   3   5
ENDBRANCH   2   3
TORSDOF 13
ENDMDL
MODEL      363
REMARK 921   NORMALIZED FREE ENERGY PREDICTED BY IDOCK:   35.28 KCAL/MOL
REMARK 922        TOTAL FREE ENERGY PREDICTED BY IDOCK:   59.62 KCAL/MOL
REMARK 923 INTER-LIGAND FREE ENERGY PREDICTED BY IDOCK:    2.49 KCAL/MOL
REMARK 924 INTRA-LIGAND FREE ENERGY PREDICTED BY IDOCK:   57.13 KCAL/MOL
REMARK 927      BINDING AFFINITY PREDICTED BY RF-SCORE:    0.00 PKD
ROOT
HETATM    1  C   UNL     1     -10.094  18.712  64.764  1.00  0.00     3.318 C  
HETATM    2  C   UNL     1      -9.312  18.360  66.017  1.00  0.00    -0.012 C  
ENDROOT
BRANCH   2   3
HETATM    3  C   UNL     1      -7.797  18.537  65.986  1.00  0.00    -0.148 C  
HETATM    4  O   UNL     1      -7.173  18.686  64.940  1.00  0.00    -0.009 OA 
BRANCH   3   5
HETATM    5  O   UNL     1      -7.254  18.626  67.225  1.00  0.00    -0.208 OA 
BRANCH   5   6
HETATM    6  C   UNL     1      -7.702  17.681  68.247  1.00  0.00    -0.253 C  
HETATM    7  C   UNL     1      -6.954  16.323  67.987  1.00  0.00    -0.140 C  
HETATM    8  C   UNL     1      -7.329  15.209  68.964  1.00  0.00    -0.155 C  
HETATM    9  C   UNL     1      -5.432  16.472  67.965  1.00  0.00    -0.120 C  
BRANCH   6  10
HETATM   10  O   UNL     1      -9.146  17.482  68.338  1.00  0.00    -0.262 OA 
BRANCH  10  11
HETATM   11  P   UNL     1      -9.901  16.732  67.056  1.00  0.00    -0.281 P  
HETATM   12  O   UNL     1     -11.302  17.058  67.629  1.00  0.00    -0.035 OA 
BRANCH  11  13
HETATM   13  C   UNL     1     -10.075  14.860  67.629  1.00  0.00    -0.227 C  
BRANCH  13  14
HETATM   14  C   UNL     1     -11.341  14.197  67.075  1.00  0.00    -0.346 C  
BRANCH  14  15
HETATM   15  C   UNL     1     -12.377  13.858  68.132  1.00  0.00     0.001 C  
BRANCH  15  16
HETATM   16  C   UNL     1     -11.662  13.505  69.447  1.00  0.00    -0.381 C  
BRANCH  16  17
HETATM   17  C   UNL     1     -11.429  14.742  70.269  1.00  0.00    -0.309 A  
HETATM   18  C   UNL     1     -10.618  15.776  69.785  1.00  0.00    -0.312 A  
HETATM   19  C   UNL     1     -12.075  14.891  71.501  1.00  0.00    -0.406 A  
HETATM   20  C   UNL     1     -11.103  17.089  71.756  1.00  0.00     1.151 A  
HETATM   21  C   UNL     1     -10.452  16.946  70.536  1.00  0.00     0.790 A  
HETATM   22  C   UNL     1     -11.913  16.065  72.237  1.00  0.00    -0.633 A  
ENDBRANCH  16  17
ENDBRANCH  15  16
ENDBRANCH  14  15
ENDBRANCH  13  14
ENDBRANCH  11  13
BRANCH  11  23
HETATM   23  C   UNL     1      -8.245  16.347  66.378  1.00  0.00    -0.331 C  
BRANCH  23  24
HETATM   24  C   UNL     1      -7.564  15.127  67.027  1.00  0.00    -0.086 C  
HETATM   25  C   UNL     1      -7.461  12.700  67.644  1.00  0.00    -0.143 C  
HETATM   26  O   UNL     1      -6.549  15.288  67.716  1.00  0.00    -0.134 OA 
HETATM   27  N   UNL     1      -7.994  13.831  66.843  1.00  0.00     0.092 N  
HETATM   28  C   UNL     1      -6.018  12.196  67.366  1.00  0.00    -0.139 C  
HETATM   29  O   UNL     1      -5.652  11.039  67.545  1.00  0.00    -0.043 OA 
HETATM   30  C   UNL     1      -8.778  13.298  65.746  1.00  0.00     1.137 C  
HETATM   31  C   UNL     1      -9.410  11.996  66.271  1.00  0.00    -0.228 C  
HETATM   32  O   UNL     1      -5.134  13.160  67.031  1.00  0.00    -0.299 OA 
HETATM   33  C   UNL     1      -8.454  11.548  67.396  1.00  0.00    -0.147 C  
BRANCH  31  34
HETATM   34  C   UNL     1     -10.883  12.102  66.774  1.00  0.00    -0.289 C  
HETATM   35  C   UNL     1     -11.402   9.617  66.770  1.00  0.00     1.020 C  
HETATM   36  C   UNL     1     -11.473   9.570  68.293  1.00  0.00     0.422 C  
HETATM   37  C   UNL     1     -10.724  10.723  68.959  1.00  0.00    -0.265 C  
HETATM   38  C   UNL     1     -11.812  10.991  66.254  1.00  0.00     1.177 C  
HETATM   39  C   UNL     1     -10.991  12.091  68.320  1.00  0.00    -0.275 C  
ENDBRANCH  31  34
ENDBRANCH  23  24
ENDBRANCH  11  23
ENDBRANCH  10  11
ENDBRANCH   6  10
ENDBRANCH   5   6
ENDBRANCH   3   5
ENDBRANCH   2   3
TORSDOF 13
ENDMDL
MODEL      364
REMARK 921   NORMALIZED FREE ENERGY PREDICTED BY IDOCK:   41.37 KCAL/MOL
REMARK 922        TOTAL FREE ENERGY PREDICTED BY IDOCK:   70.35 KCAL/MOL
REMARK 923 INTER-LIGAND FREE ENERGY PREDICTED BY IDOCK:   55.67 KCAL/MOL
REMARK 924 INTRA-LIGAND FREE ENERGY PREDICTED BY IDOCK:   14.68 KCAL/MOL
REMARK 927      BINDING AFFINITY PREDICTED BY RF-SCORE:    0.00 PKD
ROOT
HETATM    1  C   UNL     1      -8.086  19.482  66.440  1.00  0.00    -0.331 C  
HETATM    2  C   UNL     1      -8.700  18.576  65.387  1.00  0.00     1.440 C  
ENDROOT
BRANCH   2   3
HETATM    3  C   UNL     1      -8.737  17.077  65.670  1.00  0.00     0.493 C  
HETATM    4  O   UNL     1      -8.361  16.599  66.735  1.00  0.00    -0.189 OA 
BRANCH   3   5
HETATM    5  O   UNL     1      -9.329  16.371  64.675  1.00  0.00     1.573 OA 
BRANCH   5   6
HETATM    6  C   UNL     1     -10.587  15.683  64.967  1.00  0.00    -0.396 C  
HETATM    7  C   UNL     1     -11.741  16.741  64.824  1.00  0.00     0.812 C  
HETATM    8  C   UNL     1     -13.133  16.186  65.121  1.00  0.00     3.286 C  
HETATM    9  C   UNL     1     -11.761  17.426  63.456  1.00  0.00     6.831 C  
BRANCH   6  10
HETATM   10  O   UNL     1     -10.651  14.999  66.256  1.00  0.00    -0.291 OA 
BRANCH  10  11
HETATM   11  P   UNL     1     -10.142  13.414  66.312  1.00  0.00    -0.305 P  
HETATM   12  O   UNL     1      -9.482  13.527  64.916  1.00  0.00     0.227 OA 
BRANCH  11  13
HETATM   13  C   UNL     1     -11.642  12.399  65.547  1.00  0.00    -0.385 C  
BRANCH  13  14
HETATM   14  C   UNL     1     -12.635  13.300  64.803  1.00  0.00    -0.398 C  
BRANCH  14  15
HETATM   15  C   UNL     1     -13.993  13.411  65.472  1.00  0.00     3.419 C  
BRANCH  15  16
HETATM   16  C   UNL     1     -14.410  14.890  65.527  1.00  0.00     4.836 C  
BRANCH  16  17
HETATM   17  C   UNL     1     -13.764  15.577  66.697  1.00  0.00     5.896 A  
HETATM   18  C   UNL     1     -13.935  16.953  66.899  1.00  0.00    10.893 A  
HETATM   19  C   UNL     1     -13.035  14.830  67.629  1.00  0.00     2.106 A  
HETATM   20  C   UNL     1     -12.657  16.821  68.946  1.00  0.00     2.689 A  
HETATM   21  C   UNL     1     -13.374  17.572  68.021  1.00  0.00     7.702 A  
HETATM   22  C   UNL     1     -12.489  15.453  68.751  1.00  0.00     0.264 A  
ENDBRANCH  16  17
ENDBRANCH  15  16
ENDBRANCH  14  15
ENDBRANCH  13  14
ENDBRANCH  11  13
BRANCH  11  23
HETATM   23  C   UNL     1     -10.921  13.280  67.962  1.00  0.00    -0.244 C  
BRANCH  23  24
HETATM   24  C   UNL     1     -11.726  11.985  68.179  1.00  0.00    -0.333 C  
HETATM   25  C   UNL     1     -11.910   9.510  68.525  1.00  0.00     1.270 C  
HETATM   26  O   UNL     1     -12.959  12.007  68.081  1.00  0.00     1.566 OA 
HETATM   27  N   UNL     1     -11.150  10.785  68.534  1.00  0.00    -0.241 N  
HETATM   28  C   UNL     1     -12.970   9.259  69.634  1.00  0.00     2.375 C  
HETATM   29  O   UNL     1     -13.273   8.146  70.050  1.00  0.00     1.720 OA 
HETATM   30  C   UNL     1      -9.879  10.566  69.196  1.00  0.00    -0.218 C  
HETATM   31  C   UNL     1      -9.483   9.112  68.883  1.00  0.00    -0.151 C  
HETATM   32  O   UNL     1     -13.648  10.357  70.031  1.00  0.00     0.202 OA 
HETATM   33  C   UNL     1     -10.831   8.413  68.604  1.00  0.00     0.027 C  
BRANCH  31  34
HETATM   34  C   UNL     1      -8.476   8.911  67.709  1.00  0.00    -0.125 C  
HETATM   35  C   UNL     1      -6.912  10.822  68.297  1.00  0.00    -0.069 C  
HETATM   36  C   UNL     1      -5.792   9.863  68.685  1.00  0.00    -0.038 C  
HETATM   37  C   UNL     1      -6.299   8.467  69.038  1.00  0.00    -0.044 C  
HETATM   38  C   UNL     1      -7.801  10.205  67.224  1.00  0.00    -0.103 C  
HETATM   39  C   UNL     1      -7.340   7.915  68.056  1.00  0.00    -0.096 C  
ENDBRANCH  31  34
ENDBRANCH  23  24
ENDBRANCH  11  23
ENDBRANCH  10  11
ENDBRANCH   6  10
ENDBRANCH   5   6
ENDBRANCH   3   5
ENDBRANCH   2   3
TORSDOF 13
ENDMDL
MODEL      365
REMARK 921   NORMALIZED FREE ENERGY PREDICTED BY IDOCK:   42.30 KCAL/MOL
REMARK 922        TOTAL FREE ENERGY PREDICTED BY IDOCK:   71.99 KCAL/MOL
REMARK 923 INTER-LIGAND FREE ENERGY PREDICTED BY IDOCK:   41.53 KCAL/MOL
REMARK 924 INTRA-LIGAND FREE ENERGY PREDICTED BY IDOCK:   30.46 KCAL/MOL
REMARK 927      BINDING AFFINITY PREDICTED BY RF-SCORE:    0.00 PKD
ROOT
HETATM    1  C   UNL     1     -11.211  10.842  67.906  1.00  0.00    -0.387 C  
HETATM    2  C   UNL     1     -11.740  11.539  66.666  1.00  0.00     0.048 C  
ENDROOT
BRANCH   2   3
HETATM    3  C   UNL     1     -10.826  12.541  65.966  1.00  0.00    -0.276 C  
HETATM    4  O   UNL     1     -11.133  13.719  65.815  1.00  0.00    -0.288 OA 
BRANCH   3   5
HETATM    5  O   UNL     1      -9.619  12.014  65.646  1.00  0.00    -0.239 OA 
BRANCH   5   6
HETATM    6  C   UNL     1      -8.465  12.911  65.581  1.00  0.00     1.639 C  
HETATM    7  C   UNL     1      -8.604  13.755  64.262  1.00  0.00     6.828 C  
HETATM    8  C   UNL     1      -7.457  14.737  64.028  1.00  0.00    19.630 C  
HETATM    9  C   UNL     1      -9.931  14.512  64.172  1.00  0.00     1.987 C  
BRANCH   6  10
HETATM   10  O   UNL     1      -7.157  12.268  65.663  1.00  0.00     1.695 OA 
BRANCH  10  11
HETATM   11  P   UNL     1      -6.861  10.990  64.636  1.00  0.00     1.230 P  
HETATM   12  O   UNL     1      -5.772  11.790  63.879  1.00  0.00     1.591 OA 
BRANCH  11  13
HETATM   13  C   UNL     1      -8.124  11.262  63.154  1.00  0.00     0.461 C  
BRANCH  13  14
HETATM   14  C   UNL     1      -9.410  10.448  63.329  1.00  0.00    -0.335 C  
BRANCH  14  15
HETATM   15  C   UNL     1     -10.025  10.549  64.714  1.00  0.00    -0.412 C  
BRANCH  15  16
HETATM   16  C   UNL     1     -11.556  10.477  64.595  1.00  0.00     2.171 C  
BRANCH  16  17
HETATM   17  C   UNL     1     -12.092  11.713  63.930  1.00  0.00    -0.298 A  
HETATM   18  C   UNL     1     -11.424  12.938  64.057  1.00  0.00    -0.478 A  
HETATM   19  C   UNL     1     -13.234  11.632  63.125  1.00  0.00     0.604 A  
HETATM   20  C   UNL     1     -13.033  13.980  62.585  1.00  0.00     2.892 A  
HETATM   21  C   UNL     1     -11.902  14.071  63.389  1.00  0.00     0.337 A  
HETATM   22  C   UNL     1     -13.697  12.764  62.454  1.00  0.00     4.818 A  
ENDBRANCH  16  17
ENDBRANCH  15  16
ENDBRANCH  14  15
ENDBRANCH  13  14
ENDBRANCH  11  13
BRANCH  11  23
HETATM   23  C   UNL     1      -8.148  10.046  65.530  1.00  0.00    -0.137 C  
BRANCH  23  24
HETATM   24  C   UNL     1      -7.697   9.502  66.899  1.00  0.00    -0.098 C  
HETATM   25  C   UNL     1      -7.365   7.657  68.562  1.00  0.00    -0.095 C  
HETATM   26  O   UNL     1      -7.366  10.292  67.792  1.00  0.00    -0.086 OA 
HETATM   27  N   UNL     1      -7.589   8.158  67.182  1.00  0.00    -0.095 N  
HETATM   28  C   UNL     1      -5.966   7.845  69.212  1.00  0.00    -0.034 C  
HETATM   29  O   UNL     1      -5.497   7.086  70.054  1.00  0.00    -0.022 OA 
HETATM   30  C   UNL     1      -7.407   7.061  66.252  1.00  0.00    -0.076 C  
HETATM   31  C   UNL     1      -7.870   5.795  66.995  1.00  0.00    -0.102 C  
HETATM   32  O   UNL     1      -5.337   8.993  68.884  1.00  0.00    -0.036 OA 
HETATM   33  C   UNL     1      -7.687   6.152  68.486  1.00  0.00    -0.100 C  
BRANCH  31  34
HETATM   34  C   UNL     1      -9.323   5.313  66.693  1.00  0.00    -0.139 C  
HETATM   35  C   UNL     1      -8.749   3.742  64.782  1.00  0.00    -0.114 C  
HETATM   36  C   UNL     1      -9.109   2.512  65.609  1.00  0.00    -0.108 C  
HETATM   37  C   UNL     1      -9.063   2.772  67.113  1.00  0.00    -0.192 C  
HETATM   38  C   UNL     1      -9.576   4.945  65.221  1.00  0.00    -0.079 C  
HETATM   39  C   UNL     1      -9.736   4.082  67.540  1.00  0.00    -0.177 C  
ENDBRANCH  31  34
ENDBRANCH  23  24
ENDBRANCH  11  23
ENDBRANCH  10  11
ENDBRANCH   6  10
ENDBRANCH   5   6
ENDBRANCH   3   5
ENDBRANCH   2   3
TORSDOF 13
ENDMDL
MODEL      366
REMARK 921   NORMALIZED FREE ENERGY PREDICTED BY IDOCK:   50.67 KCAL/MOL
REMARK 922        TOTAL FREE ENERGY PREDICTED BY IDOCK:   86.71 KCAL/MOL
REMARK 923 INTER-LIGAND FREE ENERGY PREDICTED BY IDOCK:   59.29 KCAL/MOL
REMARK 924 INTRA-LIGAND FREE ENERGY PREDICTED BY IDOCK:   27.42 KCAL/MOL
REMARK 927      BINDING AFFINITY PREDICTED BY RF-SCORE:    0.00 PKD
ROOT
HETATM    1  C   UNL     1     -12.832  10.034  69.086  1.00  0.00     2.052 C  
HETATM    2  C   UNL     1     -13.114  11.484  69.431  1.00  0.00     1.455 C  
ENDROOT
BRANCH   2   3
HETATM    3  C   UNL     1     -12.547  12.561  68.509  1.00  0.00     1.039 C  
HETATM    4  O   UNL     1     -12.879  13.739  68.591  1.00  0.00     0.619 OA 
BRANCH   3   5
HETATM    5  O   UNL     1     -11.573  12.090  67.692  1.00  0.00    -0.317 OA 
BRANCH   5   6
HETATM    6  C   UNL     1     -11.400  12.722  66.385  1.00  0.00    -0.323 C  
HETATM    7  C   UNL     1     -12.321  11.954  65.369  1.00  0.00     0.429 C  
HETATM    8  C   UNL     1     -12.241  12.479  63.936  1.00  0.00    -0.590 C  
HETATM    9  C   UNL     1     -13.788  11.914  65.801  1.00  0.00     8.118 C  
BRANCH   6  10
HETATM   10  O   UNL     1     -10.026  12.803  65.897  1.00  0.00    -0.267 OA 
BRANCH  10  11
HETATM   11  P   UNL     1      -8.989  13.842  66.687  1.00  0.00     0.031 P  
HETATM   12  O   UNL     1      -8.835  12.861  67.874  1.00  0.00    -0.171 OA 
BRANCH  11  13
HETATM   13  C   UNL     1     -10.177  14.987  67.755  1.00  0.00    -0.236 C  
BRANCH  13  14
HETATM   14  C   UNL     1     -10.325  14.487  69.197  1.00  0.00    -0.197 C  
BRANCH  14  15
HETATM   15  C   UNL     1     -10.952  15.496  70.142  1.00  0.00    -0.336 C  
BRANCH  15  16
HETATM   16  C   UNL     1      -9.920  15.901  71.207  1.00  0.00     2.021 C  
BRANCH  16  17
HETATM   17  C   UNL     1      -9.054  14.729  71.576  1.00  0.00     4.294 A  
HETATM   18  C   UNL     1      -8.258  14.100  70.610  1.00  0.00     2.962 A  
HETATM   19  C   UNL     1      -8.994  14.297  72.906  1.00  0.00     9.739 A  
HETATM   20  C   UNL     1      -7.356  12.626  72.301  1.00  0.00    10.264 A  
HETATM   21  C   UNL     1      -7.415  13.044  70.976  1.00  0.00     5.150 A  
HETATM   22  C   UNL     1      -8.143  13.252  73.263  1.00  0.00    13.199 A  
ENDBRANCH  16  17
ENDBRANCH  15  16
ENDBRANCH  14  15
ENDBRANCH  13  14
ENDBRANCH  11  13
BRANCH  11  23
HETATM   23  C   UNL     1      -9.172  15.002  65.283  1.00  0.00     0.783 C  
BRANCH  23  24
HETATM   24  C   UNL     1      -9.244  16.484  65.692  1.00  0.00     0.144 C  
HETATM   25  C   UNL     1      -8.399  18.500  66.919  1.00  0.00    -0.263 C  
HETATM   26  O   UNL     1     -10.240  17.155  65.391  1.00  0.00    -0.605 OA 
HETATM   27  N   UNL     1      -8.224  17.142  66.345  1.00  0.00    -0.276 N  
HETATM   28  C   UNL     1      -8.486  19.717  65.957  1.00  0.00    -0.281 C  
HETATM   29  O   UNL     1      -8.124  20.851  66.255  1.00  0.00     0.238 OA 
HETATM   30  C   UNL     1      -6.815  16.804  66.368  1.00  0.00    -0.070 C  
HETATM   31  C   UNL     1      -6.232  17.498  67.612  1.00  0.00    -0.166 C  
HETATM   32  O   UNL     1      -9.121  19.475  64.790  1.00  0.00     1.773 OA 
HETATM   33  C   UNL     1      -7.189  18.684  67.856  1.00  0.00    -0.252 C  
BRANCH  31  34
HETATM   34  C   UNL     1      -6.079  16.610  68.886  1.00  0.00    -0.154 C  
HETATM   35  C   UNL     1      -8.403  15.591  68.849  1.00  0.00    -0.205 C  
HETATM   36  C   UNL     1      -7.856  14.211  68.501  1.00  0.00    -0.140 C  
HETATM   37  C   UNL     1      -6.469  14.264  67.864  1.00  0.00    -0.175 C  
HETATM   38  C   UNL     1      -7.387  16.384  69.663  1.00  0.00     0.103 C  
HETATM   39  C   UNL     1      -5.493  15.210  68.575  1.00  0.00    -0.099 C  
ENDBRANCH  31  34
ENDBRANCH  23  24
ENDBRANCH  11  23
ENDBRANCH  10  11
ENDBRANCH   6  10
ENDBRANCH   5   6
ENDBRANCH   3   5
ENDBRANCH   2   3
TORSDOF 13
ENDMDL
MODEL      367
REMARK 921   NORMALIZED FREE ENERGY PREDICTED BY IDOCK:   64.20 KCAL/MOL
REMARK 922        TOTAL FREE ENERGY PREDICTED BY IDOCK:  110.53 KCAL/MOL
REMARK 923 INTER-LIGAND FREE ENERGY PREDICTED BY IDOCK:   41.49 KCAL/MOL
REMARK 924 INTRA-LIGAND FREE ENERGY PREDICTED BY IDOCK:   69.04 KCAL/MOL
REMARK 927      BINDING AFFINITY PREDICTED BY RF-SCORE:    0.00 PKD
ROOT
HETATM    1  C   UNL     1     -11.208  10.857  67.878  1.00  0.00    -0.387 C  
HETATM    2  C   UNL     1     -11.727  11.567  66.641  1.00  0.00     0.048 C  
ENDROOT
BRANCH   2   3
HETATM    3  C   UNL     1     -10.776  12.508  65.906  1.00  0.00    -0.264 C  
HETATM    4  O   UNL     1     -11.001  13.707  65.783  1.00  0.00    -0.278 OA 
BRANCH   3   5
HETATM    5  O   UNL     1      -9.629  11.896  65.521  1.00  0.00    -0.232 OA 
BRANCH   5   6
HETATM    6  C   UNL     1      -8.414  12.703  65.418  1.00  0.00     1.803 C  
HETATM    7  C   UNL     1      -8.564  13.614  64.145  1.00  0.00     6.928 C  
HETATM    8  C   UNL     1      -7.358  14.513  63.878  1.00  0.00    21.259 C  
HETATM    9  C   UNL     1      -9.829  14.474  64.170  1.00  0.00     2.377 C  
BRANCH   6  10
HETATM   10  O   UNL     1      -7.158  11.958  65.391  1.00  0.00     1.390 OA 
BRANCH  10  11
HETATM   11  P   UNL     1      -7.037  10.693  64.314  1.00  0.00     0.505 P  
HETATM   12  O   UNL     1      -5.917  11.411  63.523  1.00  0.00     0.672 OA 
BRANCH  11  13
HETATM   13  C   UNL     1      -8.342  11.130  62.910  1.00  0.00     0.058 C  
BRANCH  13  14
HETATM   14  C   UNL     1      -9.719  10.516  63.184  1.00  0.00    -0.351 C  
BRANCH  14  15
HETATM   15  C   UNL     1     -10.183  10.649  64.624  1.00  0.00    -0.404 C  
BRANCH  15  16
HETATM   16  C   UNL     1     -11.698  10.908  64.645  1.00  0.00     1.121 C  
BRANCH  16  17
HETATM   17  C   UNL     1     -12.005  12.289  64.138  1.00  0.00    -0.518 A  
HETATM   18  C   UNL     1     -11.401  13.411  64.719  1.00  0.00    -0.356 A  
HETATM   19  C   UNL     1     -12.854  12.455  63.038  1.00  0.00     0.203 A  
HETATM   20  C   UNL     1     -12.491  14.844  63.105  1.00  0.00     1.800 A  
HETATM   21  C   UNL     1     -11.653  14.688  64.204  1.00  0.00    -0.118 A  
HETATM   22  C   UNL     1     -13.090  13.730  62.524  1.00  0.00     3.376 A  
ENDBRANCH  16  17
ENDBRANCH  15  16
ENDBRANCH  14  15
ENDBRANCH  13  14
ENDBRANCH  11  13
BRANCH  11  23
HETATM   23  C   UNL     1      -8.361   9.844  65.249  1.00  0.00    -0.149 C  
BRANCH  23  24
HETATM   24  C   UNL     1      -7.877   9.128  66.523  1.00  0.00    -0.100 C  
HETATM   25  C   UNL     1      -7.065   9.107  68.895  1.00  0.00    -0.068 C  
HETATM   26  O   UNL     1      -7.640   7.913  66.490  1.00  0.00    -0.089 OA 
HETATM   27  N   UNL     1      -7.735   9.758  67.740  1.00  0.00    -0.091 N  
HETATM   28  C   UNL     1      -7.801   7.961  69.643  1.00  0.00    -0.105 C  
HETATM   29  O   UNL     1      -7.638   7.706  70.831  1.00  0.00    -0.077 OA 
HETATM   30  C   UNL     1      -8.391  10.966  68.202  1.00  0.00    -0.123 C  
HETATM   31  C   UNL     1      -7.521  11.508  69.350  1.00  0.00     0.105 C  
HETATM   32  O   UNL     1      -8.551   7.159  68.857  1.00  0.00    -0.128 OA 
HETATM   33  C   UNL     1      -6.789  10.257  69.882  1.00  0.00    -0.134 C  
BRANCH  31  34
HETATM   34  C   UNL     1      -6.521  12.646  68.977  1.00  0.00    -0.097 C  
HETATM   35  C   UNL     1      -5.778  11.699  66.741  1.00  0.00    -0.139 C  
HETATM   36  C   UNL     1      -6.472  12.818  65.972  1.00  0.00     3.555 C  
HETATM   37  C   UNL     1      -7.584  13.491  66.773  1.00  0.00     0.669 C  
HETATM   38  C   UNL     1      -5.332  12.188  68.115  1.00  0.00    -0.057 C  
HETATM   39  C   UNL     1      -7.199  13.817  68.221  1.00  0.00    -0.114 C  
ENDBRANCH  31  34
ENDBRANCH  23  24
ENDBRANCH  11  23
ENDBRANCH  10  11
ENDBRANCH   6  10
ENDBRANCH   5   6
ENDBRANCH   3   5
ENDBRANCH   2   3
TORSDOF 13
ENDMDL
MODEL      368
REMARK 921   NORMALIZED FREE ENERGY PREDICTED BY IDOCK:   64.45 KCAL/MOL
REMARK 922        TOTAL FREE ENERGY PREDICTED BY IDOCK:  110.96 KCAL/MOL
REMARK 923 INTER-LIGAND FREE ENERGY PREDICTED BY IDOCK:   62.73 KCAL/MOL
REMARK 924 INTRA-LIGAND FREE ENERGY PREDICTED BY IDOCK:   48.23 KCAL/MOL
REMARK 927      BINDING AFFINITY PREDICTED BY RF-SCORE:    0.00 PKD
ROOT
HETATM    1  C   UNL     1     -10.761   3.765  69.568  1.00  0.00     2.611 C  
HETATM    2  C   UNL     1     -11.314   5.173  69.692  1.00  0.00     1.814 C  
ENDROOT
BRANCH   2   3
HETATM    3  C   UNL     1     -10.658   6.273  68.861  1.00  0.00    -0.268 C  
HETATM    4  O   UNL     1      -9.776   6.040  68.041  1.00  0.00    -0.115 OA 
BRANCH   3   5
HETATM    5  O   UNL     1     -11.234   7.485  69.049  1.00  0.00     0.059 OA 
BRANCH   5   6
HETATM    6  C   UNL     1     -10.647   8.386  70.040  1.00  0.00    -0.235 C  
HETATM    7  C   UNL     1     -11.333   8.073  71.419  1.00  0.00    -0.292 C  
HETATM    8  C   UNL     1     -10.844   8.951  72.570  1.00  0.00     0.079 C  
HETATM    9  C   UNL     1     -11.212   6.604  71.830  1.00  0.00    -0.299 C  
BRANCH   6  10
HETATM   10  O   UNL     1     -10.717   9.810  69.724  1.00  0.00    -0.225 OA 
BRANCH  10  11
HETATM   11  P   UNL     1     -10.108  10.302  68.253  1.00  0.00    -0.172 P  
HETATM   12  O   UNL     1     -10.445   8.938  67.603  1.00  0.00    -0.246 OA 
BRANCH  11  13
HETATM   13  C   UNL     1      -8.204   9.819  68.335  1.00  0.00    -0.105 C  
BRANCH  13  14
HETATM   14  C   UNL     1      -7.287  11.028  68.119  1.00  0.00    -0.086 C  
BRANCH  14  15
HETATM   15  C   UNL     1      -6.143  10.775  67.153  1.00  0.00    -0.063 C  
BRANCH  15  16
HETATM   16  C   UNL     1      -5.187   9.737  67.763  1.00  0.00    -0.036 C  
BRANCH  16  17
HETATM   17  C   UNL     1      -5.902   8.437  68.002  1.00  0.00    -0.042 A  
HETATM   18  C   UNL     1      -6.730   8.274  69.121  1.00  0.00    -0.047 A  
HETATM   19  C   UNL     1      -5.791   7.398  67.070  1.00  0.00    -0.034 A  
HETATM   20  C   UNL     1      -7.323   6.054  68.370  1.00  0.00    -0.085 A  
HETATM   21  C   UNL     1      -7.433   7.078  69.304  1.00  0.00    -0.094 A  
HETATM   22  C   UNL     1      -6.505   6.214  67.255  1.00  0.00    -0.046 A  
ENDBRANCH  16  17
ENDBRANCH  15  16
ENDBRANCH  14  15
ENDBRANCH  13  14
ENDBRANCH  11  13
BRANCH  11  23
HETATM   23  C   UNL     1      -9.709  11.914  69.022  1.00  0.00     0.180 C  
BRANCH  23  24
HETATM   24  C   UNL     1      -9.097  11.810  70.431  1.00  0.00     4.707 C  
HETATM   25  C   UNL     1      -9.140  11.081  72.829  1.00  0.00    16.388 C  
HETATM   26  O   UNL     1      -8.064  12.437  70.698  1.00  0.00     4.170 OA 
HETATM   27  N   UNL     1      -9.611  11.003  71.423  1.00  0.00     6.109 N  
HETATM   28  C   UNL     1      -7.735  10.519  73.183  1.00  0.00     8.394 C  
HETATM   29  O   UNL     1      -7.441  10.059  74.282  1.00  0.00     1.669 OA 
HETATM   30  C   UNL     1     -10.442   9.825  71.275  1.00  0.00     0.021 C  
HETATM   31  C   UNL     1     -11.148   9.631  72.629  1.00  0.00     2.253 C  
HETATM   32  O   UNL     1      -6.797  10.690  72.228  1.00  0.00     2.224 OA 
HETATM   33  C   UNL     1     -10.206  10.319  73.639  1.00  0.00    12.863 C  
BRANCH  31  34
HETATM   34  C   UNL     1     -12.604  10.181  72.730  1.00  0.00     1.329 C  
HETATM   35  C   UNL     1     -12.864  10.852  70.295  1.00  0.00    -0.209 C  
HETATM   36  C   UNL     1     -13.891   9.754  70.042  1.00  0.00     1.553 C  
HETATM   37  C   UNL     1     -13.808   8.615  71.057  1.00  0.00     0.029 C  
HETATM   38  C   UNL     1     -12.922  11.319  71.745  1.00  0.00    -0.519 C  
HETATM   39  C   UNL     1     -13.677   9.085  72.511  1.00  0.00    -0.499 C  
ENDBRANCH  31  34
ENDBRANCH  23  24
ENDBRANCH  11  23
ENDBRANCH  10  11
ENDBRANCH   6  10
ENDBRANCH   5   6
ENDBRANCH   3   5
ENDBRANCH   2   3
TORSDOF 13
ENDMDL
MODEL      369
REMARK 921   NORMALIZED FREE ENERGY PREDICTED BY IDOCK:   65.97 KCAL/MOL
REMARK 922        TOTAL FREE ENERGY PREDICTED BY IDOCK:  113.64 KCAL/MOL
REMARK 923 INTER-LIGAND FREE ENERGY PREDICTED BY IDOCK:   62.61 KCAL/MOL
REMARK 924 INTRA-LIGAND FREE ENERGY PREDICTED BY IDOCK:   51.03 KCAL/MOL
REMARK 927      BINDING AFFINITY PREDICTED BY RF-SCORE:    0.00 PKD
ROOT
HETATM    1  C   UNL     1     -10.761   3.765  69.568  1.00  0.00     2.611 C  
HETATM    2  C   UNL     1     -11.314   5.173  69.692  1.00  0.00     1.814 C  
ENDROOT
BRANCH   2   3
HETATM    3  C   UNL     1     -10.658   6.273  68.861  1.00  0.00    -0.268 C  
HETATM    4  O   UNL     1      -9.776   6.040  68.041  1.00  0.00    -0.115 OA 
BRANCH   3   5
HETATM    5  O   UNL     1     -11.234   7.485  69.049  1.00  0.00     0.059 OA 
BRANCH   5   6
HETATM    6  C   UNL     1     -10.647   8.386  70.040  1.00  0.00    -0.235 C  
HETATM    7  C   UNL     1     -11.333   8.073  71.419  1.00  0.00    -0.292 C  
HETATM    8  C   UNL     1     -10.844   8.951  72.570  1.00  0.00     0.079 C  
HETATM    9  C   UNL     1     -11.212   6.604  71.830  1.00  0.00    -0.299 C  
BRANCH   6  10
HETATM   10  O   UNL     1     -10.717   9.810  69.724  1.00  0.00    -0.225 OA 
BRANCH  10  11
HETATM   11  P   UNL     1     -10.108  10.302  68.253  1.00  0.00    -0.172 P  
HETATM   12  O   UNL     1     -10.445   8.938  67.603  1.00  0.00    -0.246 OA 
BRANCH  11  13
HETATM   13  C   UNL     1      -8.204   9.819  68.335  1.00  0.00    -0.105 C  
BRANCH  13  14
HETATM   14  C   UNL     1      -7.966   8.338  68.024  1.00  0.00    -0.123 C  
BRANCH  14  15
HETATM   15  C   UNL     1      -7.015   7.647  68.986  1.00  0.00    -0.069 C  
BRANCH  15  16
HETATM   16  C   UNL     1      -5.610   8.250  68.829  1.00  0.00    -0.036 C  
BRANCH  16  17
HETATM   17  C   UNL     1      -5.627   9.718  69.152  1.00  0.00    -0.035 A  
HETATM   18  C   UNL     1      -6.088  10.649  68.213  1.00  0.00    -0.046 A  
HETATM   19  C   UNL     1      -5.236  10.157  70.422  1.00  0.00    -0.046 A  
HETATM   20  C   UNL     1      -5.767  12.434  69.811  1.00  0.00    -0.113 A  
HETATM   21  C   UNL     1      -6.150  12.008  68.544  1.00  0.00    -0.051 A  
HETATM   22  C   UNL     1      -5.312  11.511  70.747  1.00  0.00    -0.138 A  
ENDBRANCH  16  17
ENDBRANCH  15  16
ENDBRANCH  14  15
ENDBRANCH  13  14
ENDBRANCH  11  13
BRANCH  11  23
HETATM   23  C   UNL     1      -9.709  11.914  69.022  1.00  0.00     0.180 C  
BRANCH  23  24
HETATM   24  C   UNL     1      -9.097  11.810  70.431  1.00  0.00     4.707 C  
HETATM   25  C   UNL     1      -9.140  11.081  72.829  1.00  0.00    16.388 C  
HETATM   26  O   UNL     1      -8.064  12.437  70.698  1.00  0.00     4.170 OA 
HETATM   27  N   UNL     1      -9.611  11.003  71.423  1.00  0.00     6.109 N  
HETATM   28  C   UNL     1      -7.735  10.519  73.183  1.00  0.00     8.394 C  
HETATM   29  O   UNL     1      -7.441  10.059  74.282  1.00  0.00     1.669 OA 
HETATM   30  C   UNL     1     -10.442   9.825  71.275  1.00  0.00     0.021 C  
HETATM   31  C   UNL     1     -11.148   9.631  72.629  1.00  0.00     2.253 C  
HETATM   32  O   UNL     1      -6.797  10.690  72.228  1.00  0.00     2.224 OA 
HETATM   33  C   UNL     1     -10.206  10.319  73.639  1.00  0.00    12.863 C  
BRANCH  31  34
HETATM   34  C   UNL     1     -12.604  10.181  72.730  1.00  0.00     1.329 C  
HETATM   35  C   UNL     1     -12.864  10.852  70.295  1.00  0.00    -0.209 C  
HETATM   36  C   UNL     1     -13.891   9.754  70.042  1.00  0.00     1.553 C  
HETATM   37  C   UNL     1     -13.808   8.615  71.057  1.00  0.00     0.029 C  
HETATM   38  C   UNL     1     -12.922  11.319  71.745  1.00  0.00    -0.519 C  
HETATM   39  C   UNL     1     -13.677   9.085  72.511  1.00  0.00    -0.499 C  
ENDBRANCH  31  34
ENDBRANCH  23  24
ENDBRANCH  11  23
ENDBRANCH  10  11
ENDBRANCH   6  10
ENDBRANCH   5   6
ENDBRANCH   3   5
ENDBRANCH   2   3
TORSDOF 13
ENDMDL
MODEL      370
REMARK 921   NORMALIZED FREE ENERGY PREDICTED BY IDOCK:   72.15 KCAL/MOL
REMARK 922        TOTAL FREE ENERGY PREDICTED BY IDOCK:  124.51 KCAL/MOL
REMARK 923 INTER-LIGAND FREE ENERGY PREDICTED BY IDOCK:   40.10 KCAL/MOL
REMARK 924 INTRA-LIGAND FREE ENERGY PREDICTED BY IDOCK:   84.41 KCAL/MOL
REMARK 927      BINDING AFFINITY PREDICTED BY RF-SCORE:    0.00 PKD
ROOT
HETATM    1  C   UNL     1      -9.396  18.379  64.450  1.00  0.00     7.494 C  
HETATM    2  C   UNL     1      -8.649  18.133  65.748  1.00  0.00     0.371 C  
ENDROOT
BRANCH   2   3
HETATM    3  C   UNL     1      -7.126  18.231  65.724  1.00  0.00    -0.224 C  
HETATM    4  O   UNL     1      -6.481  18.193  64.682  1.00  0.00     0.003 OA 
BRANCH   3   5
HETATM    5  O   UNL     1      -6.599  18.478  66.948  1.00  0.00    -0.181 OA 
BRANCH   5   6
HETATM    6  C   UNL     1      -7.298  17.958  68.123  1.00  0.00    -0.241 C  
HETATM    7  C   UNL     1      -7.156  16.392  68.095  1.00  0.00    -0.145 C  
HETATM    8  C   UNL     1      -7.858  15.684  69.253  1.00  0.00    -0.230 C  
HETATM    9  C   UNL     1      -5.701  15.923  68.035  1.00  0.00    -0.137 C  
BRANCH   6  10
HETATM   10  O   UNL     1      -8.695  18.361  68.258  1.00  0.00    -0.287 OA 
BRANCH  10  11
HETATM   11  P   UNL     1      -9.764  17.837  67.092  1.00  0.00    -0.315 P  
HETATM   12  O   UNL     1     -10.908  18.692  67.689  1.00  0.00    -0.418 OA 
BRANCH  11  13
HETATM   13  C   UNL     1     -10.550  16.206  67.857  1.00  0.00    -0.309 C  
BRANCH  13  14
HETATM   14  C   UNL     1     -12.008  16.007  67.430  1.00  0.00     0.780 C  
BRANCH  14  15
HETATM   15  C   UNL     1     -13.005  16.084  68.572  1.00  0.00     2.434 C  
BRANCH  15  16
HETATM   16  C   UNL     1     -12.356  15.526  69.849  1.00  0.00    -0.306 C  
BRANCH  16  17
HETATM   17  C   UNL     1     -11.555  16.592  70.543  1.00  0.00     0.076 A  
HETATM   18  C   UNL     1     -12.137  17.826  70.861  1.00  0.00     6.749 A  
HETATM   19  C   UNL     1     -10.236  16.331  70.931  1.00  0.00     1.294 A  
HETATM   20  C   UNL     1     -10.091  18.521  71.944  1.00  0.00     4.881 A  
HETATM   21  C   UNL     1     -11.398  18.791  71.555  1.00  0.00     5.413 A  
HETATM   22  C   UNL     1      -9.512  17.294  71.633  1.00  0.00     8.337 A  
ENDBRANCH  16  17
ENDBRANCH  15  16
ENDBRANCH  14  15
ENDBRANCH  13  14
ENDBRANCH  11  13
BRANCH  11  23
HETATM   23  C   UNL     1      -8.411  16.827  66.385  1.00  0.00    -0.309 C  
BRANCH  23  24
HETATM   24  C   UNL     1      -8.053  15.580  67.215  1.00  0.00    -0.198 C  
HETATM   25  C   UNL     1      -8.652  13.521  68.512  1.00  0.00    -0.088 C  
HETATM   26  O   UNL     1      -6.885  15.405  67.585  1.00  0.00    -0.151 OA 
HETATM   27  N   UNL     1      -8.963  14.596  67.536  1.00  0.00    -0.182 N  
HETATM   28  C   UNL     1      -7.669  12.391  68.098  1.00  0.00    -0.139 C  
HETATM   29  O   UNL     1      -7.716  11.248  68.541  1.00  0.00    -0.115 OA 
HETATM   30  C   UNL     1     -10.198  14.265  66.853  1.00  0.00    -0.266 C  
HETATM   31  C   UNL     1     -11.056  13.499  67.877  1.00  0.00    -0.288 C  
HETATM   32  O   UNL     1      -6.654  12.786  67.300  1.00  0.00    -0.159 OA 
HETATM   33  C   UNL     1     -10.020  12.898  68.851  1.00  0.00     0.091 C  
BRANCH  31  34
HETATM   34  C   UNL     1     -12.138  14.334  68.628  1.00  0.00    -0.295 C  
HETATM   35  C   UNL     1     -13.425  12.380  69.612  1.00  0.00     2.963 C  
HETATM   36  C   UNL     1     -12.976  12.722  71.029  1.00  0.00    -0.166 C  
HETATM   37  C   UNL     1     -11.704  13.567  71.063  1.00  0.00     0.338 C  
HETATM   38  C   UNL     1     -13.503  13.637  68.754  1.00  0.00     4.366 C  
HETATM   39  C   UNL     1     -11.702  14.729  70.062  1.00  0.00    -0.344 C  
ENDBRANCH  31  34
ENDBRANCH  23  24
ENDBRANCH  11  23
ENDBRANCH  10  11
ENDBRANCH   6  10
ENDBRANCH   5   6
ENDBRANCH   3   5
ENDBRANCH   2   3
TORSDOF 13
ENDMDL
MODEL      371
REMARK 921   NORMALIZED FREE ENERGY PREDICTED BY IDOCK:   76.45 KCAL/MOL
REMARK 922        TOTAL FREE ENERGY PREDICTED BY IDOCK:  132.09 KCAL/MOL
REMARK 923 INTER-LIGAND FREE ENERGY PREDICTED BY IDOCK:   40.19 KCAL/MOL
REMARK 924 INTRA-LIGAND FREE ENERGY PREDICTED BY IDOCK:   91.90 KCAL/MOL
REMARK 927      BINDING AFFINITY PREDICTED BY RF-SCORE:    0.00 PKD
ROOT
HETATM    1  C   UNL     1      -9.403  18.381  64.448  1.00  0.00     7.494 C  
HETATM    2  C   UNL     1      -8.703  18.124  65.770  1.00  0.00     0.395 C  
ENDROOT
BRANCH   2   3
HETATM    3  C   UNL     1      -7.178  18.192  65.795  1.00  0.00    -0.181 C  
HETATM    4  O   UNL     1      -6.500  18.134  64.774  1.00  0.00    -0.151 OA 
BRANCH   3   5
HETATM    5  O   UNL     1      -6.685  18.435  67.034  1.00  0.00    -0.182 OA 
BRANCH   5   6
HETATM    6  C   UNL     1      -7.451  17.969  68.189  1.00  0.00    -0.249 C  
HETATM    7  C   UNL     1      -7.403  16.397  68.177  1.00  0.00    -0.151 C  
HETATM    8  C   UNL     1      -8.181  15.742  69.317  1.00  0.00    -0.247 C  
HETATM    9  C   UNL     1      -5.977  15.842  68.167  1.00  0.00    -0.135 C  
BRANCH   6  10
HETATM   10  O   UNL     1      -8.825  18.455  68.277  1.00  0.00    -0.290 OA 
BRANCH  10  11
HETATM   11  P   UNL     1      -9.884  17.995  67.076  1.00  0.00    -0.354 P  
HETATM   12  O   UNL     1     -10.989  18.929  67.625  1.00  0.00    -0.392 OA 
BRANCH  11  13
HETATM   13  C   UNL     1     -10.805  16.427  67.822  1.00  0.00    -0.306 C  
BRANCH  13  14
HETATM   14  C   UNL     1     -12.256  16.321  67.341  1.00  0.00     1.557 C  
BRANCH  14  15
HETATM   15  C   UNL     1     -13.045  17.613  67.459  1.00  0.00     7.263 C  
BRANCH  15  16
HETATM   16  C   UNL     1     -12.557  18.393  68.691  1.00  0.00     7.808 C  
BRANCH  16  17
HETATM   17  C   UNL     1     -11.348  19.218  68.348  1.00  0.00     1.322 A  
HETATM   18  C   UNL     1     -11.374  20.103  67.262  1.00  0.00     0.750 A  
HETATM   19  C   UNL     1     -10.206  19.149  69.154  1.00  0.00    -0.149 A  
HETATM   20  C   UNL     1      -9.133  20.837  67.795  1.00  0.00    -0.138 A  
HETATM   21  C   UNL     1     -10.261  20.906  66.985  1.00  0.00     0.241 A  
HETATM   22  C   UNL     1      -9.106  19.961  68.877  1.00  0.00    -0.089 A  
ENDBRANCH  16  17
ENDBRANCH  15  16
ENDBRANCH  14  15
ENDBRANCH  13  14
ENDBRANCH  11  13
BRANCH  11  23
HETATM   23  C   UNL     1      -8.577  16.890  66.426  1.00  0.00    -0.293 C  
BRANCH  23  24
HETATM   24  C   UNL     1      -8.341  15.624  67.272  1.00  0.00    -0.184 C  
HETATM   25  C   UNL     1      -7.888  13.173  67.533  1.00  0.00    -0.172 C  
HETATM   26  O   UNL     1      -8.503  15.668  68.498  1.00  0.00    -0.161 OA 
HETATM   27  N   UNL     1      -7.901  14.430  66.743  1.00  0.00     0.228 N  
HETATM   28  C   UNL     1      -6.825  12.999  68.653  1.00  0.00    -0.099 C  
HETATM   29  O   UNL     1      -6.373  11.914  69.003  1.00  0.00    -0.067 OA 
HETATM   30  C   UNL     1      -7.164  14.216  65.513  1.00  0.00     8.396 C  
HETATM   31  C   UNL     1      -7.388  12.740  65.137  1.00  0.00     6.288 C  
HETATM   32  O   UNL     1      -6.516  14.130  69.323  1.00  0.00    -0.104 OA 
HETATM   33  C   UNL     1      -7.703  12.058  66.486  1.00  0.00     0.161 C  
BRANCH  31  34
HETATM   34  C   UNL     1      -8.498  12.461  64.077  1.00  0.00     2.804 C  
HETATM   35  C   UNL     1      -7.878  10.049  63.589  1.00  0.00    -0.151 C  
HETATM   36  C   UNL     1      -9.152   9.528  64.245  1.00  0.00    -0.220 C  
HETATM   37  C   UNL     1      -9.762  10.520  65.232  1.00  0.00    -0.328 C  
HETATM   38  C   UNL     1      -8.104  11.436  63.000  1.00  0.00     0.492 C  
HETATM   39  C   UNL     1      -9.821  11.961  64.711  1.00  0.00    -0.216 C  
ENDBRANCH  31  34
ENDBRANCH  23  24
ENDBRANCH  11  23
ENDBRANCH  10  11
ENDBRANCH   6  10
ENDBRANCH   5   6
ENDBRANCH   3   5
ENDBRANCH   2   3
TORSDOF 13
ENDMDL
