MODEL        1
REMARK 921   NORMALIZED FREE ENERGY PREDICTED BY IDOCK:   -8.78 KCAL/MOL
REMARK 922        TOTAL FREE ENERGY PREDICTED BY IDOCK:  -13.01 KCAL/MOL
REMARK 923 INTER-LIGAND FREE ENERGY PREDICTED BY IDOCK:  -12.37 KCAL/MOL
REMARK 924 INTRA-LIGAND FREE ENERGY PREDICTED BY IDOCK:   -0.64 KCAL/MOL
REMARK 927      BINDING AFFINITY PREDICTED BY RF-SCORE:    0.00 PKD
ROOT
HETATM    1  C   UNL     1     -11.019  10.616  68.175  1.00  0.00    -0.269 C  
HETATM    2  N   UNL     1      -9.626  10.493  67.730  1.00  0.00    -0.155 N  
HETATM    3  C   UNL     1      -8.815   9.364  67.912  1.00  0.00    -0.124 C  
HETATM    4  O   UNL     1      -7.594   9.447  67.723  1.00  0.00    -0.087 OA 
ENDROOT
BRANCH   2   5
HETATM    5  C   UNL     1      -8.972  11.767  67.573  1.00  0.00    -0.168 A  
HETATM    6  C   UNL     1      -8.790  14.040  66.864  1.00  0.00    -0.212 A  
HETATM    7  C   UNL     1      -7.976  12.105  68.496  1.00  0.00    -0.119 A  
HETATM    8  C   UNL     1      -9.377  12.758  66.658  1.00  0.00    -0.242 A  
HETATM    9  C   UNL     1      -7.789  14.314  67.811  1.00  0.00    -0.165 A  
HETATM   10  N   UNL     1      -7.382  13.319  68.617  1.00  0.00    -0.106 NA 
BRANCH   9  11
HETATM   11  N   UNL     1      -7.207  15.559  67.963  1.00  0.00    -0.113 NA 
HETATM   12  C   UNL     1      -6.458  16.179  66.847  1.00  0.00     0.029 C  
HETATM   13  N   UNL     1      -7.170  18.498  67.718  1.00  0.00    -0.218 N  
HETATM   14  C   UNL     1      -5.838  19.048  68.173  1.00  0.00    -0.208 C  
HETATM   15  C   UNL     1      -7.299  16.390  69.165  1.00  0.00    -0.225 C  
HETATM   16  C   UNL     1      -7.026  17.580  66.481  1.00  0.00    -0.252 C  
HETATM   17  C   UNL     1      -7.921  17.756  68.831  1.00  0.00    -0.172 C  
BRANCH  13  18
HETATM   18  C   UNL     1      -8.070  19.687  67.349  1.00  0.00    -0.288 C  
BRANCH  18  19
HETATM   19  O   UNL     1      -8.727  19.582  66.123  1.00  0.00    -0.353 OA 
HETATM   20  O   UNL     1     -10.631  20.268  67.675  1.00  0.00    -0.250 OA 
HETATM   21  O   UNL     1     -11.018  19.870  65.081  1.00  0.00    -0.334 OA 
HETATM   22  O   UNL     1     -10.496  17.994  66.570  1.00  0.00    -0.368 OA 
HETATM   23  P   UNL     1     -10.326  19.581  66.371  1.00  0.00    -0.538 P  
ENDBRANCH  18  19
ENDBRANCH  13  18
ENDBRANCH   9  11
BRANCH   8  24
HETATM   24  C   UNL     1     -10.391  12.576  65.549  1.00  0.00    -0.303 A  
HETATM   25  C   UNL     1     -10.065  11.810  64.407  1.00  0.00    -0.319 A  
HETATM   26  C   UNL     1     -10.950  11.595  63.343  1.00  0.00    -0.442 A  
HETATM   27  C   UNL     1     -12.259  14.018  66.650  1.00  0.00    -0.463 C  
HETATM   28  C   UNL     1     -11.711  13.123  65.564  1.00  0.00    -0.393 A  
HETATM   29  C   UNL     1     -12.235  12.097  63.404  1.00  0.00    -0.635 A  
HETATM   30  C   UNL     1     -12.617  12.839  64.511  1.00  0.00    -0.463 A  
ENDBRANCH   8  24
ENDBRANCH   2   5
BRANCH   3  31
HETATM   31  C   UNL     1      -9.427   7.986  68.360  1.00  0.00    -0.148 C  
HETATM   32  C   UNL     1      -8.300   6.906  68.309  1.00  0.00    -0.123 C  
HETATM   33  C   UNL     1     -10.470   7.479  67.333  1.00  0.00    -0.367 C  
BRANCH  31  34
HETATM   34  C   UNL     1      -9.933   8.020  69.823  1.00  0.00    -0.191 A  
HETATM   35  F   UNL     1     -14.061   8.075  71.194  1.00  0.00    -0.355 F  
HETATM   36  C   UNL     1      -9.509   7.876  72.241  1.00  0.00    -0.248 A  
HETATM   37  C   UNL     1      -8.549   7.622  73.381  1.00  0.00    -0.188 C  
HETATM   38  F   UNL     1     -13.436  10.161  71.211  1.00  0.00    -0.413 F  
HETATM   39  C   UNL     1      -9.078   7.763  70.909  1.00  0.00    -0.150 A  
HETATM   40  C   UNL     1     -10.834   8.252  72.498  1.00  0.00    -0.421 A  
HETATM   41  F   UNL     1      -8.974   6.624  74.202  1.00  0.00    -0.144 F  
HETATM   42  F   UNL     1      -8.375   8.716  74.169  1.00  0.00    -0.273 F  
HETATM   43  F   UNL     1      -7.305   7.256  72.965  1.00  0.00    -0.072 F  
HETATM   44  F   UNL     1     -13.437   9.009  73.054  1.00  0.00    -0.465 F  
HETATM   45  C   UNL     1     -11.723   8.505  71.445  1.00  0.00    -0.346 A  
HETATM   46  C   UNL     1     -11.266   8.378  70.117  1.00  0.00    -0.136 A  
HETATM   47  C   UNL     1     -13.149   8.935  71.724  1.00  0.00    -0.374 C  
ENDBRANCH  31  34
ENDBRANCH   3  31
TORSDOF 7
ENDMDL
MODEL        2
REMARK 921   NORMALIZED FREE ENERGY PREDICTED BY IDOCK:   -8.72 KCAL/MOL
REMARK 922        TOTAL FREE ENERGY PREDICTED BY IDOCK:  -12.93 KCAL/MOL
REMARK 923 INTER-LIGAND FREE ENERGY PREDICTED BY IDOCK:  -11.64 KCAL/MOL
REMARK 924 INTRA-LIGAND FREE ENERGY PREDICTED BY IDOCK:   -1.29 KCAL/MOL
REMARK 927      BINDING AFFINITY PREDICTED BY RF-SCORE:    0.00 PKD
ROOT
HETATM    1  C   UNL     1      -9.047  12.787  68.098  1.00  0.00    -0.203 C  
HETATM    2  N   UNL     1     -10.203  12.073  67.541  1.00  0.00    -0.196 N  
HETATM    3  C   UNL     1     -11.244  12.665  66.813  1.00  0.00    -0.300 C  
HETATM    4  O   UNL     1     -12.284  12.028  66.600  1.00  0.00    -0.550 OA 
ENDROOT
BRANCH   2   5
HETATM    5  C   UNL     1     -10.484  10.839  68.228  1.00  0.00    -0.181 A  
HETATM    6  C   UNL     1     -10.110   8.562  68.840  1.00  0.00    -0.213 A  
HETATM    7  C   UNL     1     -11.214  10.910  69.420  1.00  0.00    -0.272 A  
HETATM    8  C   UNL     1      -9.941   9.590  67.869  1.00  0.00    -0.209 A  
HETATM    9  C   UNL     1     -10.858   8.697  70.021  1.00  0.00    -0.221 A  
HETATM   10  N   UNL     1     -11.420   9.887  70.289  1.00  0.00    -0.273 NA 
BRANCH   9  11
HETATM   11  N   UNL     1     -11.040   7.669  70.928  1.00  0.00    -0.258 NA 
HETATM   12  C   UNL     1     -11.287   6.287  70.458  1.00  0.00    -0.361 C  
HETATM   13  N   UNL     1     -10.099   5.406  72.569  1.00  0.00    -0.171 N  
HETATM   14  C   UNL     1     -11.259   4.764  73.295  1.00  0.00    -0.340 C  
HETATM   15  C   UNL     1     -10.965   7.808  72.383  1.00  0.00    -0.311 C  
HETATM   16  C   UNL     1     -10.242   5.289  71.033  1.00  0.00    -0.229 C  
HETATM   17  C   UNL     1      -9.888   6.874  72.961  1.00  0.00    -0.179 C  
BRANCH  13  18
HETATM   18  C   UNL     1      -8.814   4.685  73.003  1.00  0.00    -0.112 C  
BRANCH  18  19
HETATM   19  O   UNL     1      -7.988   4.259  71.963  1.00  0.00    -0.085 OA 
HETATM   20  O   UNL     1      -6.324   5.425  73.503  1.00  0.00    -0.058 OA 
HETATM   21  O   UNL     1      -5.560   4.275  71.239  1.00  0.00    -0.007 OA 
HETATM   22  O   UNL     1      -6.937   6.303  71.209  1.00  0.00    -0.068 OA 
HETATM   23  P   UNL     1      -6.556   5.004  72.077  1.00  0.00    -0.042 P  
ENDBRANCH  18  19
ENDBRANCH  13  18
ENDBRANCH   9  11
BRANCH   8  24
HETATM   24  C   UNL     1      -9.175   9.292  66.598  1.00  0.00    -0.190 A  
HETATM   25  C   UNL     1      -9.740   9.600  65.339  1.00  0.00    -0.365 A  
HETATM   26  C   UNL     1      -9.092   9.356  64.122  1.00  0.00    -0.132 A  
HETATM   27  C   UNL     1      -7.095   8.254  67.772  1.00  0.00    -0.083 C  
HETATM   28  C   UNL     1      -7.869   8.715  66.559  1.00  0.00    -0.099 A  
HETATM   29  C   UNL     1      -7.810   8.840  64.115  1.00  0.00    -0.139 A  
HETATM   30  C   UNL     1      -7.199   8.538  65.322  1.00  0.00    -0.083 A  
ENDBRANCH   8  24
ENDBRANCH   2   5
BRANCH   3  31
HETATM   31  C   UNL     1     -11.120  14.133  66.261  1.00  0.00    -0.318 C  
HETATM   32  C   UNL     1     -12.450  14.498  65.528  1.00  0.00    -0.255 C  
HETATM   33  C   UNL     1     -10.049  14.220  65.145  1.00  0.00    -0.353 C  
BRANCH  31  34
HETATM   34  C   UNL     1     -10.947  15.170  67.396  1.00  0.00    -0.314 A  
HETATM   35  F   UNL     1     -11.746  14.613  71.636  1.00  0.00    -0.370 F  
HETATM   36  C   UNL     1     -10.147  17.353  68.201  1.00  0.00    -0.328 A  
HETATM   37  C   UNL     1      -9.400  18.641  67.942  1.00  0.00    -0.298 C  
HETATM   38  F   UNL     1     -13.539  15.564  70.847  1.00  0.00    -0.511 F  
HETATM   39  C   UNL     1     -10.236  16.368  67.203  1.00  0.00    -0.282 A  
HETATM   40  C   UNL     1     -10.781  17.134  69.431  1.00  0.00    -0.086 A  
HETATM   41  F   UNL     1      -8.383  18.836  68.826  1.00  0.00    -0.345 F  
HETATM   42  F   UNL     1     -10.200  19.735  68.035  1.00  0.00    -0.463 F  
HETATM   43  F   UNL     1      -8.832  18.693  66.706  1.00  0.00    -0.262 F  
HETATM   44  F   UNL     1     -12.035  16.754  71.869  1.00  0.00    -0.415 F  
HETATM   45  C   UNL     1     -11.491  15.949  69.670  1.00  0.00    -0.346 A  
HETATM   46  C   UNL     1     -11.558  14.975  68.653  1.00  0.00    -0.347 A  
HETATM   47  C   UNL     1     -12.196  15.724  70.991  1.00  0.00    -0.418 C  
ENDBRANCH  31  34
ENDBRANCH   3  31
TORSDOF 7
ENDMDL
MODEL        3
REMARK 921   NORMALIZED FREE ENERGY PREDICTED BY IDOCK:   -8.72 KCAL/MOL
REMARK 922        TOTAL FREE ENERGY PREDICTED BY IDOCK:  -12.93 KCAL/MOL
REMARK 923 INTER-LIGAND FREE ENERGY PREDICTED BY IDOCK:   -9.80 KCAL/MOL
REMARK 924 INTRA-LIGAND FREE ENERGY PREDICTED BY IDOCK:   -3.13 KCAL/MOL
REMARK 927      BINDING AFFINITY PREDICTED BY RF-SCORE:    0.00 PKD
ROOT
HETATM    1  C   UNL     1     -11.139   6.092  68.260  1.00  0.00    -0.239 C  
HETATM    2  N   UNL     1      -9.976   6.919  67.919  1.00  0.00    -0.142 N  
HETATM    3  C   UNL     1      -8.656   6.657  68.311  1.00  0.00    -0.119 C  
HETATM    4  O   UNL     1      -7.791   7.535  68.183  1.00  0.00    -0.117 OA 
ENDROOT
BRANCH   2   5
HETATM    5  C   UNL     1     -10.326   8.284  67.619  1.00  0.00    -0.248 A  
HETATM    6  C   UNL     1     -10.679  10.593  68.113  1.00  0.00    -0.267 A  
HETATM    7  C   UNL     1     -10.178   8.717  66.296  1.00  0.00    -0.087 A  
HETATM    8  C   UNL     1     -10.652   9.250  68.590  1.00  0.00    -0.219 A  
HETATM    9  C   UNL     1     -10.523  10.963  66.767  1.00  0.00    -0.251 A  
HETATM   10  N   UNL     1     -10.285   9.999  65.862  1.00  0.00    -0.241 NA 
BRANCH   9  11
HETATM   11  N   UNL     1     -10.595  12.271  66.325  1.00  0.00    -0.245 NA 
HETATM   12  C   UNL     1     -11.903  12.953  66.204  1.00  0.00    -0.429 C  
HETATM   13  N   UNL     1     -10.735  15.188  66.738  1.00  0.00    -0.307 N  
HETATM   14  C   UNL     1     -10.877  15.902  65.414  1.00  0.00    -0.349 C  
HETATM   15  C   UNL     1      -9.442  13.109  65.989  1.00  0.00    -0.089 C  
HETATM   16  C   UNL     1     -11.944  14.269  67.032  1.00  0.00    -0.433 C  
HETATM   17  C   UNL     1      -9.433  14.385  66.848  1.00  0.00    -0.258 C  
BRANCH  13  18
HETATM   18  C   UNL     1     -10.644  16.254  67.841  1.00  0.00    -0.318 C  
BRANCH  18  19
HETATM   19  O   UNL     1      -9.354  16.545  68.285  1.00  0.00    -0.207 OA 
HETATM   20  O   UNL     1     -10.351  18.877  68.019  1.00  0.00    -0.376 OA 
HETATM   21  O   UNL     1      -7.867  18.511  68.874  1.00  0.00    -0.296 OA 
HETATM   22  O   UNL     1      -8.482  17.995  66.557  1.00  0.00    -0.255 OA 
HETATM   23  P   UNL     1      -9.052  18.118  68.056  1.00  0.00    -0.295 P  
ENDBRANCH  18  19
ENDBRANCH  13  18
ENDBRANCH   9  11
BRANCH   8  24
HETATM   24  C   UNL     1     -10.912   8.979  70.056  1.00  0.00    -0.230 A  
HETATM   25  C   UNL     1     -12.230   8.754  70.513  1.00  0.00     0.171 A  
HETATM   26  C   UNL     1     -12.549   8.494  71.852  1.00  0.00    -0.400 A  
HETATM   27  C   UNL     1      -8.428   9.172  70.813  1.00  0.00    -0.256 C  
HETATM   28  C   UNL     1      -9.896   8.911  71.057  1.00  0.00    -0.321 A  
HETATM   29  C   UNL     1     -11.542   8.388  72.792  1.00  0.00    -0.244 A  
HETATM   30  C   UNL     1     -10.227   8.579  72.395  1.00  0.00    -0.369 A  
ENDBRANCH   8  24
ENDBRANCH   2   5
BRANCH   3  31
HETATM   31  C   UNL     1      -8.247   5.264  68.917  1.00  0.00    -0.089 C  
HETATM   32  C   UNL     1      -6.748   4.997  68.572  1.00  0.00    -0.050 C  
HETATM   33  C   UNL     1      -8.998   4.107  68.212  1.00  0.00    -0.154 C  
BRANCH  31  34
HETATM   34  C   UNL     1      -8.350   5.247  70.461  1.00  0.00    -0.112 A  
HETATM   35  F   UNL     1     -11.242   3.096  72.897  1.00  0.00    -0.185 F  
HETATM   36  C   UNL     1      -7.437   5.804  72.676  1.00  0.00    -0.096 A  
HETATM   37  C   UNL     1      -6.314   6.368  73.516  1.00  0.00    -0.065 C  
HETATM   38  F   UNL     1     -12.044   5.113  72.723  1.00  0.00    -0.319 F  
HETATM   39  C   UNL     1      -7.316   5.737  71.278  1.00  0.00    -0.079 A  
HETATM   40  C   UNL     1      -8.623   5.364  73.278  1.00  0.00    -0.116 A  
HETATM   41  F   UNL     1      -5.854   5.473  74.432  1.00  0.00    -0.045 F  
HETATM   42  F   UNL     1      -6.690   7.471  74.217  1.00  0.00    -0.084 F  
HETATM   43  F   UNL     1      -5.229   6.740  72.783  1.00  0.00    -0.034 F  
HETATM   44  F   UNL     1     -10.955   4.525  74.510  1.00  0.00    -0.285 F  
HETATM   45  C   UNL     1      -9.675   4.857  72.502  1.00  0.00    -0.189 A  
HETATM   46  C   UNL     1      -9.523   4.795  71.102  1.00  0.00    -0.218 A  
HETATM   47  C   UNL     1     -10.966   4.405  73.152  1.00  0.00    -0.247 C  
ENDBRANCH  31  34
ENDBRANCH   3  31
TORSDOF 7
ENDMDL
MODEL        4
REMARK 921   NORMALIZED FREE ENERGY PREDICTED BY IDOCK:   -8.72 KCAL/MOL
REMARK 922        TOTAL FREE ENERGY PREDICTED BY IDOCK:  -12.93 KCAL/MOL
REMARK 923 INTER-LIGAND FREE ENERGY PREDICTED BY IDOCK:  -11.10 KCAL/MOL
REMARK 924 INTRA-LIGAND FREE ENERGY PREDICTED BY IDOCK:   -1.83 KCAL/MOL
REMARK 927      BINDING AFFINITY PREDICTED BY RF-SCORE:    0.00 PKD
ROOT
HETATM    1  C   UNL     1      -8.881  13.088  67.780  1.00  0.00    -0.188 C  
HETATM    2  N   UNL     1      -9.905  12.206  67.209  1.00  0.00    -0.195 N  
HETATM    3  C   UNL     1     -11.080  12.635  66.576  1.00  0.00    -0.280 C  
HETATM    4  O   UNL     1     -11.988  11.824  66.349  1.00  0.00    -0.515 OA 
ENDROOT
BRANCH   2   5
HETATM    5  C   UNL     1      -9.905  10.891  67.797  1.00  0.00    -0.175 A  
HETATM    6  C   UNL     1      -9.090   8.677  68.160  1.00  0.00    -0.142 A  
HETATM    7  C   UNL     1     -10.519  10.736  69.045  1.00  0.00    -0.215 A  
HETATM    8  C   UNL     1      -9.192   9.792  67.279  1.00  0.00    -0.153 A  
HETATM    9  C   UNL     1      -9.734   8.583  69.404  1.00  0.00    -0.177 A  
HETATM   10  N   UNL     1     -10.464   9.629  69.827  1.00  0.00    -0.221 NA 
BRANCH   9  11
HETATM   11  N   UNL     1      -9.650   7.471  70.222  1.00  0.00    -0.165 NA 
HETATM   12  C   UNL     1     -10.829   6.599  70.428  1.00  0.00    -0.266 C  
HETATM   13  N   UNL     1      -9.236   4.594  70.724  1.00  0.00    -0.132 N  
HETATM   14  C   UNL     1      -9.453   4.277  72.185  1.00  0.00    -0.132 C  
HETATM   15  C   UNL     1      -8.437   7.019  70.906  1.00  0.00    -0.134 C  
HETATM   16  C   UNL     1     -10.525   5.121  70.049  1.00  0.00    -0.235 C  
HETATM   17  C   UNL     1      -8.086   5.581  70.490  1.00  0.00    -0.104 C  
BRANCH  13  18
HETATM   18  C   UNL     1      -8.804   3.299  70.019  1.00  0.00    -0.087 C  
BRANCH  18  19
HETATM   19  O   UNL     1      -9.502   2.992  68.852  1.00  0.00    -0.169 OA 
HETATM   20  O   UNL     1      -7.096   2.511  68.159  1.00  0.00    -0.047 OA 
HETATM   21  O   UNL     1      -9.126   2.154  66.490  1.00  0.00    -0.123 OA 
HETATM   22  O   UNL     1      -8.463   4.409  67.189  1.00  0.00    -0.104 OA 
HETATM   23  P   UNL     1      -8.458   2.859  67.623  1.00  0.00    -0.104 P  
ENDBRANCH  18  19
ENDBRANCH  13  18
ENDBRANCH   9  11
BRANCH   8  24
HETATM   24  C   UNL     1      -8.511   9.736  65.929  1.00  0.00    -0.136 A  
HETATM   25  C   UNL     1      -9.257   9.427  64.769  1.00  0.00    -0.220 A  
HETATM   26  C   UNL     1      -8.698   9.359  63.487  1.00  0.00    -0.221 A  
HETATM   27  C   UNL     1      -6.123  10.290  66.808  1.00  0.00    -0.062 C  
HETATM   28  C   UNL     1      -7.122   9.996  65.714  1.00  0.00    -0.117 A  
HETATM   29  C   UNL     1      -7.362   9.660  63.301  1.00  0.00    -0.117 A  
HETATM   30  C   UNL     1      -6.586   9.991  64.401  1.00  0.00    -0.130 A  
ENDBRANCH   8  24
ENDBRANCH   2   5
BRANCH   3  31
HETATM   31  C   UNL     1     -11.273  14.137  66.148  1.00  0.00    -0.326 C  
HETATM   32  C   UNL     1     -12.680  14.285  65.488  1.00  0.00    -0.399 C  
HETATM   33  C   UNL     1     -10.291  14.524  65.014  1.00  0.00    -0.442 C  
BRANCH  31  34
HETATM   34  C   UNL     1     -11.257  15.096  67.363  1.00  0.00    -0.323 A  
HETATM   35  F   UNL     1     -10.467  19.374  67.350  1.00  0.00    -0.428 F  
HETATM   36  C   UNL     1     -11.687  15.547  69.743  1.00  0.00    -0.362 A  
HETATM   37  C   UNL     1     -12.227  15.087  71.078  1.00  0.00    -0.326 C  
HETATM   38  F   UNL     1      -8.564  18.453  67.871  1.00  0.00    -0.253 F  
HETATM   39  C   UNL     1     -11.774  14.715  68.614  1.00  0.00    -0.362 A  
HETATM   40  C   UNL     1     -11.069  16.798  69.620  1.00  0.00    -0.036 A  
HETATM   41  F   UNL     1     -13.182  15.925  71.566  1.00  0.00    -0.509 F  
HETATM   42  F   UNL     1     -11.263  15.010  72.032  1.00  0.00    -0.458 F  
HETATM   43  F   UNL     1     -12.806  13.855  71.027  1.00  0.00    -0.368 F  
HETATM   44  F   UNL     1      -9.840  19.271  69.428  1.00  0.00    -0.418 F  
HETATM   45  C   UNL     1     -10.550  17.223  68.388  1.00  0.00    -0.368 A  
HETATM   46  C   UNL     1     -10.658  16.370  67.270  1.00  0.00    -0.293 A  
HETATM   47  C   UNL     1      -9.861  18.566  68.262  1.00  0.00    -0.363 C  
ENDBRANCH  31  34
ENDBRANCH   3  31
TORSDOF 7
ENDMDL
MODEL        5
REMARK 921   NORMALIZED FREE ENERGY PREDICTED BY IDOCK:   -8.69 KCAL/MOL
REMARK 922        TOTAL FREE ENERGY PREDICTED BY IDOCK:  -12.88 KCAL/MOL
REMARK 923 INTER-LIGAND FREE ENERGY PREDICTED BY IDOCK:  -12.24 KCAL/MOL
REMARK 924 INTRA-LIGAND FREE ENERGY PREDICTED BY IDOCK:   -0.64 KCAL/MOL
REMARK 927      BINDING AFFINITY PREDICTED BY RF-SCORE:    0.00 PKD
ROOT
HETATM    1  C   UNL     1      -8.393  10.531  69.207  1.00  0.00    -0.137 C  
HETATM    2  N   UNL     1      -9.625  10.582  68.411  1.00  0.00    -0.154 N  
HETATM    3  C   UNL     1     -10.110   9.544  67.604  1.00  0.00    -0.205 C  
HETATM    4  O   UNL     1     -11.015   9.770  66.790  1.00  0.00    -0.074 OA 
ENDROOT
BRANCH   2   5
HETATM    5  C   UNL     1     -10.026  11.927  68.084  1.00  0.00    -0.197 A  
HETATM    6  C   UNL     1     -11.006  14.063  68.506  1.00  0.00    -0.274 A  
HETATM    7  C   UNL     1      -9.320  12.589  67.073  1.00  0.00    -0.210 A  
HETATM    8  C   UNL     1     -10.970  12.672  68.817  1.00  0.00    -0.289 A  
HETATM    9  C   UNL     1     -10.269  14.667  67.475  1.00  0.00    -0.225 A  
HETATM   10  N   UNL     1      -9.433  13.902  66.753  1.00  0.00    -0.270 NA 
BRANCH   9  11
HETATM   11  N   UNL     1     -10.353  16.013  67.168  1.00  0.00    -0.290 NA 
HETATM   12  C   UNL     1     -11.000  16.958  68.107  1.00  0.00    -0.290 C  
HETATM   13  N   UNL     1      -9.405  18.804  67.274  1.00  0.00    -0.287 N  
HETATM   14  C   UNL     1     -10.379  19.718  66.568  1.00  0.00    -0.506 C  
HETATM   15  C   UNL     1      -9.799  16.639  65.966  1.00  0.00    -0.309 C  
HETATM   16  C   UNL     1     -10.043  18.118  68.505  1.00  0.00    -0.400 C  
HETATM   17  C   UNL     1      -8.800  17.745  66.344  1.00  0.00    -0.231 C  
BRANCH  13  18
HETATM   18  C   UNL     1      -8.215  19.654  67.743  1.00  0.00    -0.302 C  
BRANCH  18  19
HETATM   19  O   UNL     1      -8.018  19.697  69.123  1.00  0.00    -0.313 OA 
HETATM   20  O   UNL     1      -5.785  20.569  68.253  1.00  0.00    -0.235 OA 
HETATM   21  O   UNL     1      -6.280  20.347  70.849  1.00  0.00    -0.553 OA 
HETATM   22  O   UNL     1      -6.035  18.350  69.448  1.00  0.00    -0.230 OA 
HETATM   23  P   UNL     1      -6.444  19.907  69.433  1.00  0.00    -0.313 P  
ENDBRANCH  18  19
ENDBRANCH  13  18
ENDBRANCH   9  11
BRANCH   8  24
HETATM   24  C   UNL     1     -11.874  12.131  69.904  1.00  0.00    -0.392 A  
HETATM   25  C   UNL     1     -12.188  10.754  69.946  1.00  0.00    -0.384 A  
HETATM   26  C   UNL     1     -13.014  10.180  70.921  1.00  0.00    -0.432 A  
HETATM   27  C   UNL     1     -12.298  14.422  71.068  1.00  0.00    -0.427 C  
HETATM   28  C   UNL     1     -12.448  12.924  70.944  1.00  0.00    -0.383 A  
HETATM   29  C   UNL     1     -13.518  10.961  71.942  1.00  0.00    -0.306 A  
HETATM   30  C   UNL     1     -13.225  12.316  71.963  1.00  0.00    -0.508 A  
ENDBRANCH   8  24
ENDBRANCH   2   5
BRANCH   3  31
HETATM   31  C   UNL     1      -9.520   8.089  67.707  1.00  0.00    -0.166 C  
HETATM   32  C   UNL     1      -8.060   8.107  67.156  1.00  0.00    -0.116 C  
HETATM   33  C   UNL     1     -10.261   7.118  66.754  1.00  0.00    -0.289 C  
BRANCH  31  34
HETATM   34  C   UNL     1      -9.429   7.600  69.173  1.00  0.00    -0.154 A  
HETATM   35  F   UNL     1      -5.835   7.070  71.566  1.00  0.00    -0.034 F  
HETATM   36  C   UNL     1     -10.502   7.002  71.304  1.00  0.00    -0.224 A  
HETATM   37  C   UNL     1     -11.751   6.908  72.150  1.00  0.00    -0.288 C  
HETATM   38  F   UNL     1      -6.286   5.088  70.785  1.00  0.00    -0.019 F  
HETATM   39  C   UNL     1     -10.562   7.524  70.001  1.00  0.00    -0.242 A  
HETATM   40  C   UNL     1      -9.273   6.547  71.799  1.00  0.00    -0.149 A  
HETATM   41  F   UNL     1     -11.639   7.601  73.316  1.00  0.00    -0.350 F  
HETATM   42  F   UNL     1     -12.052   5.628  72.495  1.00  0.00    -0.357 F  
HETATM   43  F   UNL     1     -12.859   7.402  71.531  1.00  0.00    -0.337 F  
HETATM   44  F   UNL     1      -6.870   5.619  72.810  1.00  0.00    -0.066 F  
HETATM   45  C   UNL     1      -8.115   6.616  71.011  1.00  0.00    -0.119 A  
HETATM   46  C   UNL     1      -8.203   7.151  69.709  1.00  0.00    -0.131 A  
HETATM   47  C   UNL     1      -6.791   6.102  71.538  1.00  0.00    -0.067 C  
ENDBRANCH  31  34
ENDBRANCH   3  31
TORSDOF 7
ENDMDL
MODEL        6
REMARK 921   NORMALIZED FREE ENERGY PREDICTED BY IDOCK:   -8.62 KCAL/MOL
REMARK 922        TOTAL FREE ENERGY PREDICTED BY IDOCK:  -12.79 KCAL/MOL
REMARK 923 INTER-LIGAND FREE ENERGY PREDICTED BY IDOCK:  -11.29 KCAL/MOL
REMARK 924 INTRA-LIGAND FREE ENERGY PREDICTED BY IDOCK:   -1.50 KCAL/MOL
REMARK 927      BINDING AFFINITY PREDICTED BY RF-SCORE:    0.00 PKD
ROOT
HETATM    1  C   UNL     1     -10.652  10.609  68.743  1.00  0.00    -0.206 C  
HETATM    2  N   UNL     1      -9.506  10.562  67.827  1.00  0.00    -0.148 N  
HETATM    3  C   UNL     1      -8.754   9.418  67.531  1.00  0.00    -0.122 C  
HETATM    4  O   UNL     1      -7.669   9.530  66.944  1.00  0.00    -0.097 OA 
ENDROOT
BRANCH   2   5
HETATM    5  C   UNL     1      -8.869  11.843  67.661  1.00  0.00    -0.169 A  
HETATM    6  C   UNL     1      -8.718  14.115  66.943  1.00  0.00    -0.187 A  
HETATM    7  C   UNL     1      -7.867  12.195  68.573  1.00  0.00    -0.122 A  
HETATM    8  C   UNL     1      -9.293  12.827  66.746  1.00  0.00    -0.241 A  
HETATM    9  C   UNL     1      -7.712  14.404  67.880  1.00  0.00    -0.146 A  
HETATM   10  N   UNL     1      -7.286  13.416  68.685  1.00  0.00    -0.105 NA 
BRANCH   9  11
HETATM   11  N   UNL     1      -7.142  15.655  68.022  1.00  0.00    -0.114 NA 
HETATM   12  C   UNL     1      -6.423  16.287  66.893  1.00  0.00    -0.040 C  
HETATM   13  N   UNL     1      -7.146  18.596  67.783  1.00  0.00    -0.218 N  
HETATM   14  C   UNL     1      -5.812  19.161  68.212  1.00  0.00    -0.213 C  
HETATM   15  C   UNL     1      -7.220  16.483  69.228  1.00  0.00    -0.213 C  
HETATM   16  C   UNL     1      -7.015  17.682  66.542  1.00  0.00    -0.241 C  
HETATM   17  C   UNL     1      -7.865  17.842  68.909  1.00  0.00    -0.184 C  
BRANCH  13  18
HETATM   18  C   UNL     1      -8.068  19.774  67.435  1.00  0.00    -0.297 C  
BRANCH  18  19
HETATM   19  O   UNL     1      -8.743  19.666  66.220  1.00  0.00    -0.354 OA 
HETATM   20  O   UNL     1     -10.650  20.192  67.829  1.00  0.00    -0.307 OA 
HETATM   21  O   UNL     1     -11.070  19.847  65.233  1.00  0.00    -0.360 OA 
HETATM   22  O   UNL     1     -10.406  17.962  66.654  1.00  0.00    -0.353 OA 
HETATM   23  P   UNL     1     -10.334  19.562  66.500  1.00  0.00    -0.537 P  
ENDBRANCH  18  19
ENDBRANCH  13  18
ENDBRANCH   9  11
BRANCH   8  24
HETATM   24  C   UNL     1     -10.315  12.630  65.647  1.00  0.00    -0.293 A  
HETATM   25  C   UNL     1      -9.962  11.941  64.464  1.00  0.00    -0.255 A  
HETATM   26  C   UNL     1     -10.853  11.718  63.407  1.00  0.00    -0.460 A  
HETATM   27  C   UNL     1     -12.250  13.894  66.848  1.00  0.00    -0.415 C  
HETATM   28  C   UNL     1     -11.667  13.088  65.711  1.00  0.00    -0.427 A  
HETATM   29  C   UNL     1     -12.167  12.130  63.514  1.00  0.00    -0.670 A  
HETATM   30  C   UNL     1     -12.574  12.794  64.661  1.00  0.00    -0.491 A  
ENDBRANCH   8  24
ENDBRANCH   2   5
BRANCH   3  31
HETATM   31  C   UNL     1      -9.259   7.983  67.935  1.00  0.00    -0.137 C  
HETATM   32  C   UNL     1      -8.159   6.946  67.547  1.00  0.00    -0.116 C  
HETATM   33  C   UNL     1     -10.481   7.562  67.081  1.00  0.00    -0.407 C  
BRANCH  31  34
HETATM   34  C   UNL     1      -9.468   7.848  69.463  1.00  0.00    -0.160 A  
HETATM   35  F   UNL     1      -6.675   8.913  72.622  1.00  0.00    -0.091 F  
HETATM   36  C   UNL     1     -10.921   7.392  71.394  1.00  0.00    -0.258 A  
HETATM   37  C   UNL     1     -12.298   7.097  71.946  1.00  0.00    -0.317 C  
HETATM   38  F   UNL     1      -6.399   6.773  72.327  1.00  0.00    -0.047 F  
HETATM   39  C   UNL     1     -10.736   7.601  70.017  1.00  0.00    -0.245 A  
HETATM   40  C   UNL     1      -9.809   7.437  72.245  1.00  0.00    -0.203 A  
HETATM   41  F   UNL     1     -12.687   8.010  72.878  1.00  0.00    -0.152 F  
HETATM   42  F   UNL     1     -12.367   5.882  72.551  1.00  0.00    -0.322 F  
HETATM   43  F   UNL     1     -13.271   7.101  70.994  1.00  0.00    -0.407 F  
HETATM   44  F   UNL     1      -7.638   7.497  73.960  1.00  0.00    -0.119 F  
HETATM   45  C   UNL     1      -8.528   7.693  71.735  1.00  0.00    -0.124 A  
HETATM   46  C   UNL     1      -8.373   7.905  70.350  1.00  0.00    -0.121 A  
HETATM   47  C   UNL     1      -7.323   7.717  72.652  1.00  0.00    -0.080 C  
ENDBRANCH  31  34
ENDBRANCH   3  31
TORSDOF 7
ENDMDL
MODEL        7
REMARK 921   NORMALIZED FREE ENERGY PREDICTED BY IDOCK:   -8.58 KCAL/MOL
REMARK 922        TOTAL FREE ENERGY PREDICTED BY IDOCK:  -12.74 KCAL/MOL
REMARK 923 INTER-LIGAND FREE ENERGY PREDICTED BY IDOCK:   -9.57 KCAL/MOL
REMARK 924 INTRA-LIGAND FREE ENERGY PREDICTED BY IDOCK:   -3.17 KCAL/MOL
REMARK 927      BINDING AFFINITY PREDICTED BY RF-SCORE:    0.00 PKD
ROOT
HETATM    1  C   UNL     1     -11.209   5.995  68.529  1.00  0.00    -0.055 C  
HETATM    2  N   UNL     1     -10.018   6.786  68.200  1.00  0.00    -0.144 N  
HETATM    3  C   UNL     1      -8.693   6.376  68.401  1.00  0.00    -0.113 C  
HETATM    4  O   UNL     1      -7.774   7.202  68.320  1.00  0.00    -0.115 OA 
ENDROOT
BRANCH   2   5
HETATM    5  C   UNL     1     -10.280   8.202  68.156  1.00  0.00    -0.209 A  
HETATM    6  C   UNL     1     -10.344  10.425  69.026  1.00  0.00    -0.232 A  
HETATM    7  C   UNL     1     -10.282   8.825  66.903  1.00  0.00    -0.287 A  
HETATM    8  C   UNL     1     -10.373   9.026  69.295  1.00  0.00    -0.227 A  
HETATM    9  C   UNL     1     -10.348  10.988  67.739  1.00  0.00    -0.188 A  
HETATM   10  N   UNL     1     -10.332  10.163  66.680  1.00  0.00    -0.223 NA 
BRANCH   9  11
HETATM   11  N   UNL     1     -10.361  12.351  67.507  1.00  0.00    -0.213 NA 
HETATM   12  C   UNL     1     -11.575  13.012  66.975  1.00  0.00    -0.360 C  
HETATM   13  N   UNL     1     -10.918  15.148  68.259  1.00  0.00    -0.265 N  
HETATM   14  C   UNL     1     -10.596  16.077  67.112  1.00  0.00    -0.305 C  
HETATM   15  C   UNL     1      -9.251  13.263  67.789  1.00  0.00    -0.209 C  
HETATM   16  C   UNL     1     -12.056  14.163  67.904  1.00  0.00    -0.274 C  
HETATM   17  C   UNL     1      -9.695  14.370  68.760  1.00  0.00    -0.190 C  
BRANCH  13  18
HETATM   18  C   UNL     1     -11.363  16.009  69.452  1.00  0.00    -0.355 C  
BRANCH  18  19
HETATM   19  O   UNL     1     -12.679  15.815  69.871  1.00  0.00    -0.182 OA 
HETATM   20  O   UNL     1     -11.459  16.070  72.095  1.00  0.00    -0.388 OA 
HETATM   21  O   UNL     1     -14.080  15.682  71.978  1.00  0.00    -0.492 OA 
HETATM   22  O   UNL     1     -12.522  13.900  71.340  1.00  0.00    -0.351 OA 
HETATM   23  P   UNL     1     -12.694  15.495  71.457  1.00  0.00    -0.475 P  
ENDBRANCH  18  19
ENDBRANCH  13  18
ENDBRANCH   9  11
BRANCH   8  24
HETATM   24  C   UNL     1     -10.446   8.548  70.729  1.00  0.00    -0.239 A  
HETATM   25  C   UNL     1     -11.689   8.180  71.293  1.00  0.00    -0.310 A  
HETATM   26  C   UNL     1     -11.834   7.726  72.610  1.00  0.00    -0.317 A  
HETATM   27  C   UNL     1      -7.903   8.801  71.228  1.00  0.00    -0.167 C  
HETATM   28  C   UNL     1      -9.317   8.415  71.594  1.00  0.00    -0.280 A  
HETATM   29  C   UNL     1     -10.720   7.564  73.410  1.00  0.00    -0.387 A  
HETATM   30  C   UNL     1      -9.472   7.889  72.902  1.00  0.00    -0.321 A  
ENDBRANCH   8  24
ENDBRANCH   2   5
BRANCH   3  31
HETATM   31  C   UNL     1      -8.346   4.877  68.733  1.00  0.00    -0.083 C  
HETATM   32  C   UNL     1      -6.924   4.564  68.172  1.00  0.00    -0.056 C  
HETATM   33  C   UNL     1      -9.271   3.906  67.958  1.00  0.00    -0.212 C  
BRANCH  31  34
HETATM   34  C   UNL     1      -8.281   4.619  70.258  1.00  0.00    -0.075 A  
HETATM   35  F   UNL     1     -10.502   1.653  72.537  1.00  0.00    -0.190 F  
HETATM   36  C   UNL     1      -7.243   5.004  72.455  1.00  0.00    -0.087 A  
HETATM   37  C   UNL     1      -6.146   5.633  73.283  1.00  0.00    -0.055 C  
HETATM   38  F   UNL     1     -11.641   3.496  72.755  1.00  0.00     0.042 F  
HETATM   39  C   UNL     1      -7.262   5.163  71.059  1.00  0.00    -0.068 A  
HETATM   40  C   UNL     1      -8.269   4.275  73.070  1.00  0.00    -0.091 A  
HETATM   41  F   UNL     1      -5.449   4.712  74.003  1.00  0.00    -0.007 F  
HETATM   42  F   UNL     1      -6.623   6.536  74.179  1.00  0.00    -0.071 F  
HETATM   43  F   UNL     1      -5.221   6.296  72.535  1.00  0.00    -0.027 F  
HETATM   44  F   UNL     1     -10.286   2.861  74.331  1.00  0.00    -0.160 F  
HETATM   45  C   UNL     1      -9.299   3.705  72.308  1.00  0.00    -0.177 A  
HETATM   46  C   UNL     1      -9.289   3.875  70.908  1.00  0.00    -0.222 A  
HETATM   47  C   UNL     1     -10.421   2.938  72.977  1.00  0.00    -0.161 C  
ENDBRANCH  31  34
ENDBRANCH   3  31
TORSDOF 7
ENDMDL
MODEL        8
REMARK 921   NORMALIZED FREE ENERGY PREDICTED BY IDOCK:   -8.28 KCAL/MOL
REMARK 922        TOTAL FREE ENERGY PREDICTED BY IDOCK:  -12.31 KCAL/MOL
REMARK 923 INTER-LIGAND FREE ENERGY PREDICTED BY IDOCK:  -10.84 KCAL/MOL
REMARK 924 INTRA-LIGAND FREE ENERGY PREDICTED BY IDOCK:   -1.48 KCAL/MOL
REMARK 927      BINDING AFFINITY PREDICTED BY RF-SCORE:    0.00 PKD
ROOT
HETATM    1  C   UNL     1      -8.725  13.190  67.533  1.00  0.00    -0.201 C  
HETATM    2  N   UNL     1      -9.747  12.271  67.019  1.00  0.00    -0.201 N  
HETATM    3  C   UNL     1     -10.980  12.656  66.475  1.00  0.00    -0.269 C  
HETATM    4  O   UNL     1     -11.865  11.808  66.297  1.00  0.00    -0.501 OA 
ENDROOT
BRANCH   2   5
HETATM    5  C   UNL     1      -9.648  10.949  67.584  1.00  0.00    -0.163 A  
HETATM    6  C   UNL     1      -8.580   8.869  68.065  1.00  0.00    -0.130 A  
HETATM    7  C   UNL     1     -10.442  10.658  68.699  1.00  0.00    -0.191 A  
HETATM    8  C   UNL     1      -8.696   9.989  67.192  1.00  0.00    -0.132 A  
HETATM    9  C   UNL     1      -9.412   8.633  69.172  1.00  0.00    -0.157 A  
HETATM   10  N   UNL     1     -10.356   9.542  69.467  1.00  0.00    -0.205 NA 
BRANCH   9  11
HETATM   11  N   UNL     1      -9.304   7.517  69.979  1.00  0.00    -0.154 NA 
HETATM   12  C   UNL     1     -10.490   6.676  70.263  1.00  0.00    -0.209 C  
HETATM   13  N   UNL     1      -8.937   4.627  70.446  1.00  0.00    -0.097 N  
HETATM   14  C   UNL     1      -9.063   4.311  71.918  1.00  0.00    -0.122 C  
HETATM   15  C   UNL     1      -8.061   7.029  70.580  1.00  0.00    -0.114 C  
HETATM   16  C   UNL     1     -10.253   5.193  69.861  1.00  0.00    -0.291 C  
HETATM   17  C   UNL     1      -7.778   5.583  70.138  1.00  0.00    -0.085 C  
BRANCH  13  18
HETATM   18  C   UNL     1      -8.589   3.324  69.712  1.00  0.00    -0.064 C  
BRANCH  18  19
HETATM   19  O   UNL     1      -9.306   3.088  68.539  1.00  0.00    -0.171 OA 
HETATM   20  O   UNL     1      -6.929   2.514  67.818  1.00  0.00    -0.046 OA 
HETATM   21  O   UNL     1      -8.981   2.310  66.150  1.00  0.00    -0.130 OA 
HETATM   22  O   UNL     1      -8.206   4.506  66.917  1.00  0.00    -0.102 OA 
HETATM   23  P   UNL     1      -8.275   2.945  67.301  1.00  0.00    -0.090 P  
ENDBRANCH  18  19
ENDBRANCH  13  18
ENDBRANCH   9  11
BRANCH   8  24
HETATM   24  C   UNL     1      -7.787  10.086  65.986  1.00  0.00    -0.119 A  
HETATM   25  C   UNL     1      -6.387  10.179  66.157  1.00  0.00    -0.087 A  
HETATM   26  C   UNL     1      -5.483  10.269  65.091  1.00  0.00    -0.111 A  
HETATM   27  C   UNL     1      -9.689  10.040  64.208  1.00  0.00    -0.242 C  
HETATM   28  C   UNL     1      -8.239  10.075  64.630  1.00  0.00    -0.163 A  
HETATM   29  C   UNL     1      -5.944  10.210  63.790  1.00  0.00    -0.140 A  
HETATM   30  C   UNL     1      -7.306  10.098  63.563  1.00  0.00    -0.127 A  
ENDBRANCH   8  24
ENDBRANCH   2   5
BRANCH   3  31
HETATM   31  C   UNL     1     -11.267  14.153  66.086  1.00  0.00    -0.326 C  
HETATM   32  C   UNL     1     -12.765  14.275  65.664  1.00  0.00    -0.395 C  
HETATM   33  C   UNL     1     -10.490  14.556  64.807  1.00  0.00    -0.365 C  
BRANCH  31  34
HETATM   34  C   UNL     1     -11.071  15.114  67.283  1.00  0.00    -0.332 A  
HETATM   35  F   UNL     1     -11.676  14.245  71.502  1.00  0.00    -0.371 F  
HETATM   36  C   UNL     1     -10.289  17.256  68.206  1.00  0.00    -0.361 A  
HETATM   37  C   UNL     1      -9.585  18.579  68.007  1.00  0.00    -0.312 C  
HETATM   38  F   UNL     1     -13.522  15.199  70.856  1.00  0.00    -0.431 F  
HETATM   39  C   UNL     1     -10.398  16.341  67.146  1.00  0.00    -0.285 A  
HETATM   40  C   UNL     1     -10.866  16.937  69.442  1.00  0.00    -0.186 A  
HETATM   41  F   UNL     1      -8.537  18.739  68.861  1.00  0.00    -0.347 F  
HETATM   42  F   UNL     1     -10.407  19.642  68.209  1.00  0.00    -0.475 F  
HETATM   43  F   UNL     1      -9.071  18.731  66.756  1.00  0.00    -0.274 F  
HETATM   44  F   UNL     1     -12.005  16.356  71.897  1.00  0.00    -0.489 F  
HETATM   45  C   UNL     1     -11.536  15.719  69.626  1.00  0.00    -0.348 A  
HETATM   46  C   UNL     1     -11.623  14.816  68.547  1.00  0.00    -0.348 A  
HETATM   47  C   UNL     1     -12.179  15.385  70.956  1.00  0.00    -0.376 C  
ENDBRANCH  31  34
ENDBRANCH   3  31
TORSDOF 7
ENDMDL
MODEL        9
REMARK 921   NORMALIZED FREE ENERGY PREDICTED BY IDOCK:   -8.10 KCAL/MOL
REMARK 922        TOTAL FREE ENERGY PREDICTED BY IDOCK:  -12.06 KCAL/MOL
REMARK 923 INTER-LIGAND FREE ENERGY PREDICTED BY IDOCK:   -9.05 KCAL/MOL
REMARK 924 INTRA-LIGAND FREE ENERGY PREDICTED BY IDOCK:   -3.01 KCAL/MOL
REMARK 927      BINDING AFFINITY PREDICTED BY RF-SCORE:    0.00 PKD
ROOT
HETATM    1  C   UNL     1      -6.548   7.642  68.686  1.00  0.00    -0.053 C  
HETATM    2  N   UNL     1      -6.951   8.628  69.696  1.00  0.00    -0.050 N  
HETATM    3  C   UNL     1      -7.113   8.365  71.063  1.00  0.00    -0.061 C  
HETATM    4  O   UNL     1      -7.686   9.193  71.785  1.00  0.00    -0.344 OA 
ENDROOT
BRANCH   2   5
HETATM    5  C   UNL     1      -7.681   9.737  69.137  1.00  0.00    -0.092 A  
HETATM    6  C   UNL     1      -9.615  11.075  68.725  1.00  0.00    -0.194 A  
HETATM    7  C   UNL     1      -6.965  10.899  68.829  1.00  0.00    -0.078 A  
HETATM    8  C   UNL     1      -9.085   9.789  69.030  1.00  0.00    -0.157 A  
HETATM    9  C   UNL     1      -8.838  12.206  68.424  1.00  0.00    -0.143 A  
HETATM   10  N   UNL     1      -7.501  12.092  68.468  1.00  0.00    -0.113 NA 
BRANCH   9  11
HETATM   11  N   UNL     1      -9.380  13.434  68.092  1.00  0.00    -0.213 NA 
HETATM   12  C   UNL     1      -9.783  14.389  69.150  1.00  0.00    -0.002 C  
HETATM   13  N   UNL     1      -9.212  16.329  67.551  1.00  0.00    -0.204 N  
HETATM   14  C   UNL     1     -10.589  16.898  67.299  1.00  0.00    -0.270 C  
HETATM   15  C   UNL     1      -9.564  13.930  66.727  1.00  0.00    -0.283 C  
HETATM   16  C   UNL     1      -9.073  15.763  68.984  1.00  0.00    -0.245 C  
HETATM   17  C   UNL     1      -8.813  15.258  66.528  1.00  0.00    -0.300 C  
BRANCH  13  18
HETATM   18  C   UNL     1      -8.191  17.462  67.365  1.00  0.00    -0.201 C  
BRANCH  18  19
HETATM   19  O   UNL     1      -7.902  17.795  66.042  1.00  0.00    -0.458 OA 
HETATM   20  O   UNL     1      -6.632  19.598  67.322  1.00  0.00    -0.195 OA 
HETATM   21  O   UNL     1      -6.596  19.480  64.672  1.00  0.00    -0.401 OA 
HETATM   22  O   UNL     1      -8.647  20.091  65.869  1.00  0.00    -0.310 OA 
HETATM   23  P   UNL     1      -7.262  19.280  65.993  1.00  0.00    -0.262 P  
ENDBRANCH  18  19
ENDBRANCH  13  18
ENDBRANCH   9  11
BRANCH   8  24
HETATM   24  C   UNL     1     -10.032   8.631  69.260  1.00  0.00    -0.195 A  
HETATM   25  C   UNL     1     -10.069   7.552  68.348  1.00  0.00    -0.200 A  
HETATM   26  C   UNL     1     -10.916   6.446  68.494  1.00  0.00    -0.396 A  
HETATM   27  C   UNL     1     -11.093   9.577  71.442  1.00  0.00    -0.438 C  
HETATM   28  C   UNL     1     -10.919   8.522  70.374  1.00  0.00    -0.254 A  
HETATM   29  C   UNL     1     -11.730   6.344  69.605  1.00  0.00    -0.195 A  
HETATM   30  C   UNL     1     -11.720   7.364  70.544  1.00  0.00    -0.220 A  
ENDBRANCH   8  24
ENDBRANCH   2   5
BRANCH   3  31
HETATM   31  C   UNL     1      -6.582   7.030  71.704  1.00  0.00    -0.048 C  
HETATM   32  C   UNL     1      -6.260   7.299  73.208  1.00  0.00    -0.060 C  
HETATM   33  C   UNL     1      -5.214   6.627  71.100  1.00  0.00    -0.023 C  
BRANCH  31  34
HETATM   34  C   UNL     1      -7.648   5.907  71.680  1.00  0.00    -0.100 A  
HETATM   35  F   UNL     1      -7.461   2.127  69.536  1.00  0.00    -0.042 F  
HETATM   36  C   UNL     1      -9.733   4.913  72.524  1.00  0.00    -0.189 A  
HETATM   37  C   UNL     1     -10.882   4.938  73.507  1.00  0.00    -0.305 C  
HETATM   38  F   UNL     1      -8.616   3.447  68.246  1.00  0.00    -0.091 F  
HETATM   39  C   UNL     1      -8.716   5.880  72.594  1.00  0.00    -0.122 A  
HETATM   40  C   UNL     1      -9.682   3.942  71.516  1.00  0.00    -0.247 A  
HETATM   41  F   UNL     1     -10.977   3.782  74.220  1.00  0.00    -0.257 F  
HETATM   42  F   UNL     1     -12.084   5.112  72.899  1.00  0.00    -0.359 F  
HETATM   43  F   UNL     1     -10.778   5.934  74.430  1.00  0.00    -0.256 F  
HETATM   44  F   UNL     1      -9.632   2.017  69.529  1.00  0.00    -0.184 F  
HETATM   45  C   UNL     1      -8.628   3.926  70.591  1.00  0.00    -0.108 A  
HETATM   46  C   UNL     1      -7.617   4.904  70.688  1.00  0.00    -0.066 A  
HETATM   47  C   UNL     1      -8.587   2.890  69.486  1.00  0.00    -0.067 C  
ENDBRANCH  31  34
ENDBRANCH   3  31
TORSDOF 7
ENDMDL
MODEL       10
REMARK 921   NORMALIZED FREE ENERGY PREDICTED BY IDOCK:   -8.09 KCAL/MOL
REMARK 922        TOTAL FREE ENERGY PREDICTED BY IDOCK:  -12.04 KCAL/MOL
REMARK 923 INTER-LIGAND FREE ENERGY PREDICTED BY IDOCK:  -11.46 KCAL/MOL
REMARK 924 INTRA-LIGAND FREE ENERGY PREDICTED BY IDOCK:   -0.59 KCAL/MOL
REMARK 927      BINDING AFFINITY PREDICTED BY RF-SCORE:    0.00 PKD
ROOT
HETATM    1  C   UNL     1     -11.857  11.752  64.687  1.00  0.00    -0.124 C  
HETATM    2  N   UNL     1     -10.826  11.882  65.724  1.00  0.00    -0.286 N  
HETATM    3  C   UNL     1     -10.381  13.091  66.275  1.00  0.00    -0.285 C  
HETATM    4  O   UNL     1      -9.347  13.112  66.958  1.00  0.00    -0.222 OA 
ENDROOT
BRANCH   2   5
HETATM    5  C   UNL     1      -9.926  10.757  65.763  1.00  0.00    -0.251 A  
HETATM    6  C   UNL     1      -9.089   8.675  66.578  1.00  0.00    -0.206 A  
HETATM    7  C   UNL     1      -9.242  10.429  64.586  1.00  0.00    -0.240 A  
HETATM    8  C   UNL     1      -9.810   9.873  66.853  1.00  0.00    -0.252 A  
HETATM    9  C   UNL     1      -8.422   8.407  65.372  1.00  0.00    -0.176 A  
HETATM   10  N   UNL     1      -8.500   9.312  64.383  1.00  0.00    -0.178 NA 
BRANCH   9  11
HETATM   11  N   UNL     1      -7.694   7.253  65.146  1.00  0.00    -0.105 NA 
HETATM   12  C   UNL     1      -6.472   6.969  65.932  1.00  0.00    -0.051 C  
HETATM   13  N   UNL     1      -6.962   4.449  65.697  1.00  0.00    -0.058 N  
HETATM   14  C   UNL     1      -5.813   4.021  64.814  1.00  0.00    -0.018 C  
HETATM   15  C   UNL     1      -8.054   6.205  64.188  1.00  0.00    -0.081 C  
HETATM   16  C   UNL     1      -6.560   5.595  66.656  1.00  0.00    -0.056 C  
HETATM   17  C   UNL     1      -8.209   4.851  64.901  1.00  0.00    -0.124 C  
BRANCH  13  18
HETATM   18  C   UNL     1      -7.393   3.234  66.533  1.00  0.00    -0.075 C  
BRANCH  18  19
HETATM   19  O   UNL     1      -7.586   3.481  67.892  1.00  0.00    -0.064 OA 
HETATM   20  O   UNL     1      -9.494   1.868  67.381  1.00  0.00    -0.091 OA 
HETATM   21  O   UNL     1      -9.104   2.842  69.817  1.00  0.00    -0.097 OA 
HETATM   22  O   UNL     1      -9.860   4.297  67.995  1.00  0.00    -0.131 OA 
HETATM   23  P   UNL     1      -9.049   2.948  68.330  1.00  0.00    -0.193 P  
ENDBRANCH  18  19
ENDBRANCH  13  18
ENDBRANCH   9  11
BRANCH   8  24
HETATM   24  C   UNL     1     -10.419  10.074  68.224  1.00  0.00    -0.246 A  
HETATM   25  C   UNL     1     -11.645  10.764  68.362  1.00  0.00    -0.311 A  
HETATM   26  C   UNL     1     -12.270  10.987  69.596  1.00  0.00    -0.370 A  
HETATM   27  C   UNL     1      -8.517   8.882  69.543  1.00  0.00    -0.128 C  
HETATM   28  C   UNL     1      -9.845   9.594  69.441  1.00  0.00    -0.203 A  
HETATM   29  C   UNL     1     -11.717  10.471  70.752  1.00  0.00    -0.454 A  
HETATM   30  C   UNL     1     -10.525   9.767  70.673  1.00  0.00    -0.358 A  
ENDBRANCH   8  24
ENDBRANCH   2   5
BRANCH   3  31
HETATM   31  C   UNL     1     -11.169  14.432  66.041  1.00  0.00    -0.333 C  
HETATM   32  C   UNL     1     -12.662  14.082  65.750  1.00  0.00    -0.487 C  
HETATM   33  C   UNL     1     -10.697  15.137  64.745  1.00  0.00    -0.344 C  
BRANCH  31  34
HETATM   34  C   UNL     1     -11.168  15.336  67.298  1.00  0.00    -0.306 A  
HETATM   35  F   UNL     1     -10.423  19.617  67.479  1.00  0.00    -0.466 F  
HETATM   36  C   UNL     1     -11.613  15.676  69.693  1.00  0.00    -0.364 A  
HETATM   37  C   UNL     1     -12.155  15.150  71.003  1.00  0.00    -0.333 C  
HETATM   38  F   UNL     1      -8.512  18.694  67.967  1.00  0.00    -0.273 F  
HETATM   39  C   UNL     1     -11.687  14.894  68.527  1.00  0.00    -0.338 A  
HETATM   40  C   UNL     1     -11.008  16.937  69.629  1.00  0.00    -0.007 A  
HETATM   41  F   UNL     1     -13.120  15.957  71.523  1.00  0.00    -0.492 F  
HETATM   42  F   UNL     1     -11.194  15.041  71.958  1.00  0.00    -0.458 F  
HETATM   43  F   UNL     1     -12.720  13.917  70.895  1.00  0.00    -0.368 F  
HETATM   44  F   UNL     1      -9.803  19.428  69.554  1.00  0.00    -0.407 F  
HETATM   45  C   UNL     1     -10.488  17.421  68.420  1.00  0.00    -0.384 A  
HETATM   46  C   UNL     1     -10.582  16.619  67.264  1.00  0.00    -0.281 A  
HETATM   47  C   UNL     1      -9.812  18.775  68.357  1.00  0.00    -0.382 C  
ENDBRANCH  31  34
ENDBRANCH   3  31
TORSDOF 7
ENDMDL
MODEL       11
REMARK 921   NORMALIZED FREE ENERGY PREDICTED BY IDOCK:   -8.08 KCAL/MOL
REMARK 922        TOTAL FREE ENERGY PREDICTED BY IDOCK:  -12.03 KCAL/MOL
REMARK 923 INTER-LIGAND FREE ENERGY PREDICTED BY IDOCK:   -9.53 KCAL/MOL
REMARK 924 INTRA-LIGAND FREE ENERGY PREDICTED BY IDOCK:   -2.50 KCAL/MOL
REMARK 927      BINDING AFFINITY PREDICTED BY RF-SCORE:    0.00 PKD
ROOT
HETATM    1  C   UNL     1     -11.333   6.239  68.455  1.00  0.00     0.006 C  
HETATM    2  N   UNL     1     -10.114   6.932  68.021  1.00  0.00    -0.158 N  
HETATM    3  C   UNL     1      -8.813   6.424  68.131  1.00  0.00    -0.114 C  
HETATM    4  O   UNL     1      -7.843   7.177  67.966  1.00  0.00    -0.114 OA 
ENDROOT
BRANCH   2   5
HETATM    5  C   UNL     1     -10.271   8.364  67.969  1.00  0.00    -0.212 A  
HETATM    6  C   UNL     1      -9.959  10.610  68.717  1.00  0.00    -0.201 A  
HETATM    7  C   UNL     1     -10.524   8.946  66.722  1.00  0.00    -0.199 A  
HETATM    8  C   UNL     1     -10.029   9.227  69.055  1.00  0.00    -0.187 A  
HETATM    9  C   UNL     1     -10.226  11.131  67.441  1.00  0.00    -0.190 A  
HETATM   10  N   UNL     1     -10.523  10.275  66.449  1.00  0.00    -0.199 NA 
BRANCH   9  11
HETATM   11  N   UNL     1     -10.190  12.482  67.149  1.00  0.00    -0.217 NA 
HETATM   12  C   UNL     1     -11.364  13.152  66.543  1.00  0.00    -0.315 C  
HETATM   13  N   UNL     1     -10.693  15.324  67.759  1.00  0.00    -0.278 N  
HETATM   14  C   UNL     1     -10.302  16.192  66.586  1.00  0.00    -0.296 C  
HETATM   15  C   UNL     1      -9.065  13.375  67.435  1.00  0.00    -0.216 C  
HETATM   16  C   UNL     1     -11.846  14.356  67.402  1.00  0.00    -0.400 C  
HETATM   17  C   UNL     1      -9.513  14.536  68.339  1.00  0.00    -0.209 C  
BRANCH  13  18
HETATM   18  C   UNL     1     -11.157  16.248  68.895  1.00  0.00    -0.345 C  
BRANCH  18  19
HETATM   19  O   UNL     1     -12.451  16.018  69.362  1.00  0.00    -0.050 OA 
HETATM   20  O   UNL     1     -11.059  15.588  71.455  1.00  0.00    -0.359 OA 
HETATM   21  O   UNL     1     -13.704  15.388  71.473  1.00  0.00    -0.472 OA 
HETATM   22  O   UNL     1     -12.336  13.768  70.243  1.00  0.00    -0.332 OA 
HETATM   23  P   UNL     1     -12.377  15.277  70.799  1.00  0.00    -0.452 P  
ENDBRANCH  18  19
ENDBRANCH  13  18
ENDBRANCH   9  11
BRANCH   8  24
HETATM   24  C   UNL     1      -9.796   8.802  70.489  1.00  0.00    -0.224 A  
HETATM   25  C   UNL     1      -8.485   8.530  70.945  1.00  0.00    -0.176 A  
HETATM   26  C   UNL     1      -8.191   8.135  72.255  1.00  0.00    -0.205 A  
HETATM   27  C   UNL     1     -12.302   8.842  71.195  1.00  0.00    -0.258 C  
HETATM   28  C   UNL     1     -10.827   8.660  71.467  1.00  0.00    -0.352 A  
HETATM   29  C   UNL     1      -9.201   8.050  73.193  1.00  0.00    -0.347 A  
HETATM   30  C   UNL     1     -10.504   8.326  72.807  1.00  0.00    -0.329 A  
ENDBRANCH   8  24
ENDBRANCH   2   5
BRANCH   3  31
HETATM   31  C   UNL     1      -8.556   4.909  68.467  1.00  0.00    -0.099 C  
HETATM   32  C   UNL     1      -7.118   4.535  67.987  1.00  0.00    -0.064 C  
HETATM   33  C   UNL     1      -9.475   3.988  67.627  1.00  0.00    -0.231 C  
BRANCH  31  34
HETATM   34  C   UNL     1      -8.594   4.634  69.990  1.00  0.00    -0.101 A  
HETATM   35  F   UNL     1      -5.214   3.966  72.645  1.00  0.00     0.000 F  
HETATM   36  C   UNL     1      -9.827   4.513  72.115  1.00  0.00    -0.237 A  
HETATM   37  C   UNL     1     -11.109   4.720  72.889  1.00  0.00    -0.224 C  
HETATM   38  F   UNL     1      -5.921   1.974  72.124  1.00  0.00    -0.008 F  
HETATM   39  C   UNL     1      -9.759   4.840  70.750  1.00  0.00    -0.267 A  
HETATM   40  C   UNL     1      -8.698   3.969  72.741  1.00  0.00    -0.105 A  
HETATM   41  F   UNL     1     -10.942   5.555  73.951  1.00  0.00    -0.294 F  
HETATM   42  F   UNL     1     -11.608   3.560  73.391  1.00  0.00    -0.310 F  
HETATM   43  F   UNL     1     -12.106   5.267  72.141  1.00  0.00    -0.062 F  
HETATM   44  F   UNL     1      -6.499   2.874  74.016  1.00  0.00    -0.020 F  
HETATM   45  C   UNL     1      -7.513   3.758  72.023  1.00  0.00    -0.057 A  
HETATM   46  C   UNL     1      -7.470   4.102  70.656  1.00  0.00    -0.045 A  
HETATM   47  C   UNL     1      -6.301   3.148  72.696  1.00  0.00    -0.013 C  
ENDBRANCH  31  34
ENDBRANCH   3  31
TORSDOF 7
ENDMDL
MODEL       12
REMARK 921   NORMALIZED FREE ENERGY PREDICTED BY IDOCK:   -8.02 KCAL/MOL
REMARK 922        TOTAL FREE ENERGY PREDICTED BY IDOCK:  -11.95 KCAL/MOL
REMARK 923 INTER-LIGAND FREE ENERGY PREDICTED BY IDOCK:  -10.83 KCAL/MOL
REMARK 924 INTRA-LIGAND FREE ENERGY PREDICTED BY IDOCK:   -1.12 KCAL/MOL
REMARK 927      BINDING AFFINITY PREDICTED BY RF-SCORE:    0.00 PKD
ROOT
HETATM    1  C   UNL     1     -11.995  11.725  65.749  1.00  0.00     0.276 C  
HETATM    2  N   UNL     1     -11.413  12.252  66.988  1.00  0.00    -0.336 N  
HETATM    3  C   UNL     1     -10.664  13.432  67.092  1.00  0.00    -0.264 C  
HETATM    4  O   UNL     1     -10.017  13.661  68.123  1.00  0.00    -0.232 OA 
ENDROOT
BRANCH   2   5
HETATM    5  C   UNL     1     -11.197  11.233  67.984  1.00  0.00    -0.287 A  
HETATM    6  C   UNL     1      -9.931   9.593  69.171  1.00  0.00    -0.189 A  
HETATM    7  C   UNL     1     -12.003  11.259  69.128  1.00  0.00    -0.336 A  
HETATM    8  C   UNL     1     -10.129  10.315  67.959  1.00  0.00    -0.189 A  
HETATM    9  C   UNL     1     -10.781   9.665  70.288  1.00  0.00    -0.281 A  
HETATM   10  N   UNL     1     -11.830  10.502  70.240  1.00  0.00    -0.303 NA 
BRANCH   9  11
HETATM   11  N   UNL     1     -10.588   8.922  71.438  1.00  0.00    -0.275 NA 
HETATM   12  C   UNL     1     -11.741   8.324  72.149  1.00  0.00    -0.365 C  
HETATM   13  N   UNL     1     -10.211   6.395  72.911  1.00  0.00    -0.184 N  
HETATM   14  C   UNL     1     -10.151   6.655  74.398  1.00  0.00    -0.315 C  
HETATM   15  C   UNL     1      -9.285   8.614  72.032  1.00  0.00    -0.268 C  
HETATM   16  C   UNL     1     -11.581   6.785  72.310  1.00  0.00    -0.273 C  
HETATM   17  C   UNL     1      -9.086   7.093  72.137  1.00  0.00    -0.129 C  
BRANCH  13  18
HETATM   18  C   UNL     1      -9.981   4.892  72.686  1.00  0.00    -0.165 C  
BRANCH  18  19
HETATM   19  O   UNL     1      -9.616   4.531  71.389  1.00  0.00    -0.146 OA 
HETATM   20  O   UNL     1     -10.238   2.275  72.401  1.00  0.00    -0.149 OA 
HETATM   21  O   UNL     1      -9.432   2.501  69.884  1.00  0.00    -0.125 OA 
HETATM   22  O   UNL     1      -7.873   2.889  71.736  1.00  0.00    -0.051 OA 
HETATM   23  P   UNL     1      -9.426   2.926  71.315  1.00  0.00    -0.144 P  
ENDBRANCH  18  19
ENDBRANCH  13  18
ENDBRANCH   9  11
BRANCH   8  24
HETATM   24  C   UNL     1      -9.183  10.090  66.799  1.00  0.00    -0.173 A  
HETATM   25  C   UNL     1      -9.531   9.193  65.763  1.00  0.00    -0.322 A  
HETATM   26  C   UNL     1      -8.710   8.935  64.658  1.00  0.00    -0.138 A  
HETATM   27  C   UNL     1      -7.321  11.697  67.651  1.00  0.00    -0.108 C  
HETATM   28  C   UNL     1      -7.923  10.744  66.646  1.00  0.00    -0.139 A  
HETATM   29  C   UNL     1      -7.517   9.616  64.511  1.00  0.00    -0.128 A  
HETATM   30  C   UNL     1      -7.136  10.524  65.487  1.00  0.00    -0.099 A  
ENDBRANCH   8  24
ENDBRANCH   2   5
BRANCH   3  31
HETATM   31  C   UNL     1     -10.626  14.478  65.918  1.00  0.00    -0.315 C  
HETATM   32  C   UNL     1     -12.088  14.937  65.619  1.00  0.00    -0.008 C  
HETATM   33  C   UNL     1     -10.171  13.814  64.594  1.00  0.00    -0.313 C  
BRANCH  31  34
HETATM   34  C   UNL     1      -9.837  15.754  66.299  1.00  0.00    -0.320 A  
HETATM   35  F   UNL     1     -11.454  19.641  67.392  1.00  0.00    -0.437 F  
HETATM   36  C   UNL     1      -7.721  16.877  66.860  1.00  0.00    -0.252 A  
HETATM   37  C   UNL     1      -6.239  16.792  67.144  1.00  0.00    -0.181 C  
HETATM   38  F   UNL     1     -10.977  19.807  65.273  1.00  0.00    -0.581 F  
HETATM   39  C   UNL     1      -8.463  15.713  66.597  1.00  0.00    -0.323 A  
HETATM   40  C   UNL     1      -8.370  18.118  66.830  1.00  0.00    -0.258 A  
HETATM   41  F   UNL     1      -5.916  17.312  68.360  1.00  0.00    -0.139 F  
HETATM   42  F   UNL     1      -5.494  17.468  66.230  1.00  0.00    -0.177 F  
HETATM   43  F   UNL     1      -5.764  15.516  67.148  1.00  0.00    -0.081 F  
HETATM   44  F   UNL     1      -9.605  20.594  66.763  1.00  0.00    -0.509 F  
HETATM   45  C   UNL     1      -9.741  18.203  66.549  1.00  0.00    -0.344 A  
HETATM   46  C   UNL     1     -10.462  17.018  66.295  1.00  0.00    -0.258 A  
HETATM   47  C   UNL     1     -10.436  19.548  66.493  1.00  0.00    -0.493 C  
ENDBRANCH  31  34
ENDBRANCH   3  31
TORSDOF 7
ENDMDL
MODEL       13
REMARK 921   NORMALIZED FREE ENERGY PREDICTED BY IDOCK:   -8.01 KCAL/MOL
REMARK 922        TOTAL FREE ENERGY PREDICTED BY IDOCK:  -11.92 KCAL/MOL
REMARK 923 INTER-LIGAND FREE ENERGY PREDICTED BY IDOCK:  -11.21 KCAL/MOL
REMARK 924 INTRA-LIGAND FREE ENERGY PREDICTED BY IDOCK:   -0.71 KCAL/MOL
REMARK 927      BINDING AFFINITY PREDICTED BY RF-SCORE:    0.00 PKD
ROOT
HETATM    1  C   UNL     1     -11.996  12.020  64.351  1.00  0.00    -0.300 C  
HETATM    2  N   UNL     1     -10.859  12.104  65.275  1.00  0.00    -0.284 N  
HETATM    3  C   UNL     1     -10.403  13.278  65.891  1.00  0.00    -0.292 C  
HETATM    4  O   UNL     1      -9.300  13.288  66.454  1.00  0.00    -0.245 OA 
ENDROOT
BRANCH   2   5
HETATM    5  C   UNL     1      -9.914  11.030  65.102  1.00  0.00    -0.278 A  
HETATM    6  C   UNL     1      -8.877   8.946  65.633  1.00  0.00    -0.230 A  
HETATM    7  C   UNL     1      -9.396  10.819  63.819  1.00  0.00    -0.266 A  
HETATM    8  C   UNL     1      -9.602  10.082  66.096  1.00  0.00    -0.265 A  
HETATM    9  C   UNL     1      -8.382   8.796  64.327  1.00  0.00    -0.151 A  
HETATM   10  N   UNL     1      -8.643   9.760  63.430  1.00  0.00    -0.186 NA 
BRANCH   9  11
HETATM   11  N   UNL     1      -7.646   7.700  63.915  1.00  0.00    -0.111 NA 
HETATM   12  C   UNL     1      -6.375   7.351  64.591  1.00  0.00    -0.037 C  
HETATM   13  N   UNL     1      -6.827   4.870  64.059  1.00  0.00    -0.046 N  
HETATM   14  C   UNL     1      -5.722   4.590  63.067  1.00  0.00    -0.016 C  
HETATM   15  C   UNL     1      -8.039   6.774  62.851  1.00  0.00    -0.038 C  
HETATM   16  C   UNL     1      -6.394   5.894  65.134  1.00  0.00    -0.038 C  
HETATM   17  C   UNL     1      -8.126   5.337  63.390  1.00  0.00    -0.112 C  
BRANCH  13  18
HETATM   18  C   UNL     1      -7.185   3.547  64.753  1.00  0.00    -0.066 C  
BRANCH  18  19
HETATM   19  O   UNL     1      -7.595   3.660  66.081  1.00  0.00    -0.079 OA 
HETATM   20  O   UNL     1      -9.215   1.906  65.184  1.00  0.00    -0.126 OA 
HETATM   21  O   UNL     1      -9.288   2.711  67.710  1.00  0.00    -0.192 OA 
HETATM   22  O   UNL     1      -9.940   4.225  65.895  1.00  0.00    -0.207 OA 
HETATM   23  P   UNL     1      -9.036   2.945  66.258  1.00  0.00    -0.107 P  
ENDBRANCH  18  19
ENDBRANCH  13  18
ENDBRANCH   9  11
BRANCH   8  24
HETATM   24  C   UNL     1     -10.013  10.158  67.551  1.00  0.00    -0.231 A  
HETATM   25  C   UNL     1     -11.327  10.546  67.898  1.00  0.00    -0.297 A  
HETATM   26  C   UNL     1     -11.780  10.637  69.220  1.00  0.00    -0.336 A  
HETATM   27  C   UNL     1      -7.700   9.459  68.522  1.00  0.00    -0.085 C  
HETATM   28  C   UNL     1      -9.156   9.842  68.649  1.00  0.00    -0.130 A  
HETATM   29  C   UNL     1     -10.945  10.281  70.261  1.00  0.00    -0.375 A  
HETATM   30  C   UNL     1      -9.651   9.872  69.977  1.00  0.00    -0.260 A  
ENDBRANCH   8  24
ENDBRANCH   2   5
BRANCH   3  31
HETATM   31  C   UNL     1     -11.268  14.592  65.881  1.00  0.00    -0.331 C  
HETATM   32  C   UNL     1     -12.776  14.190  65.855  1.00  0.00    -0.387 C  
HETATM   33  C   UNL     1     -11.074  15.376  64.559  1.00  0.00    -0.272 C  
BRANCH  31  34
HETATM   34  C   UNL     1     -11.062  15.436  67.162  1.00  0.00    -0.291 A  
HETATM   35  F   UNL     1     -11.708  14.195  71.281  1.00  0.00    -0.361 F  
HETATM   36  C   UNL     1     -10.248  17.470  68.281  1.00  0.00    -0.365 A  
HETATM   37  C   UNL     1      -9.519  18.792  68.207  1.00  0.00    -0.349 C  
HETATM   38  F   UNL     1     -13.533  15.239  70.716  1.00  0.00    -0.443 F  
HETATM   39  C   UNL     1     -10.366  16.657  67.140  1.00  0.00    -0.300 A  
HETATM   40  C   UNL     1     -10.838  17.049  69.480  1.00  0.00    -0.041 A  
HETATM   41  F   UNL     1      -8.473  18.855  69.076  1.00  0.00    -0.349 F  
HETATM   42  F   UNL     1     -10.323  19.848  68.501  1.00  0.00    -0.513 F  
HETATM   43  F   UNL     1      -8.995  19.049  66.977  1.00  0.00    -0.275 F  
HETATM   44  F   UNL     1     -12.002  16.268  71.866  1.00  0.00    -0.468 F  
HETATM   45  C   UNL     1     -11.530  15.832  69.549  1.00  0.00    -0.356 A  
HETATM   46  C   UNL     1     -11.627  15.033  68.391  1.00  0.00    -0.352 A  
HETATM   47  C   UNL     1     -12.188  15.390  70.840  1.00  0.00    -0.373 C  
ENDBRANCH  31  34
ENDBRANCH   3  31
TORSDOF 7
ENDMDL
MODEL       14
REMARK 921   NORMALIZED FREE ENERGY PREDICTED BY IDOCK:   -7.94 KCAL/MOL
REMARK 922        TOTAL FREE ENERGY PREDICTED BY IDOCK:  -11.82 KCAL/MOL
REMARK 923 INTER-LIGAND FREE ENERGY PREDICTED BY IDOCK:   -8.83 KCAL/MOL
REMARK 924 INTRA-LIGAND FREE ENERGY PREDICTED BY IDOCK:   -3.00 KCAL/MOL
REMARK 927      BINDING AFFINITY PREDICTED BY RF-SCORE:    0.00 PKD
ROOT
HETATM    1  C   UNL     1     -11.050   6.047  68.713  1.00  0.00    -0.254 C  
HETATM    2  N   UNL     1      -9.912   6.899  68.348  1.00  0.00    -0.143 N  
HETATM    3  C   UNL     1      -8.562   6.557  68.505  1.00  0.00    -0.123 C  
HETATM    4  O   UNL     1      -7.690   7.429  68.398  1.00  0.00    -0.115 OA 
ENDROOT
BRANCH   2   5
HETATM    5  C   UNL     1     -10.247   8.300  68.318  1.00  0.00    -0.208 A  
HETATM    6  C   UNL     1     -10.266  10.545  69.130  1.00  0.00    -0.241 A  
HETATM    7  C   UNL     1     -10.505   8.880  67.071  1.00  0.00    -0.256 A  
HETATM    8  C   UNL     1     -10.177   9.156  69.434  1.00  0.00    -0.212 A  
HETATM    9  C   UNL     1     -10.528  11.065  67.852  1.00  0.00    -0.192 A  
HETATM   10  N   UNL     1     -10.659  10.206  66.827  1.00  0.00    -0.202 NA 
BRANCH   9  11
HETATM   11  N   UNL     1     -10.649  12.417  67.592  1.00  0.00    -0.213 NA 
HETATM   12  C   UNL     1     -10.549  13.406  68.690  1.00  0.00    -0.241 C  
HETATM   13  N   UNL     1      -9.562  15.098  67.014  1.00  0.00    -0.221 N  
HETATM   14  C   UNL     1     -10.676  16.117  66.956  1.00  0.00    -0.254 C  
HETATM   15  C   UNL     1     -10.832  13.006  66.264  1.00  0.00    -0.278 C  
HETATM   16  C   UNL     1      -9.436  14.457  68.417  1.00  0.00    -0.207 C  
HETATM   17  C   UNL     1      -9.701  14.000  65.952  1.00  0.00    -0.225 C  
BRANCH  13  18
HETATM   18  C   UNL     1      -8.246  15.817  66.679  1.00  0.00    -0.270 C  
BRANCH  18  19
HETATM   19  O   UNL     1      -8.380  16.998  65.949  1.00  0.00    -0.515 OA 
HETATM   20  O   UNL     1      -5.880  16.977  66.449  1.00  0.00    -0.286 OA 
HETATM   21  O   UNL     1      -7.004  18.922  65.040  1.00  0.00    -0.455 OA 
HETATM   22  O   UNL     1      -7.475  18.679  67.434  1.00  0.00    -0.218 OA 
HETATM   23  P   UNL     1      -7.033  17.881  66.109  1.00  0.00    -0.292 P  
ENDBRANCH  18  19
ENDBRANCH  13  18
ENDBRANCH   9  11
BRANCH   8  24
HETATM   24  C   UNL     1      -9.968   8.722  70.869  1.00  0.00    -0.279 A  
HETATM   25  C   UNL     1      -8.686   8.807  71.458  1.00  0.00    -0.274 A  
HETATM   26  C   UNL     1      -8.416   8.428  72.779  1.00  0.00    -0.224 A  
HETATM   27  C   UNL     1     -12.434   8.000  71.295  1.00  0.00    -0.270 C  
HETATM   28  C   UNL     1     -11.003   8.229  71.722  1.00  0.00    -0.342 A  
HETATM   29  C   UNL     1      -9.444   7.998  73.595  1.00  0.00    -0.149 A  
HETATM   30  C   UNL     1     -10.727   7.915  73.077  1.00  0.00    -0.408 A  
ENDBRANCH   8  24
ENDBRANCH   2   5
BRANCH   3  31
HETATM   31  C   UNL     1      -8.128   5.078  68.822  1.00  0.00    -0.084 C  
HETATM   32  C   UNL     1      -6.632   4.904  68.412  1.00  0.00    -0.049 C  
HETATM   33  C   UNL     1      -8.878   4.071  67.914  1.00  0.00    -0.132 C  
BRANCH  31  34
HETATM   34  C   UNL     1      -8.208   4.758  70.334  1.00  0.00    -0.083 A  
HETATM   35  F   UNL     1     -10.885   1.957  72.310  1.00  0.00    -0.220 F  
HETATM   36  C   UNL     1      -7.309   4.952  72.616  1.00  0.00    -0.089 A  
HETATM   37  C   UNL     1      -6.222   5.433  73.549  1.00  0.00    -0.056 C  
HETATM   38  F   UNL     1     -11.846   3.899  72.526  1.00  0.00     0.358 F  
HETATM   39  C   UNL     1      -7.204   5.164  71.231  1.00  0.00    -0.069 A  
HETATM   40  C   UNL     1      -8.448   4.312  73.121  1.00  0.00    -0.090 A  
HETATM   41  F   UNL     1      -5.679   4.419  74.277  1.00  0.00    -0.013 F  
HETATM   42  F   UNL     1      -6.673   6.348  74.448  1.00  0.00    -0.078 F  
HETATM   43  F   UNL     1      -5.180   6.024  72.901  1.00  0.00    -0.023 F  
HETATM   44  F   UNL     1     -10.689   3.069  74.167  1.00  0.00    -0.203 F  
HETATM   45  C   UNL     1      -9.468   3.880  72.261  1.00  0.00    -0.185 A  
HETATM   46  C   UNL     1      -9.332   4.099  70.875  1.00  0.00    -0.217 A  
HETATM   47  C   UNL     1     -10.709   3.210  72.812  1.00  0.00    -0.025 C  
ENDBRANCH  31  34
ENDBRANCH   3  31
TORSDOF 7
ENDMDL
MODEL       15
REMARK 921   NORMALIZED FREE ENERGY PREDICTED BY IDOCK:   -7.80 KCAL/MOL
REMARK 922        TOTAL FREE ENERGY PREDICTED BY IDOCK:  -11.63 KCAL/MOL
REMARK 923 INTER-LIGAND FREE ENERGY PREDICTED BY IDOCK:  -10.11 KCAL/MOL
REMARK 924 INTRA-LIGAND FREE ENERGY PREDICTED BY IDOCK:   -1.52 KCAL/MOL
REMARK 927      BINDING AFFINITY PREDICTED BY RF-SCORE:    0.00 PKD
ROOT
HETATM    1  C   UNL     1      -7.770   7.616  68.140  1.00  0.00    -0.119 C  
HETATM    2  N   UNL     1      -9.229   7.475  68.061  1.00  0.00    -0.137 N  
HETATM    3  C   UNL     1      -9.920   6.261  67.954  1.00  0.00    -0.133 C  
HETATM    4  O   UNL     1     -11.120   6.261  67.650  1.00  0.00    -0.341 OA 
ENDROOT
BRANCH   2   5
HETATM    5  C   UNL     1      -9.881   8.661  67.566  1.00  0.00    -0.180 A  
HETATM    6  C   UNL     1     -10.941  10.792  67.751  1.00  0.00    -0.354 A  
HETATM    7  C   UNL     1      -9.619   9.045  66.246  1.00  0.00    -0.260 A  
HETATM    8  C   UNL     1     -10.632   9.544  68.366  1.00  0.00    -0.261 A  
HETATM    9  C   UNL     1     -10.650  11.116  66.416  1.00  0.00    -0.261 A  
HETATM   10  N   UNL     1      -9.994  10.214  65.668  1.00  0.00    -0.275 NA 
BRANCH   9  11
HETATM   11  N   UNL     1     -10.997  12.321  65.833  1.00  0.00    -0.290 NA 
HETATM   12  C   UNL     1     -12.267  12.992  66.193  1.00  0.00    -0.360 C  
HETATM   13  N   UNL     1     -11.136  15.266  65.751  1.00  0.00    -0.328 N  
HETATM   14  C   UNL     1     -11.896  15.724  64.529  1.00  0.00    -0.126 C  
HETATM   15  C   UNL     1     -10.172  13.061  64.877  1.00  0.00    -0.284 C  
HETATM   16  C   UNL     1     -12.025  14.439  66.710  1.00  0.00    -0.399 C  
HETATM   17  C   UNL     1      -9.869  14.474  65.405  1.00  0.00    -0.239 C  
BRANCH  13  18
HETATM   18  C   UNL     1     -10.638  16.516  66.493  1.00  0.00    -0.217 C  
BRANCH  18  19
HETATM   19  O   UNL     1      -9.648  17.246  65.836  1.00  0.00    -0.500 OA 
HETATM   20  O   UNL     1     -10.037  18.659  67.923  1.00  0.00    -0.334 OA 
HETATM   21  O   UNL     1      -8.243  19.339  66.092  1.00  0.00    -0.314 OA 
HETATM   22  O   UNL     1     -10.641  19.439  65.592  1.00  0.00    -0.470 OA 
HETATM   23  P   UNL     1      -9.533  18.715  66.506  1.00  0.00    -0.290 P  
ENDBRANCH  18  19
ENDBRANCH  13  18
ENDBRANCH   9  11
BRANCH   8  24
HETATM   24  C   UNL     1     -11.071   9.291  69.792  1.00  0.00    -0.168 A  
HETATM   25  C   UNL     1     -12.447   9.211  70.108  1.00  0.00     0.663 A  
HETATM   26  C   UNL     1     -12.929   8.976  71.402  1.00  0.00    -0.343 A  
HETATM   27  C   UNL     1      -8.673   9.201  70.801  1.00  0.00    -0.285 C  
HETATM   28  C   UNL     1     -10.178   9.102  70.890  1.00  0.00    -0.351 A  
HETATM   29  C   UNL     1     -12.042   8.751  72.437  1.00  0.00    -0.379 A  
HETATM   30  C   UNL     1     -10.681   8.798  72.180  1.00  0.00    -0.383 A  
ENDBRANCH   8  24
ENDBRANCH   2   5
BRANCH   3  31
HETATM   31  C   UNL     1      -9.196   4.887  68.210  1.00  0.00    -0.154 C  
HETATM   32  C   UNL     1      -7.770   4.955  67.578  1.00  0.00    -0.091 C  
HETATM   33  C   UNL     1      -9.889   3.739  67.434  1.00  0.00    -0.026 C  
BRANCH  31  34
HETATM   34  C   UNL     1      -8.993   4.608  69.719  1.00  0.00    -0.140 A  
HETATM   35  F   UNL     1      -5.303   3.483  71.730  1.00  0.00    -0.003 F  
HETATM   36  C   UNL     1      -9.825   4.632  72.034  1.00  0.00    -0.239 A  
HETATM   37  C   UNL     1     -10.907   4.998  73.024  1.00  0.00    -0.273 C  
HETATM   38  F   UNL     1      -6.346   1.604  71.377  1.00  0.00    -0.016 F  
HETATM   39  C   UNL     1      -9.964   4.958  70.674  1.00  0.00    -0.305 A  
HETATM   40  C   UNL     1      -8.682   3.940  72.454  1.00  0.00    -0.116 A  
HETATM   41  F   UNL     1     -10.443   5.796  74.025  1.00  0.00    -0.220 F  
HETATM   42  F   UNL     1     -11.453   3.909  73.626  1.00  0.00    -0.323 F  
HETATM   43  F   UNL     1     -11.944   5.677  72.460  1.00  0.00    -0.352 F  
HETATM   44  F   UNL     1      -6.449   2.557  73.328  1.00  0.00    -0.014 F  
HETATM   45  C   UNL     1      -7.684   3.582  71.537  1.00  0.00    -0.056 A  
HETATM   46  C   UNL     1      -7.846   3.928  70.180  1.00  0.00    -0.048 A  
HETATM   47  C   UNL     1      -6.460   2.813  71.989  1.00  0.00    -0.015 C  
ENDBRANCH  31  34
ENDBRANCH   3  31
TORSDOF 7
ENDMDL
MODEL       16
REMARK 921   NORMALIZED FREE ENERGY PREDICTED BY IDOCK:   -7.75 KCAL/MOL
REMARK 922        TOTAL FREE ENERGY PREDICTED BY IDOCK:  -11.56 KCAL/MOL
REMARK 923 INTER-LIGAND FREE ENERGY PREDICTED BY IDOCK:   -8.88 KCAL/MOL
REMARK 924 INTRA-LIGAND FREE ENERGY PREDICTED BY IDOCK:   -2.68 KCAL/MOL
REMARK 927      BINDING AFFINITY PREDICTED BY RF-SCORE:    0.00 PKD
ROOT
HETATM    1  C   UNL     1     -11.285   6.089  68.598  1.00  0.00    -0.083 C  
HETATM    2  N   UNL     1     -10.108   6.897  68.259  1.00  0.00    -0.160 N  
HETATM    3  C   UNL     1      -8.776   6.501  68.437  1.00  0.00    -0.121 C  
HETATM    4  O   UNL     1      -7.868   7.338  68.351  1.00  0.00    -0.117 OA 
ENDROOT
BRANCH   2   5
HETATM    5  C   UNL     1     -10.387   8.311  68.234  1.00  0.00    -0.198 A  
HETATM    6  C   UNL     1     -10.285  10.558  69.035  1.00  0.00    -0.233 A  
HETATM    7  C   UNL     1     -10.664   8.897  66.993  1.00  0.00    -0.110 A  
HETATM    8  C   UNL     1     -10.242   9.167  69.342  1.00  0.00    -0.212 A  
HETATM    9  C   UNL     1     -10.570  11.083  67.764  1.00  0.00    -0.211 A  
HETATM   10  N   UNL     1     -10.773  10.228  66.749  1.00  0.00    -0.188 NA 
BRANCH   9  11
HETATM   11  N   UNL     1     -10.645  12.439  67.502  1.00  0.00    -0.216 NA 
HETATM   12  C   UNL     1     -11.297  13.356  68.465  1.00  0.00    -0.289 C  
HETATM   13  N   UNL     1      -9.686  15.221  67.709  1.00  0.00    -0.214 N  
HETATM   14  C   UNL     1     -10.649  16.162  67.024  1.00  0.00    -0.292 C  
HETATM   15  C   UNL     1     -10.077  13.101  66.326  1.00  0.00    -0.285 C  
HETATM   16  C   UNL     1     -10.339  14.497  68.910  1.00  0.00    -0.237 C  
HETATM   17  C   UNL     1      -9.076  14.189  66.751  1.00  0.00    -0.247 C  
BRANCH  13  18
HETATM   18  C   UNL     1      -8.496  16.049  68.218  1.00  0.00    -0.177 C  
BRANCH  18  19
HETATM   19  O   UNL     1      -8.820  17.302  68.738  1.00  0.00    -0.276 OA 
HETATM   20  O   UNL     1      -7.261  17.924  66.818  1.00  0.00    -0.182 OA 
HETATM   21  O   UNL     1      -8.381  19.769  68.360  1.00  0.00    -0.319 OA 
HETATM   22  O   UNL     1      -6.662  18.267  69.254  1.00  0.00    -0.262 OA 
HETATM   23  P   UNL     1      -7.808  18.410  68.134  1.00  0.00    -0.305 P  
ENDBRANCH  18  19
ENDBRANCH  13  18
ENDBRANCH   9  11
BRANCH   8  24
HETATM   24  C   UNL     1     -10.000   8.731  70.771  1.00  0.00    -0.263 A  
HETATM   25  C   UNL     1      -8.683   8.650  71.276  1.00  0.00    -0.246 A  
HETATM   26  C   UNL     1      -8.381   8.257  72.586  1.00  0.00    -0.235 A  
HETATM   27  C   UNL     1     -12.507   8.355  71.367  1.00  0.00    -0.313 C  
HETATM   28  C   UNL     1     -11.034   8.394  71.698  1.00  0.00    -0.345 A  
HETATM   29  C   UNL     1      -9.402   7.982  73.475  1.00  0.00    -0.285 A  
HETATM   30  C   UNL     1     -10.715   8.066  73.040  1.00  0.00    -0.325 A  
ENDBRANCH   8  24
ENDBRANCH   2   5
BRANCH   3  31
HETATM   31  C   UNL     1      -8.407   5.003  68.749  1.00  0.00    -0.084 C  
HETATM   32  C   UNL     1      -6.922   4.764  68.333  1.00  0.00    -0.056 C  
HETATM   33  C   UNL     1      -9.204   4.032  67.843  1.00  0.00    -0.200 C  
BRANCH  31  34
HETATM   34  C   UNL     1      -8.494   4.685  70.262  1.00  0.00    -0.090 A  
HETATM   35  F   UNL     1      -5.198   4.185  73.056  1.00  0.00     0.000 F  
HETATM   36  C   UNL     1      -9.810   4.418  72.323  1.00  0.00    -0.231 A  
HETATM   37  C   UNL     1     -11.137   4.512  73.041  1.00  0.00    -0.213 C  
HETATM   38  F   UNL     1      -5.736   2.162  72.454  1.00  0.00    -0.006 F  
HETATM   39  C   UNL     1      -9.704   4.787  70.971  1.00  0.00    -0.257 A  
HETATM   40  C   UNL     1      -8.674   3.938  72.988  1.00  0.00    -0.100 A  
HETATM   41  F   UNL     1     -11.078   5.327  74.130  1.00  0.00    -0.296 F  
HETATM   42  F   UNL     1     -11.573   3.306  73.491  1.00  0.00    -0.317 F  
HETATM   43  F   UNL     1     -12.136   5.007  72.260  1.00  0.00     0.045 F  
HETATM   44  F   UNL     1      -6.461   2.967  74.338  1.00  0.00    -0.020 F  
HETATM   45  C   UNL     1      -7.445   3.832  72.322  1.00  0.00    -0.061 A  
HETATM   46  C   UNL     1      -7.366   4.216  70.967  1.00  0.00    -0.044 A  
HETATM   47  C   UNL     1      -6.224   3.290  73.035  1.00  0.00    -0.009 C  
ENDBRANCH  31  34
ENDBRANCH   3  31
TORSDOF 7
ENDMDL
MODEL       17
REMARK 921   NORMALIZED FREE ENERGY PREDICTED BY IDOCK:   -7.73 KCAL/MOL
REMARK 922        TOTAL FREE ENERGY PREDICTED BY IDOCK:  -11.54 KCAL/MOL
REMARK 923 INTER-LIGAND FREE ENERGY PREDICTED BY IDOCK:  -11.90 KCAL/MOL
REMARK 924 INTRA-LIGAND FREE ENERGY PREDICTED BY IDOCK:    0.36 KCAL/MOL
REMARK 927      BINDING AFFINITY PREDICTED BY RF-SCORE:    0.00 PKD
ROOT
HETATM    1  C   UNL     1     -12.229  12.361  66.540  1.00  0.00     0.110 C  
HETATM    2  N   UNL     1     -11.201  12.759  67.509  1.00  0.00    -0.273 N  
HETATM    3  C   UNL     1     -10.171  13.677  67.264  1.00  0.00    -0.246 C  
HETATM    4  O   UNL     1      -9.220  13.760  68.054  1.00  0.00    -0.182 OA 
ENDROOT
BRANCH   2   5
HETATM    5  C   UNL     1     -10.986  11.771  68.536  1.00  0.00    -0.227 A  
HETATM    6  C   UNL     1     -11.446  10.636  70.585  1.00  0.00    -0.374 A  
HETATM    7  C   UNL     1     -10.321  10.593  68.177  1.00  0.00    -0.176 A  
HETATM    8  C   UNL     1     -11.537  11.841  69.830  1.00  0.00    -0.372 A  
HETATM    9  C   UNL     1     -10.760   9.484  70.166  1.00  0.00    -0.257 A  
HETATM   10  N   UNL     1     -10.187   9.487  68.952  1.00  0.00    -0.192 NA 
BRANCH   9  11
HETATM   11  N   UNL     1     -10.652   8.341  70.937  1.00  0.00    -0.203 NA 
HETATM   12  C   UNL     1     -11.724   7.319  70.921  1.00  0.00    -0.315 C  
HETATM   13  N   UNL     1      -9.943   5.511  71.370  1.00  0.00    -0.179 N  
HETATM   14  C   UNL     1     -10.329   5.078  72.765  1.00  0.00    -0.195 C  
HETATM   15  C   UNL     1      -9.505   7.999  71.780  1.00  0.00    -0.169 C  
HETATM   16  C   UNL     1     -11.176   5.918  70.529  1.00  0.00    -0.223 C  
HETATM   17  C   UNL     1      -8.910   6.645  71.360  1.00  0.00    -0.139 C  
BRANCH  13  18
HETATM   18  C   UNL     1      -9.246   4.326  70.684  1.00  0.00    -0.124 C  
BRANCH  18  19
HETATM   19  O   UNL     1      -9.867   3.854  69.528  1.00  0.00    -0.177 OA 
HETATM   20  O   UNL     1      -7.433   3.220  69.106  1.00  0.00    -0.048 OA 
HETATM   21  O   UNL     1      -9.347   2.649  67.360  1.00  0.00    -0.176 OA 
HETATM   22  O   UNL     1      -8.662   4.971  67.751  1.00  0.00    -0.104 OA 
HETATM   23  P   UNL     1      -8.740   3.509  68.419  1.00  0.00    -0.128 P  
ENDBRANCH  18  19
ENDBRANCH  13  18
ENDBRANCH   9  11
BRANCH   8  24
HETATM   24  C   UNL     1     -12.239  13.040  70.429  1.00  0.00    -0.386 A  
HETATM   25  C   UNL     1     -11.973  14.338  69.936  1.00  0.00    -0.397 A  
HETATM   26  C   UNL     1     -12.584  15.494  70.437  1.00  0.00    -0.421 A  
HETATM   27  C   UNL     1     -13.598  11.702  72.202  1.00  0.00    -0.124 C  
HETATM   28  C   UNL     1     -13.199  12.970  71.484  1.00  0.00    -0.360 A  
HETATM   29  C   UNL     1     -13.544  15.393  71.426  1.00  0.00    -0.604 A  
HETATM   30  C   UNL     1     -13.860  14.142  71.933  1.00  0.00    -0.539 A  
ENDBRANCH   8  24
ENDBRANCH   2   5
BRANCH   3  31
HETATM   31  C   UNL     1     -10.195  14.609  65.997  1.00  0.00    -0.326 C  
HETATM   32  C   UNL     1     -11.682  14.928  65.648  1.00  0.00    -0.194 C  
HETATM   33  C   UNL     1      -9.675  13.860  64.744  1.00  0.00     0.314 C  
BRANCH  31  34
HETATM   34  C   UNL     1      -9.505  15.969  66.260  1.00  0.00    -0.347 A  
HETATM   35  F   UNL     1     -11.409  19.752  67.255  1.00  0.00    -0.489 F  
HETATM   36  C   UNL     1      -7.474  17.307  66.626  1.00  0.00    -0.287 A  
HETATM   37  C   UNL     1      -5.975  17.372  66.818  1.00  0.00    -0.186 C  
HETATM   38  F   UNL     1     -11.076  19.839  65.105  1.00  0.00    -0.529 F  
HETATM   39  C   UNL     1      -8.119  16.069  66.471  1.00  0.00    -0.304 A  
HETATM   40  C   UNL     1      -8.235  18.482  66.575  1.00  0.00    -0.299 A  
HETATM   41  F   UNL     1      -5.630  17.987  67.982  1.00  0.00    -0.145 F  
HETATM   42  F   UNL     1      -5.352  18.059  65.825  1.00  0.00    -0.173 F  
HETATM   43  F   UNL     1      -5.385  16.146  66.857  1.00  0.00    -0.096 F  
HETATM   44  F   UNL     1      -9.696  20.830  66.461  1.00  0.00    -0.464 F  
HETATM   45  C   UNL     1      -9.622  18.428  66.379  1.00  0.00    -0.312 A  
HETATM   46  C   UNL     1     -10.244  17.171  66.233  1.00  0.00    -0.340 A  
HETATM   47  C   UNL     1     -10.441  19.700  66.299  1.00  0.00    -0.519 C  
ENDBRANCH  31  34
ENDBRANCH   3  31
TORSDOF 7
ENDMDL
MODEL       18
REMARK 921   NORMALIZED FREE ENERGY PREDICTED BY IDOCK:   -7.71 KCAL/MOL
REMARK 922        TOTAL FREE ENERGY PREDICTED BY IDOCK:  -11.50 KCAL/MOL
REMARK 923 INTER-LIGAND FREE ENERGY PREDICTED BY IDOCK:  -10.55 KCAL/MOL
REMARK 924 INTRA-LIGAND FREE ENERGY PREDICTED BY IDOCK:   -0.95 KCAL/MOL
REMARK 927      BINDING AFFINITY PREDICTED BY RF-SCORE:    0.00 PKD
ROOT
HETATM    1  C   UNL     1     -12.021  12.373  66.420  1.00  0.00    -0.274 C  
HETATM    2  N   UNL     1     -11.327  12.719  67.666  1.00  0.00    -0.290 N  
HETATM    3  C   UNL     1     -10.475  13.818  67.839  1.00  0.00    -0.246 C  
HETATM    4  O   UNL     1      -9.754  13.885  68.843  1.00  0.00    -0.140 OA 
ENDROOT
BRANCH   2   5
HETATM    5  C   UNL     1     -11.145  11.588  68.539  1.00  0.00    -0.236 A  
HETATM    6  C   UNL     1      -9.947   9.762  69.504  1.00  0.00    -0.230 A  
HETATM    7  C   UNL     1     -11.919  11.534  69.704  1.00  0.00    -0.339 A  
HETATM    8  C   UNL     1     -10.133  10.621  68.383  1.00  0.00    -0.181 A  
HETATM    9  C   UNL     1     -10.762   9.758  70.648  1.00  0.00    -0.326 A  
HETATM   10  N   UNL     1     -11.762  10.651  70.723  1.00  0.00    -0.341 NA 
BRANCH   9  11
HETATM   11  N   UNL     1     -10.583   8.885  71.705  1.00  0.00    -0.341 NA 
HETATM   12  C   UNL     1     -11.730   8.128  72.257  1.00  0.00    -0.379 C  
HETATM   13  N   UNL     1     -10.113   6.216  72.869  1.00  0.00    -0.178 N  
HETATM   14  C   UNL     1     -10.158   6.284  74.378  1.00  0.00    -0.340 C  
HETATM   15  C   UNL     1      -9.299   8.585  72.341  1.00  0.00    -0.278 C  
HETATM   16  C   UNL     1     -11.471   6.594  72.232  1.00  0.00    -0.283 C  
HETATM   17  C   UNL     1      -8.998   7.079  72.266  1.00  0.00    -0.133 C  
BRANCH  13  18
HETATM   18  C   UNL     1      -9.765   4.774  72.472  1.00  0.00    -0.148 C  
BRANCH  18  19
HETATM   19  O   UNL     1     -10.234   4.368  71.223  1.00  0.00    -0.161 OA 
HETATM   20  O   UNL     1      -8.320   2.730  71.615  1.00  0.00    -0.062 OA 
HETATM   21  O   UNL     1      -9.806   2.639  69.421  1.00  0.00     0.075 OA 
HETATM   22  O   UNL     1      -8.271   4.509  69.815  1.00  0.00    -0.063 OA 
HETATM   23  P   UNL     1      -9.153   3.376  70.541  1.00  0.00    -0.154 P  
ENDBRANCH  18  19
ENDBRANCH  13  18
ENDBRANCH   9  11
BRANCH   8  24
HETATM   24  C   UNL     1      -9.231  10.472  67.176  1.00  0.00    -0.158 A  
HETATM   25  C   UNL     1      -9.697   9.806  66.019  1.00  0.00    -0.319 A  
HETATM   26  C   UNL     1      -8.924   9.632  64.865  1.00  0.00    -0.260 A  
HETATM   27  C   UNL     1      -7.173  11.674  68.225  1.00  0.00    -0.085 C  
HETATM   28  C   UNL     1      -7.899  10.980  67.096  1.00  0.00    -0.135 A  
HETATM   29  C   UNL     1      -7.655  10.174  64.798  1.00  0.00    -0.139 A  
HETATM   30  C   UNL     1      -7.154  10.856  65.896  1.00  0.00    -0.029 A  
ENDBRANCH   8  24
ENDBRANCH   2   5
BRANCH   3  31
HETATM   31  C   UNL     1     -10.412  14.975  66.774  1.00  0.00    -0.283 C  
HETATM   32  C   UNL     1     -11.869  15.440  66.464  1.00  0.00     0.306 C  
HETATM   33  C   UNL     1      -9.895  14.451  65.411  1.00  0.00    -0.265 C  
BRANCH  31  34
HETATM   34  C   UNL     1      -9.660  16.218  67.308  1.00  0.00    -0.231 A  
HETATM   35  F   UNL     1      -5.406  16.581  68.145  1.00  0.00    -0.095 F  
HETATM   36  C   UNL     1      -9.612  18.607  67.892  1.00  0.00    -0.340 A  
HETATM   37  C   UNL     1     -10.302  19.952  67.927  1.00  0.00    -0.406 C  
HETATM   38  F   UNL     1      -6.320  16.131  70.069  1.00  0.00    -0.195 F  
HETATM   39  C   UNL     1     -10.256  17.491  67.331  1.00  0.00    -0.337 A  
HETATM   40  C   UNL     1      -8.334  18.450  68.442  1.00  0.00    -0.328 A  
HETATM   41  F   UNL     1      -9.591  20.913  67.276  1.00  0.00    -0.576 F  
HETATM   42  F   UNL     1     -10.491  20.409  69.192  1.00  0.00    -0.481 F  
HETATM   43  F   UNL     1     -11.532  19.940  67.343  1.00  0.00    -0.348 F  
HETATM   44  F   UNL     1      -5.815  18.182  69.557  1.00  0.00    -0.194 F  
HETATM   45  C   UNL     1      -7.697  17.200  68.429  1.00  0.00    -0.237 A  
HETATM   46  C   UNL     1      -8.364  16.099  67.853  1.00  0.00    -0.165 A  
HETATM   47  C   UNL     1      -6.325  17.026  69.045  1.00  0.00    -0.198 C  
ENDBRANCH  31  34
ENDBRANCH   3  31
TORSDOF 7
ENDMDL
MODEL       19
REMARK 921   NORMALIZED FREE ENERGY PREDICTED BY IDOCK:   -7.68 KCAL/MOL
REMARK 922        TOTAL FREE ENERGY PREDICTED BY IDOCK:  -11.47 KCAL/MOL
REMARK 923 INTER-LIGAND FREE ENERGY PREDICTED BY IDOCK:  -10.21 KCAL/MOL
REMARK 924 INTRA-LIGAND FREE ENERGY PREDICTED BY IDOCK:   -1.25 KCAL/MOL
REMARK 927      BINDING AFFINITY PREDICTED BY RF-SCORE:    0.00 PKD
ROOT
HETATM    1  C   UNL     1      -7.682   8.751  68.504  1.00  0.00    -0.099 C  
HETATM    2  N   UNL     1      -9.023   9.233  68.155  1.00  0.00    -0.129 N  
HETATM    3  C   UNL     1     -10.071   8.434  67.678  1.00  0.00    -0.209 C  
HETATM    4  O   UNL     1     -11.075   8.966  67.185  1.00  0.00     0.033 OA 
ENDROOT
BRANCH   2   5
HETATM    5  C   UNL     1      -9.045  10.634  67.820  1.00  0.00    -0.143 A  
HETATM    6  C   UNL     1      -9.083  12.514  66.349  1.00  0.00    -0.129 A  
HETATM    7  C   UNL     1      -9.578  11.520  68.764  1.00  0.00    -0.102 A  
HETATM    8  C   UNL     1      -8.718  11.152  66.552  1.00  0.00    -0.174 A  
HETATM    9  C   UNL     1      -9.615  13.352  67.342  1.00  0.00    -0.223 A  
HETATM   10  N   UNL     1      -9.845  12.834  68.560  1.00  0.00    -0.187 NA 
BRANCH   9  11
HETATM   11  N   UNL     1      -9.923  14.683  67.129  1.00  0.00    -0.238 NA 
HETATM   12  C   UNL     1     -10.493  15.507  68.219  1.00  0.00    -0.242 C  
HETATM   13  N   UNL     1      -9.328  17.571  67.206  1.00  0.00    -0.241 N  
HETATM   14  C   UNL     1     -10.525  18.368  66.741  1.00  0.00    -0.385 C  
HETATM   15  C   UNL     1      -9.690  15.411  65.880  1.00  0.00    -0.357 C  
HETATM   16  C   UNL     1      -9.631  16.772  68.495  1.00  0.00    -0.245 C  
HETATM   17  C   UNL     1      -8.783  16.629  66.126  1.00  0.00    -0.287 C  
BRANCH  13  18
HETATM   18  C   UNL     1      -8.186  18.558  67.492  1.00  0.00    -0.252 C  
BRANCH  18  19
HETATM   19  O   UNL     1      -8.157  19.080  68.785  1.00  0.00    -0.350 OA 
HETATM   20  O   UNL     1      -5.810  19.626  67.952  1.00  0.00    -0.200 OA 
HETATM   21  O   UNL     1      -6.622  20.311  70.382  1.00  0.00    -0.362 OA 
HETATM   22  O   UNL     1      -6.270  17.956  69.799  1.00  0.00    -0.243 OA 
HETATM   23  P   UNL     1      -6.626  19.405  69.196  1.00  0.00    -0.338 P  
ENDBRANCH  18  19
ENDBRANCH  13  18
ENDBRANCH   9  11
BRANCH   8  24
HETATM   24  C   UNL     1      -8.080  10.378  65.419  1.00  0.00    -0.152 A  
HETATM   25  C   UNL     1      -8.886   9.650  64.514  1.00  0.00    -0.257 A  
HETATM   26  C   UNL     1      -8.369   8.913  63.441  1.00  0.00    -0.177 A  
HETATM   27  C   UNL     1      -5.622  10.982  66.028  1.00  0.00    -0.143 C  
HETATM   28  C   UNL     1      -6.675  10.330  65.164  1.00  0.00    -0.120 A  
HETATM   29  C   UNL     1      -7.010   8.922  63.190  1.00  0.00    -0.089 A  
HETATM   30  C   UNL     1      -6.174   9.636  64.034  1.00  0.00    -0.108 A  
ENDBRANCH   8  24
ENDBRANCH   2   5
BRANCH   3  31
HETATM   31  C   UNL     1      -9.998   6.864  67.754  1.00  0.00    -0.180 C  
HETATM   32  C   UNL     1      -8.588   6.412  67.259  1.00  0.00    -0.110 C  
HETATM   33  C   UNL     1     -10.971   6.211  66.741  1.00  0.00    -0.322 C  
BRANCH  31  34
HETATM   34  C   UNL     1     -10.140   6.344  69.205  1.00  0.00    -0.203 A  
HETATM   35  F   UNL     1     -12.202   8.267  72.517  1.00  0.00    -0.379 F  
HETATM   36  C   UNL     1      -9.871   4.560  70.878  1.00  0.00    -0.269 A  
HETATM   37  C   UNL     1      -9.496   3.134  71.211  1.00  0.00    -0.149 C  
HETATM   38  F   UNL     1     -10.109   8.812  72.767  1.00  0.00    -0.319 F  
HETATM   39  C   UNL     1      -9.827   5.017  69.550  1.00  0.00    -0.281 A  
HETATM   40  C   UNL     1     -10.244   5.452  71.892  1.00  0.00    -0.258 A  
HETATM   41  F   UNL     1     -10.510   2.463  71.823  1.00  0.00    -0.193 F  
HETATM   42  F   UNL     1      -8.428   3.058  72.048  1.00  0.00    -0.065 F  
HETATM   43  F   UNL     1      -9.170   2.395  70.115  1.00  0.00    -0.142 F  
HETATM   44  F   UNL     1     -10.956   7.184  73.930  1.00  0.00    -0.358 F  
HETATM   45  C   UNL     1     -10.576   6.781  71.591  1.00  0.00    -0.239 A  
HETATM   46  C   UNL     1     -10.529   7.210  70.248  1.00  0.00    -0.232 A  
HETATM   47  C   UNL     1     -10.955   7.751  72.691  1.00  0.00    -0.364 C  
ENDBRANCH  31  34
ENDBRANCH   3  31
TORSDOF 7
ENDMDL
MODEL       20
REMARK 921   NORMALIZED FREE ENERGY PREDICTED BY IDOCK:   -7.58 KCAL/MOL
REMARK 922        TOTAL FREE ENERGY PREDICTED BY IDOCK:  -11.32 KCAL/MOL
REMARK 923 INTER-LIGAND FREE ENERGY PREDICTED BY IDOCK:  -10.29 KCAL/MOL
REMARK 924 INTRA-LIGAND FREE ENERGY PREDICTED BY IDOCK:   -1.03 KCAL/MOL
REMARK 927      BINDING AFFINITY PREDICTED BY RF-SCORE:    0.00 PKD
ROOT
HETATM    1  C   UNL     1     -12.523  10.101  69.580  1.00  0.00     0.447 C  
HETATM    2  N   UNL     1     -11.088  10.407  69.583  1.00  0.00    -0.257 N  
HETATM    3  C   UNL     1     -10.141   9.837  70.445  1.00  0.00    -0.252 C  
HETATM    4  O   UNL     1      -9.011  10.336  70.533  1.00  0.00     0.271 OA 
ENDROOT
BRANCH   2   5
HETATM    5  C   UNL     1     -10.789  11.702  69.025  1.00  0.00    -0.203 A  
HETATM    6  C   UNL     1     -10.187  13.232  67.294  1.00  0.00    -0.240 A  
HETATM    7  C   UNL     1     -11.335  12.825  69.657  1.00  0.00    -0.099 A  
HETATM    8  C   UNL     1     -10.123  11.902  67.800  1.00  0.00    -0.200 A  
HETATM    9  C   UNL     1     -10.751  14.319  67.982  1.00  0.00    -0.238 A  
HETATM   10  N   UNL     1     -11.313  14.095  69.181  1.00  0.00    -0.265 NA 
BRANCH   9  11
HETATM   11  N   UNL     1     -10.764  15.609  67.484  1.00  0.00    -0.298 NA 
HETATM   12  C   UNL     1     -11.248  16.732  68.319  1.00  0.00    -0.167 C  
HETATM   13  N   UNL     1      -9.607  18.293  67.088  1.00  0.00    -0.274 N  
HETATM   14  C   UNL     1     -10.574  19.178  66.335  1.00  0.00    -0.435 C  
HETATM   15  C   UNL     1     -10.282  16.005  66.159  1.00  0.00    -0.324 C  
HETATM   16  C   UNL     1     -10.175  17.850  68.457  1.00  0.00    -0.390 C  
HETATM   17  C   UNL     1      -9.173  17.063  66.282  1.00  0.00    -0.247 C  
BRANCH  13  18
HETATM   18  C   UNL     1      -8.319  19.096  67.323  1.00  0.00    -0.277 C  
BRANCH  18  19
HETATM   19  O   UNL     1      -8.115  19.529  68.633  1.00  0.00    -0.352 OA 
HETATM   20  O   UNL     1      -5.747  19.596  67.690  1.00  0.00    -0.185 OA 
HETATM   21  O   UNL     1      -6.274  20.311  70.189  1.00  0.00    -0.364 OA 
HETATM   22  O   UNL     1      -6.475  17.970  69.489  1.00  0.00    -0.248 OA 
HETATM   23  P   UNL     1      -6.533  19.491  68.969  1.00  0.00    -0.335 P  
ENDBRANCH  18  19
ENDBRANCH  13  18
ENDBRANCH   9  11
BRANCH   8  24
HETATM   24  C   UNL     1      -9.417  10.834  66.993  1.00  0.00    -0.186 A  
HETATM   25  C   UNL     1      -8.381  10.070  67.577  1.00  0.00    -0.118 A  
HETATM   26  C   UNL     1      -7.684   9.065  66.895  1.00  0.00    -0.098 A  
HETATM   27  C   UNL     1     -10.759  11.225  64.796  1.00  0.00    -0.352 C  
HETATM   28  C   UNL     1      -9.731  10.506  65.638  1.00  0.00    -0.289 A  
HETATM   29  C   UNL     1      -8.040   8.737  65.600  1.00  0.00    -0.108 A  
HETATM   30  C   UNL     1      -9.064   9.440  64.984  1.00  0.00    -0.271 A  
ENDBRANCH   8  24
ENDBRANCH   2   5
BRANCH   3  31
HETATM   31  C   UNL     1     -10.487   8.569  71.310  1.00  0.00    -0.289 C  
HETATM   32  C   UNL     1     -11.976   8.676  71.767  1.00  0.00    -0.402 C  
HETATM   33  C   UNL     1      -9.693   8.569  72.640  1.00  0.00    -0.285 C  
BRANCH  31  34
HETATM   34  C   UNL     1     -10.372   7.258  70.496  1.00  0.00    -0.215 A  
HETATM   35  F   UNL     1     -10.596   3.181  71.996  1.00  0.00    -0.160 F  
HETATM   36  C   UNL     1     -10.260   6.077  68.341  1.00  0.00    -0.220 A  
HETATM   37  C   UNL     1     -10.318   6.116  66.831  1.00  0.00    -0.248 C  
HETATM   38  F   UNL     1      -8.466   3.616  71.866  1.00  0.00    -0.079 F  
HETATM   39  C   UNL     1     -10.448   7.249  69.092  1.00  0.00    -0.222 A  
HETATM   40  C   UNL     1      -9.993   4.876  69.011  1.00  0.00    -0.237 A  
HETATM   41  F   UNL     1     -11.277   5.291  66.329  1.00  0.00    -0.264 F  
HETATM   42  F   UNL     1      -9.148   5.736  66.254  1.00  0.00    -0.131 F  
HETATM   43  F   UNL     1     -10.598   7.354  66.336  1.00  0.00    -0.276 F  
HETATM   44  F   UNL     1      -9.444   2.484  70.290  1.00  0.00    -0.184 F  
HETATM   45  C   UNL     1      -9.921   4.837  70.410  1.00  0.00    -0.315 A  
HETATM   46  C   UNL     1     -10.120   6.028  71.139  1.00  0.00    -0.241 A  
HETATM   47  C   UNL     1      -9.608   3.543  71.132  1.00  0.00    -0.170 C  
ENDBRANCH  31  34
ENDBRANCH   3  31
TORSDOF 7
ENDMDL
MODEL       21
REMARK 921   NORMALIZED FREE ENERGY PREDICTED BY IDOCK:   -7.46 KCAL/MOL
REMARK 922        TOTAL FREE ENERGY PREDICTED BY IDOCK:  -11.16 KCAL/MOL
REMARK 923 INTER-LIGAND FREE ENERGY PREDICTED BY IDOCK:  -11.40 KCAL/MOL
REMARK 924 INTRA-LIGAND FREE ENERGY PREDICTED BY IDOCK:    0.24 KCAL/MOL
REMARK 927      BINDING AFFINITY PREDICTED BY RF-SCORE:    0.00 PKD
ROOT
HETATM    1  C   UNL     1     -12.164  12.497  66.590  1.00  0.00     0.058 C  
HETATM    2  N   UNL     1     -11.108  12.833  67.553  1.00  0.00    -0.252 N  
HETATM    3  C   UNL     1     -10.131  13.821  67.370  1.00  0.00    -0.244 C  
HETATM    4  O   UNL     1      -9.148  13.861  68.122  1.00  0.00    -0.181 OA 
ENDROOT
BRANCH   2   5
HETATM    5  C   UNL     1     -10.802  11.748  68.450  1.00  0.00    -0.223 A  
HETATM    6  C   UNL     1     -11.146  10.334  70.343  1.00  0.00    -0.391 A  
HETATM    7  C   UNL     1     -10.044  10.683  67.949  1.00  0.00    -0.168 A  
HETATM    8  C   UNL     1     -11.346  11.611  69.742  1.00  0.00    -0.276 A  
HETATM    9  C   UNL     1     -10.370   9.304  69.786  1.00  0.00    -0.218 A  
HETATM   10  N   UNL     1      -9.810   9.506  68.582  1.00  0.00    -0.158 NA 
BRANCH   9  11
HETATM   11  N   UNL     1     -10.160   8.089  70.410  1.00  0.00    -0.193 NA 
HETATM   12  C   UNL     1     -11.238   7.075  70.465  1.00  0.00    -0.295 C  
HETATM   13  N   UNL     1      -9.441   5.228  70.434  1.00  0.00    -0.158 N  
HETATM   14  C   UNL     1      -9.603   4.655  71.822  1.00  0.00    -0.158 C  
HETATM   15  C   UNL     1      -8.897   7.661  71.015  1.00  0.00    -0.142 C  
HETATM   16  C   UNL     1     -10.786   5.720  69.850  1.00  0.00    -0.347 C  
HETATM   17  C   UNL     1      -8.403   6.356  70.370  1.00  0.00    -0.126 C  
BRANCH  13  18
HETATM   18  C   UNL     1      -8.885   4.119  69.528  1.00  0.00    -0.089 C  
BRANCH  18  19
HETATM   19  O   UNL     1      -9.660   3.816  68.409  1.00  0.00    -0.162 OA 
HETATM   20  O   UNL     1      -7.320   3.932  67.403  1.00  0.00    -0.066 OA 
HETATM   21  O   UNL     1      -9.448   3.365  65.924  1.00  0.00    -0.164 OA 
HETATM   22  O   UNL     1      -9.142   5.607  66.868  1.00  0.00    -0.115 OA 
HETATM   23  P   UNL     1      -8.783   4.052  67.070  1.00  0.00    -0.126 P  
ENDBRANCH  18  19
ENDBRANCH  13  18
ENDBRANCH   9  11
BRANCH   8  24
HETATM   24  C   UNL     1     -12.140  12.664  70.484  1.00  0.00    -0.360 A  
HETATM   25  C   UNL     1     -11.970  14.032  70.172  1.00  0.00    -0.399 A  
HETATM   26  C   UNL     1     -12.671  15.062  70.812  1.00  0.00    -0.438 A  
HETATM   27  C   UNL     1     -13.405  11.003  72.040  1.00  0.00    -0.393 C  
HETATM   28  C   UNL     1     -13.099  12.382  71.504  1.00  0.00    -0.362 A  
HETATM   29  C   UNL     1     -13.626  14.758  71.763  1.00  0.00    -0.485 A  
HETATM   30  C   UNL     1     -13.849  13.431  72.094  1.00  0.00    -0.605 A  
ENDBRANCH   8  24
ENDBRANCH   2   5
BRANCH   3  31
HETATM   31  C   UNL     1     -10.257  14.887  66.219  1.00  0.00    -0.306 C  
HETATM   32  C   UNL     1     -11.763  15.265  66.059  1.00  0.00     0.104 C  
HETATM   33  C   UNL     1      -9.883  14.272  64.847  1.00  0.00     0.037 C  
BRANCH  31  34
HETATM   34  C   UNL     1      -9.510  16.200  66.557  1.00  0.00    -0.289 A  
HETATM   35  F   UNL     1      -5.269  17.035  66.064  1.00  0.00    -0.160 F  
HETATM   36  C   UNL     1      -9.533  18.570  67.215  1.00  0.00    -0.296 A  
HETATM   37  C   UNL     1     -10.314  19.827  67.525  1.00  0.00    -0.440 C  
HETATM   38  F   UNL     1      -5.489  16.456  68.152  1.00  0.00    -0.092 F  
HETATM   39  C   UNL     1     -10.199  17.396  66.824  1.00  0.00    -0.318 A  
HETATM   40  C   UNL     1      -8.137  18.552  67.337  1.00  0.00    -0.248 A  
HETATM   41  F   UNL     1      -9.945  20.872  66.735  1.00  0.00    -0.534 F  
HETATM   42  F   UNL     1     -10.147  20.241  68.808  1.00  0.00    -0.465 F  
HETATM   43  F   UNL     1     -11.656  19.683  67.347  1.00  0.00    -0.328 F  
HETATM   44  F   UNL     1      -5.383  18.558  67.611  1.00  0.00    -0.150 F  
HETATM   45  C   UNL     1      -7.410  17.384  67.068  1.00  0.00    -0.220 A  
HETATM   46  C   UNL     1      -8.104  16.222  66.671  1.00  0.00    -0.323 A  
HETATM   47  C   UNL     1      -5.904  17.359  67.224  1.00  0.00    -0.138 C  
ENDBRANCH  31  34
ENDBRANCH   3  31
TORSDOF 7
ENDMDL
MODEL       22
REMARK 921   NORMALIZED FREE ENERGY PREDICTED BY IDOCK:   -7.43 KCAL/MOL
REMARK 922        TOTAL FREE ENERGY PREDICTED BY IDOCK:  -11.11 KCAL/MOL
REMARK 923 INTER-LIGAND FREE ENERGY PREDICTED BY IDOCK:  -10.93 KCAL/MOL
REMARK 924 INTRA-LIGAND FREE ENERGY PREDICTED BY IDOCK:   -0.18 KCAL/MOL
REMARK 927      BINDING AFFINITY PREDICTED BY RF-SCORE:    0.00 PKD
ROOT
HETATM    1  C   UNL     1     -12.085  11.841  65.321  1.00  0.00     0.274 C  
HETATM    2  N   UNL     1     -10.960  11.905  66.261  1.00  0.00    -0.290 N  
HETATM    3  C   UNL     1     -10.221  13.057  66.560  1.00  0.00    -0.268 C  
HETATM    4  O   UNL     1      -9.148  12.958  67.172  1.00  0.00    -0.204 OA 
ENDROOT
BRANCH   2   5
HETATM    5  C   UNL     1     -10.318  10.629  66.455  1.00  0.00    -0.231 A  
HETATM    6  C   UNL     1      -9.971   8.512  67.501  1.00  0.00    -0.258 A  
HETATM    7  C   UNL     1      -9.670  10.054  65.356  1.00  0.00    -0.302 A  
HETATM    8  C   UNL     1     -10.436   9.853  67.624  1.00  0.00    -0.296 A  
HETATM    9  C   UNL     1      -9.325   7.994  66.366  1.00  0.00    -0.200 A  
HETATM   10  N   UNL     1      -9.171   8.793  65.298  1.00  0.00    -0.107 NA 
BRANCH   9  11
HETATM   11  N   UNL     1      -8.848   6.699  66.289  1.00  0.00    -0.144 NA 
HETATM   12  C   UNL     1      -7.413   6.412  66.517  1.00  0.00    -0.086 C  
HETATM   13  N   UNL     1      -8.071   4.102  67.453  1.00  0.00    -0.098 N  
HETATM   14  C   UNL     1      -7.502   3.195  66.386  1.00  0.00    -0.076 C  
HETATM   15  C   UNL     1      -9.668   5.513  66.033  1.00  0.00    -0.081 C  
HETATM   16  C   UNL     1      -7.209   5.370  67.654  1.00  0.00    -0.072 C  
HETATM   17  C   UNL     1      -9.527   4.501  67.183  1.00  0.00    -0.162 C  
BRANCH  13  18
HETATM   18  C   UNL     1      -8.108   3.314  68.771  1.00  0.00    -0.060 C  
BRANCH  18  19
HETATM   19  O   UNL     1      -9.272   3.464  69.524  1.00  0.00    -0.126 OA 
HETATM   20  O   UNL     1      -7.468   4.010  71.242  1.00  0.00    -0.049 OA 
HETATM   21  O   UNL     1     -10.047   4.083  71.856  1.00  0.00    -0.180 OA 
HETATM   22  O   UNL     1      -8.934   1.950  71.382  1.00  0.00    -0.066 OA 
HETATM   23  P   UNL     1      -8.888   3.533  71.095  1.00  0.00    -0.097 P  
ENDBRANCH  18  19
ENDBRANCH  13  18
ENDBRANCH   9  11
BRANCH   8  24
HETATM   24  C   UNL     1     -11.046  10.310  68.931  1.00  0.00    -0.278 A  
HETATM   25  C   UNL     1     -11.805  11.501  68.983  1.00  0.00    -0.408 A  
HETATM   26  C   UNL     1     -12.401  11.986  70.154  1.00  0.00    -0.230 A  
HETATM   27  C   UNL     1     -10.123   8.341  70.363  1.00  0.00    -0.199 C  
HETATM   28  C   UNL     1     -10.930   9.603  70.167  1.00  0.00    -0.320 A  
HETATM   29  C   UNL     1     -12.312  11.259  71.325  1.00  0.00    -0.375 A  
HETATM   30  C   UNL     1     -11.597  10.071  71.327  1.00  0.00    -0.430 A  
ENDBRANCH   8  24
ENDBRANCH   2   5
BRANCH   3  31
HETATM   31  C   UNL     1     -10.726  14.484  66.130  1.00  0.00    -0.310 C  
HETATM   32  C   UNL     1     -12.249  14.389  65.798  1.00  0.00    -0.353 C  
HETATM   33  C   UNL     1     -10.084  14.922  64.790  1.00  0.00    -0.040 C  
BRANCH  31  34
HETATM   34  C   UNL     1     -10.591  15.519  67.273  1.00  0.00    -0.299 A  
HETATM   35  F   UNL     1     -11.136  14.843  71.535  1.00  0.00    -0.350 F  
HETATM   36  C   UNL     1      -9.948  17.754  68.075  1.00  0.00    -0.333 A  
HETATM   37  C   UNL     1      -9.330  19.106  67.801  1.00  0.00    -0.305 C  
HETATM   38  F   UNL     1     -13.041  15.641  70.845  1.00  0.00    -0.478 F  
HETATM   39  C   UNL     1      -9.998  16.777  67.066  1.00  0.00    -0.269 A  
HETATM   40  C   UNL     1     -10.502  17.466  69.329  1.00  0.00    -0.171 A  
HETATM   41  F   UNL     1      -8.294  19.380  68.640  1.00  0.00    -0.362 F  
HETATM   42  F   UNL     1     -10.218  20.124  67.948  1.00  0.00    -0.500 F  
HETATM   43  F   UNL     1      -8.828  19.223  66.541  1.00  0.00    -0.291 F  
HETATM   44  F   UNL     1     -11.601  16.948  71.816  1.00  0.00    -0.415 F  
HETATM   45  C   UNL     1     -11.092  16.220  69.581  1.00  0.00    -0.333 A  
HETATM   46  C   UNL     1     -11.122  15.255  68.553  1.00  0.00    -0.284 A  
HETATM   47  C   UNL     1     -11.712  15.918  70.930  1.00  0.00    -0.420 C  
ENDBRANCH  31  34
ENDBRANCH   3  31
TORSDOF 7
ENDMDL
MODEL       23
REMARK 921   NORMALIZED FREE ENERGY PREDICTED BY IDOCK:   -7.30 KCAL/MOL
REMARK 922        TOTAL FREE ENERGY PREDICTED BY IDOCK:  -10.92 KCAL/MOL
REMARK 923 INTER-LIGAND FREE ENERGY PREDICTED BY IDOCK:   -9.41 KCAL/MOL
REMARK 924 INTRA-LIGAND FREE ENERGY PREDICTED BY IDOCK:   -1.51 KCAL/MOL
REMARK 927      BINDING AFFINITY PREDICTED BY RF-SCORE:    0.00 PKD
ROOT
HETATM    1  C   UNL     1      -5.414  13.506  67.666  1.00  0.00    -0.007 C  
HETATM    2  N   UNL     1      -6.709  13.337  68.336  1.00  0.00    -0.085 N  
HETATM    3  C   UNL     1      -7.549  14.381  68.745  1.00  0.00    -0.131 C  
HETATM    4  O   UNL     1      -8.493  14.146  69.512  1.00  0.00     0.340 OA 
ENDROOT
BRANCH   2   5
HETATM    5  C   UNL     1      -6.824  12.076  69.024  1.00  0.00    -0.105 A  
HETATM    6  C   UNL     1      -7.266   9.737  69.209  1.00  0.00    -0.072 A  
HETATM    7  C   UNL     1      -6.069  11.900  70.189  1.00  0.00    -0.137 A  
HETATM    8  C   UNL     1      -7.517  10.959  68.519  1.00  0.00    -0.103 A  
HETATM    9  C   UNL     1      -6.496   9.627  70.378  1.00  0.00    -0.088 A  
HETATM   10  N   UNL     1      -5.912  10.734  70.866  1.00  0.00    -0.328 NA 
BRANCH   9  11
HETATM   11  N   UNL     1      -6.302   8.435  71.051  1.00  0.00    -0.038 NA 
HETATM   12  C   UNL     1      -6.085   8.424  72.516  1.00  0.00    -0.072 C  
HETATM   13  N   UNL     1      -7.223   6.114  72.621  1.00  0.00    -0.084 N  
HETATM   14  C   UNL     1      -6.052   5.242  73.010  1.00  0.00    -0.035 C  
HETATM   15  C   UNL     1      -6.334   7.107  70.435  1.00  0.00    -0.035 C  
HETATM   16  C   UNL     1      -7.125   7.526  73.244  1.00  0.00    -0.073 C  
HETATM   17  C   UNL     1      -7.405   6.228  71.102  1.00  0.00    -0.080 C  
BRANCH  13  18
HETATM   18  C   UNL     1      -8.505   5.437  73.130  1.00  0.00    -0.118 C  
BRANCH  18  19
HETATM   19  O   UNL     1      -9.535   5.329  72.196  1.00  0.00    -0.142 OA 
HETATM   20  O   UNL     1     -10.571   6.881  73.934  1.00  0.00    -0.369 OA 
HETATM   21  O   UNL     1     -11.887   6.158  71.748  1.00  0.00    -0.299 OA 
HETATM   22  O   UNL     1     -11.400   4.526  73.511  1.00  0.00    -0.314 OA 
HETATM   23  P   UNL     1     -10.904   5.902  72.841  1.00  0.00    -0.272 P  
ENDBRANCH  18  19
ENDBRANCH  13  18
ENDBRANCH   9  11
BRANCH   8  24
HETATM   24  C   UNL     1      -8.430  10.955  67.313  1.00  0.00    -0.125 A  
HETATM   25  C   UNL     1      -7.912  10.661  66.031  1.00  0.00    -0.159 A  
HETATM   26  C   UNL     1      -8.695  10.635  64.869  1.00  0.00    -0.178 A  
HETATM   27  C   UNL     1     -10.592  11.612  68.607  1.00  0.00    -0.236 C  
HETATM   28  C   UNL     1      -9.833  11.220  67.361  1.00  0.00    -0.201 A  
HETATM   29  C   UNL     1     -10.057  10.849  64.952  1.00  0.00    -0.374 A  
HETATM   30  C   UNL     1     -10.623  11.123  66.187  1.00  0.00    -0.305 A  
ENDBRANCH   8  24
ENDBRANCH   2   5
BRANCH   3  31
HETATM   31  C   UNL     1      -7.316  15.856  68.251  1.00  0.00    -0.124 C  
HETATM   32  C   UNL     1      -6.087  15.865  67.288  1.00  0.00    -0.086 C  
HETATM   33  C   UNL     1      -6.875  16.773  69.419  1.00  0.00    -0.202 C  
BRANCH  31  34
HETATM   34  C   UNL     1      -8.516  16.394  67.434  1.00  0.00    -0.195 A  
HETATM   35  F   UNL     1     -11.831  14.110  65.785  1.00  0.00    -0.335 F  
HETATM   36  C   UNL     1      -9.841  18.270  66.553  1.00  0.00    -0.363 A  
HETATM   37  C   UNL     1     -10.099  19.758  66.478  1.00  0.00    -0.476 C  
HETATM   38  F   UNL     1     -10.427  14.331  64.136  1.00  0.00    -0.264 F  
HETATM   39  C   UNL     1      -8.806  17.767  67.360  1.00  0.00    -0.240 A  
HETATM   40  C   UNL     1     -10.612  17.375  65.801  1.00  0.00    -0.185 A  
HETATM   41  F   UNL     1     -11.365  20.082  66.859  1.00  0.00    -0.369 F  
HETATM   42  F   UNL     1      -9.941  20.251  65.221  1.00  0.00    -0.371 F  
HETATM   43  F   UNL     1      -9.273  20.488  67.276  1.00  0.00    -0.453 F  
HETATM   44  F   UNL     1     -12.150  15.647  64.282  1.00  0.00    -0.441 F  
HETATM   45  C   UNL     1     -10.365  15.996  65.854  1.00  0.00    -0.386 A  
HETATM   46  C   UNL     1      -9.325  15.519  66.678  1.00  0.00    -0.291 A  
HETATM   47  C   UNL     1     -11.184  15.032  65.021  1.00  0.00    -0.409 C  
ENDBRANCH  31  34
ENDBRANCH   3  31
TORSDOF 7
ENDMDL
MODEL       24
REMARK 921   NORMALIZED FREE ENERGY PREDICTED BY IDOCK:   -7.28 KCAL/MOL
REMARK 922        TOTAL FREE ENERGY PREDICTED BY IDOCK:  -10.90 KCAL/MOL
REMARK 923 INTER-LIGAND FREE ENERGY PREDICTED BY IDOCK:  -10.41 KCAL/MOL
REMARK 924 INTRA-LIGAND FREE ENERGY PREDICTED BY IDOCK:   -0.49 KCAL/MOL
REMARK 927      BINDING AFFINITY PREDICTED BY RF-SCORE:    0.00 PKD
ROOT
HETATM    1  C   UNL     1     -11.740  12.757  66.908  1.00  0.00    -0.380 C  
HETATM    2  N   UNL     1     -10.586  12.274  67.675  1.00  0.00    -0.211 N  
HETATM    3  C   UNL     1      -9.344  12.918  67.758  1.00  0.00    -0.203 C  
HETATM    4  O   UNL     1      -8.368  12.314  68.223  1.00  0.00    -0.167 OA 
ENDROOT
BRANCH   2   5
HETATM    5  C   UNL     1     -10.617  10.851  67.900  1.00  0.00    -0.207 A  
HETATM    6  C   UNL     1      -9.953   8.584  67.556  1.00  0.00    -0.258 A  
HETATM    7  C   UNL     1     -11.067  10.400  69.146  1.00  0.00    -0.246 A  
HETATM    8  C   UNL     1     -10.078   9.896  67.016  1.00  0.00    -0.275 A  
HETATM    9  C   UNL     1     -10.427   8.194  68.819  1.00  0.00    -0.174 A  
HETATM   10  N   UNL     1     -11.000   9.123  69.602  1.00  0.00    -0.198 NA 
BRANCH   9  11
HETATM   11  N   UNL     1     -10.328   6.902  69.302  1.00  0.00    -0.190 NA 
HETATM   12  C   UNL     1      -9.335   5.961  68.735  1.00  0.00    -0.122 C  
HETATM   13  N   UNL     1      -9.167   4.821  71.040  1.00  0.00    -0.135 N  
HETATM   14  C   UNL     1      -9.780   3.475  70.733  1.00  0.00    -0.137 C  
HETATM   15  C   UNL     1     -11.117   6.355  70.408  1.00  0.00    -0.339 C  
HETATM   16  C   UNL     1      -8.390   5.393  69.831  1.00  0.00    -0.100 C  
HETATM   17  C   UNL     1     -10.195   5.848  71.530  1.00  0.00    -0.205 C  
BRANCH  13  18
HETATM   18  C   UNL     1      -8.191   4.638  72.213  1.00  0.00    -0.114 C  
BRANCH  18  19
HETATM   19  O   UNL     1      -8.177   5.675  73.146  1.00  0.00    -0.117 OA 
HETATM   20  O   UNL     1      -5.861   5.886  72.099  1.00  0.00    -0.029 OA 
HETATM   21  O   UNL     1      -6.688   7.537  74.003  1.00  0.00    -0.079 OA 
HETATM   22  O   UNL     1      -6.235   5.180  74.502  1.00  0.00    -0.059 OA 
HETATM   23  P   UNL     1      -6.659   6.203  73.335  1.00  0.00    -0.075 P  
ENDBRANCH  18  19
ENDBRANCH  13  18
ENDBRANCH   9  11
BRANCH   8  24
HETATM   24  C   UNL     1      -9.595  10.169  65.608  1.00  0.00    -0.302 A  
HETATM   25  C   UNL     1     -10.464  10.752  64.658  1.00  0.00    -0.346 A  
HETATM   26  C   UNL     1     -10.089  11.036  63.339  1.00  0.00    -0.424 A  
HETATM   27  C   UNL     1      -7.195   9.219  65.957  1.00  0.00    -0.091 C  
HETATM   28  C   UNL     1      -8.274   9.890  65.140  1.00  0.00    -0.144 A  
HETATM   29  C   UNL     1      -8.792  10.799  62.927  1.00  0.00    -0.261 A  
HETATM   30  C   UNL     1      -7.889  10.247  63.823  1.00  0.00    -0.118 A  
ENDBRANCH   8  24
ENDBRANCH   2   5
BRANCH   3  31
HETATM   31  C   UNL     1      -9.161  14.401  67.266  1.00  0.00    -0.221 C  
HETATM   32  C   UNL     1      -9.856  14.549  65.876  1.00  0.00    -0.347 C  
HETATM   33  C   UNL     1      -7.672  14.710  66.968  1.00  0.00     0.006 C  
BRANCH  31  34
HETATM   34  C   UNL     1      -9.849  15.417  68.210  1.00  0.00    -0.213 A  
HETATM   35  F   UNL     1     -10.381  19.686  67.567  1.00  0.00    -0.442 F  
HETATM   36  C   UNL     1     -11.193  15.915  70.208  1.00  0.00    -0.388 A  
HETATM   37  C   UNL     1     -12.007  15.425  71.385  1.00  0.00    -0.378 C  
HETATM   38  F   UNL     1      -8.600  19.523  68.809  1.00  0.00    -0.376 F  
HETATM   39  C   UNL     1     -10.636  15.002  69.298  1.00  0.00    -0.249 A  
HETATM   40  C   UNL     1     -10.962  17.285  70.025  1.00  0.00     0.686 A  
HETATM   41  F   UNL     1     -13.271  15.930  71.384  1.00  0.00    -0.521 F  
HETATM   42  F   UNL     1     -11.458  15.772  72.578  1.00  0.00    -0.489 F  
HETATM   43  F   UNL     1     -12.148  14.071  71.413  1.00  0.00    -0.389 F  
HETATM   44  F   UNL     1     -10.518  19.999  69.713  1.00  0.00    -0.362 F  
HETATM   45  C   UNL     1     -10.193  17.743  68.946  1.00  0.00    -0.345 A  
HETATM   46  C   UNL     1      -9.652  16.804  68.044  1.00  0.00    -0.234 A  
HETATM   47  C   UNL     1      -9.925  19.223  68.763  1.00  0.00    -0.440 C  
ENDBRANCH  31  34
ENDBRANCH   3  31
TORSDOF 7
ENDMDL
MODEL       25
REMARK 921   NORMALIZED FREE ENERGY PREDICTED BY IDOCK:   -7.27 KCAL/MOL
REMARK 922        TOTAL FREE ENERGY PREDICTED BY IDOCK:  -10.89 KCAL/MOL
REMARK 923 INTER-LIGAND FREE ENERGY PREDICTED BY IDOCK:   -8.71 KCAL/MOL
REMARK 924 INTRA-LIGAND FREE ENERGY PREDICTED BY IDOCK:   -2.18 KCAL/MOL
REMARK 927      BINDING AFFINITY PREDICTED BY RF-SCORE:    0.00 PKD
ROOT
HETATM    1  C   UNL     1      -8.140   9.676  70.413  1.00  0.00    -0.168 C  
HETATM    2  N   UNL     1      -7.126   9.759  69.355  1.00  0.00    -0.060 N  
HETATM    3  C   UNL     1      -6.161   8.779  69.081  1.00  0.00    -0.043 C  
HETATM    4  O   UNL     1      -5.207   9.047  68.339  1.00  0.00    -0.037 OA 
ENDROOT
BRANCH   2   5
HETATM    5  C   UNL     1      -6.832  11.114  68.965  1.00  0.00    -0.092 A  
HETATM    6  C   UNL     1      -7.139  13.130  67.722  1.00  0.00    -0.148 A  
HETATM    7  C   UNL     1      -6.184  11.934  69.896  1.00  0.00    -0.139 A  
HETATM    8  C   UNL     1      -7.293  11.714  67.777  1.00  0.00    -0.106 A  
HETATM    9  C   UNL     1      -6.475  13.896  68.694  1.00  0.00    -0.092 A  
HETATM   10  N   UNL     1      -5.987  13.271  69.778  1.00  0.00    -0.120 NA 
BRANCH   9  11
HETATM   11  N   UNL     1      -6.305  15.265  68.596  1.00  0.00    -0.086 NA 
HETATM   12  C   UNL     1      -5.648  15.858  67.408  1.00  0.00    -0.031 C  
HETATM   13  N   UNL     1      -7.103  17.964  67.713  1.00  0.00    -0.201 N  
HETATM   14  C   UNL     1      -6.051  18.977  68.099  1.00  0.00    -0.217 C  
HETATM   15  C   UNL     1      -6.772  16.243  69.580  1.00  0.00    -0.198 C  
HETATM   16  C   UNL     1      -6.556  16.914  66.717  1.00  0.00    -0.225 C  
HETATM   17  C   UNL     1      -7.725  17.257  68.923  1.00  0.00    -0.221 C  
BRANCH  13  18
HETATM   18  C   UNL     1      -8.264  18.718  67.048  1.00  0.00    -0.264 C  
BRANCH  18  19
HETATM   19  O   UNL     1      -8.796  18.114  65.909  1.00  0.00    -0.500 OA 
HETATM   20  O   UNL     1     -10.906  18.825  67.153  1.00  0.00    -0.421 OA 
HETATM   21  O   UNL     1     -11.018  17.591  64.808  1.00  0.00    -0.950 OA 
HETATM   22  O   UNL     1     -10.250  16.404  66.812  1.00  0.00    -0.272 OA 
HETATM   23  P   UNL     1     -10.378  17.855  66.130  1.00  0.00    -0.177 P  
ENDBRANCH  18  19
ENDBRANCH  13  18
ENDBRANCH   9  11
BRANCH   8  24
HETATM   24  C   UNL     1      -7.962  10.996  66.625  1.00  0.00    -0.156 A  
HETATM   25  C   UNL     1      -7.190  10.522  65.540  1.00  0.00    -0.103 A  
HETATM   26  C   UNL     1      -7.736   9.847  64.441  1.00  0.00    -0.142 A  
HETATM   27  C   UNL     1     -10.386  11.188  67.555  1.00  0.00    -0.228 C  
HETATM   28  C   UNL     1      -9.363  10.729  66.543  1.00  0.00    -0.192 A  
HETATM   29  C   UNL     1      -9.088   9.562  64.409  1.00  0.00    -0.234 A  
HETATM   30  C   UNL     1      -9.890   9.985  65.458  1.00  0.00    -0.373 A  
ENDBRANCH   8  24
ENDBRANCH   2   5
BRANCH   3  31
HETATM   31  C   UNL     1      -6.264   7.338  69.703  1.00  0.00    -0.031 C  
HETATM   32  C   UNL     1      -5.894   7.427  71.217  1.00  0.00    -0.036 C  
HETATM   33  C   UNL     1      -5.184   6.398  69.114  1.00  0.00    -0.012 C  
BRANCH  31  34
HETATM   34  C   UNL     1      -7.706   6.777  69.638  1.00  0.00    -0.110 A  
HETATM   35  F   UNL     1     -10.437   6.104  72.956  1.00  0.00    -0.193 F  
HETATM   36  C   UNL     1      -9.678   6.080  68.343  1.00  0.00    -0.142 A  
HETATM   37  C   UNL     1     -10.381   5.952  67.011  1.00  0.00    -0.243 C  
HETATM   38  F   UNL     1      -9.514   4.167  72.587  1.00  0.00    -0.134 F  
HETATM   39  C   UNL     1      -8.403   6.667  68.423  1.00  0.00    -0.122 A  
HETATM   40  C   UNL     1     -10.276   5.593  69.512  1.00  0.00    -0.320 A  
HETATM   41  F   UNL     1     -11.585   6.586  66.999  1.00  0.00    -0.407 F  
HETATM   42  F   UNL     1     -10.626   4.659  66.674  1.00  0.00    -0.268 F  
HETATM   43  F   UNL     1      -9.672   6.484  65.976  1.00  0.00    -0.156 F  
HETATM   44  F   UNL     1     -11.490   4.600  71.793  1.00  0.00     0.205 F  
HETATM   45  C   UNL     1      -9.621   5.694  70.748  1.00  0.00    -0.213 A  
HETATM   46  C   UNL     1      -8.345   6.293  70.799  1.00  0.00    -0.126 A  
HETATM   47  C   UNL     1     -10.259   5.145  72.007  1.00  0.00    -0.202 C  
ENDBRANCH  31  34
ENDBRANCH   3  31
TORSDOF 7
ENDMDL
MODEL       26
REMARK 921   NORMALIZED FREE ENERGY PREDICTED BY IDOCK:   -7.24 KCAL/MOL
REMARK 922        TOTAL FREE ENERGY PREDICTED BY IDOCK:  -10.85 KCAL/MOL
REMARK 923 INTER-LIGAND FREE ENERGY PREDICTED BY IDOCK:  -11.58 KCAL/MOL
REMARK 924 INTRA-LIGAND FREE ENERGY PREDICTED BY IDOCK:    0.73 KCAL/MOL
REMARK 927      BINDING AFFINITY PREDICTED BY RF-SCORE:    0.00 PKD
ROOT
HETATM    1  C   UNL     1     -12.102  12.230  66.005  1.00  0.00    -0.152 C  
HETATM    2  N   UNL     1     -11.148  12.442  67.100  1.00  0.00    -0.265 N  
HETATM    3  C   UNL     1     -10.243  13.509  67.188  1.00  0.00    -0.247 C  
HETATM    4  O   UNL     1      -9.322  13.467  68.016  1.00  0.00    -0.203 OA 
ENDROOT
BRANCH   2   5
HETATM    5  C   UNL     1     -10.821  11.228  67.803  1.00  0.00    -0.235 A  
HETATM    6  C   UNL     1     -11.077   9.566  69.498  1.00  0.00    -0.168 A  
HETATM    7  C   UNL     1     -10.158  10.222  67.091  1.00  0.00    -0.210 A  
HETATM    8  C   UNL     1     -11.264  10.923  69.105  1.00  0.00    -0.318 A  
HETATM    9  C   UNL     1     -10.399   8.602  68.734  1.00  0.00    -0.208 A  
HETATM   10  N   UNL     1      -9.930   8.957  67.527  1.00  0.00    -0.188 NA 
BRANCH   9  11
HETATM   11  N   UNL     1     -10.196   7.301  69.158  1.00  0.00    -0.191 NA 
HETATM   12  C   UNL     1      -8.839   6.709  69.144  1.00  0.00    -0.129 C  
HETATM   13  N   UNL     1      -9.499   5.265  71.175  1.00  0.00    -0.153 N  
HETATM   14  C   UNL     1      -9.493   3.888  70.553  1.00  0.00    -0.181 C  
HETATM   15  C   UNL     1     -11.236   6.418  69.689  1.00  0.00    -0.418 C  
HETATM   16  C   UNL     1      -8.425   6.187  70.549  1.00  0.00    -0.137 C  
HETATM   17  C   UNL     1     -10.871   5.945  71.106  1.00  0.00    -0.269 C  
BRANCH  13  18
HETATM   18  C   UNL     1      -9.202   5.107  72.674  1.00  0.00    -0.134 C  
BRANCH  18  19
HETATM   19  O   UNL     1      -8.694   3.866  73.055  1.00  0.00    -0.097 OA 
HETATM   20  O   UNL     1      -7.144   5.465  74.297  1.00  0.00    -0.077 OA 
HETATM   21  O   UNL     1      -6.884   2.832  74.496  1.00  0.00    -0.032 OA 
HETATM   22  O   UNL     1      -6.370   3.985  72.394  1.00  0.00    -0.019 OA 
HETATM   23  P   UNL     1      -7.244   4.069  73.742  1.00  0.00    -0.064 P  
ENDBRANCH  18  19
ENDBRANCH  13  18
ENDBRANCH   9  11
BRANCH   8  24
HETATM   24  C   UNL     1     -11.945  11.883  70.056  1.00  0.00    -0.409 A  
HETATM   25  C   UNL     1     -11.897  13.275  69.814  1.00  0.00    -0.394 A  
HETATM   26  C   UNL     1     -12.505  14.224  70.646  1.00  0.00    -0.428 A  
HETATM   27  C   UNL     1     -12.814  10.064  71.704  1.00  0.00    -0.543 C  
HETATM   28  C   UNL     1     -12.676  11.487  71.217  1.00  0.00    -0.469 A  
HETATM   29  C   UNL     1     -13.244  13.811  71.737  1.00  0.00    -0.467 A  
HETATM   30  C   UNL     1     -13.343  12.455  72.011  1.00  0.00    -0.511 A  
ENDBRANCH   8  24
ENDBRANCH   2   5
BRANCH   3  31
HETATM   31  C   UNL     1     -10.369  14.764  66.249  1.00  0.00    -0.305 C  
HETATM   32  C   UNL     1     -11.867  15.205  66.214  1.00  0.00     0.088 C  
HETATM   33  C   UNL     1     -10.060  14.393  64.777  1.00  0.00    -0.138 C  
BRANCH  31  34
HETATM   34  C   UNL     1      -9.569  15.976  66.785  1.00  0.00    -0.248 A  
HETATM   35  F   UNL     1      -5.249  16.484  66.831  1.00  0.00    -0.154 F  
HETATM   36  C   UNL     1      -9.488  18.276  67.652  1.00  0.00    -0.275 A  
HETATM   37  C   UNL     1     -10.202  19.565  67.991  1.00  0.00    -0.437 C  
HETATM   38  F   UNL     1      -5.750  15.754  68.820  1.00  0.00    -0.097 F  
HETATM   39  C   UNL     1     -10.191  17.200  67.086  1.00  0.00    -0.316 A  
HETATM   40  C   UNL     1      -8.121  18.129  67.922  1.00  0.00    -0.251 A  
HETATM   41  F   UNL     1      -9.667  20.637  67.345  1.00  0.00    -0.541 F  
HETATM   42  F   UNL     1     -10.152  19.855  69.317  1.00  0.00    -0.498 F  
HETATM   43  F   UNL     1     -11.522  19.552  67.657  1.00  0.00    -0.388 F  
HETATM   44  F   UNL     1      -5.424  17.877  68.490  1.00  0.00    -0.151 F  
HETATM   45  C   UNL     1      -7.458  16.930  67.626  1.00  0.00    -0.176 A  
HETATM   46  C   UNL     1      -8.188  15.868  67.052  1.00  0.00    -0.255 A  
HETATM   47  C   UNL     1      -5.986  16.763  67.941  1.00  0.00    -0.127 C  
ENDBRANCH  31  34
ENDBRANCH   3  31
TORSDOF 7
ENDMDL
MODEL       27
REMARK 921   NORMALIZED FREE ENERGY PREDICTED BY IDOCK:   -7.12 KCAL/MOL
REMARK 922        TOTAL FREE ENERGY PREDICTED BY IDOCK:  -10.67 KCAL/MOL
REMARK 923 INTER-LIGAND FREE ENERGY PREDICTED BY IDOCK:   -9.36 KCAL/MOL
REMARK 924 INTRA-LIGAND FREE ENERGY PREDICTED BY IDOCK:   -1.32 KCAL/MOL
REMARK 927      BINDING AFFINITY PREDICTED BY RF-SCORE:    0.00 PKD
ROOT
HETATM    1  C   UNL     1      -6.200  10.281  68.980  1.00  0.00    -0.040 C  
HETATM    2  N   UNL     1      -6.842  10.737  67.741  1.00  0.00    -0.072 N  
HETATM    3  C   UNL     1      -6.995   9.969  66.579  1.00  0.00    -0.095 C  
HETATM    4  O   UNL     1      -7.325  10.518  65.518  1.00  0.00    -0.147 OA 
ENDROOT
BRANCH   2   5
HETATM    5  C   UNL     1      -6.828  12.171  67.598  1.00  0.00    -0.119 A  
HETATM    6  C   UNL     1      -7.717  14.379  67.784  1.00  0.00    -0.172 A  
HETATM    7  C   UNL     1      -5.583  12.809  67.561  1.00  0.00    -0.104 A  
HETATM    8  C   UNL     1      -7.977  12.984  67.655  1.00  0.00    -0.169 A  
HETATM    9  C   UNL     1      -6.439  14.959  67.737  1.00  0.00    -0.164 A  
HETATM   10  N   UNL     1      -5.374  14.149  67.610  1.00  0.00    -0.333 NA 
BRANCH   9  11
HETATM   11  N   UNL     1      -6.218  16.321  67.824  1.00  0.00    -0.123 NA 
HETATM   12  C   UNL     1      -5.814  17.095  66.628  1.00  0.00    -0.192 C  
HETATM   13  N   UNL     1      -7.042  19.144  67.596  1.00  0.00    -0.223 N  
HETATM   14  C   UNL     1      -5.875  20.058  67.887  1.00  0.00    -0.204 C  
HETATM   15  C   UNL     1      -6.396  17.126  69.034  1.00  0.00    -0.204 C  
HETATM   16  C   UNL     1      -6.794  18.269  66.345  1.00  0.00    -0.226 C  
HETATM   17  C   UNL     1      -7.414  18.253  68.788  1.00  0.00    -0.283 C  
BRANCH  13  18
HETATM   18  C   UNL     1      -8.279  20.021  67.349  1.00  0.00    -0.332 C  
BRANCH  18  19
HETATM   19  O   UNL     1      -8.842  19.915  66.078  1.00  0.00    -0.365 OA 
HETATM   20  O   UNL     1     -10.905  19.790  67.572  1.00  0.00    -0.411 OA 
HETATM   21  O   UNL     1     -11.088  19.687  64.928  1.00  0.00    -0.209 OA 
HETATM   22  O   UNL     1     -10.079  17.839  66.185  1.00  0.00    -0.392 OA 
HETATM   23  P   UNL     1     -10.377  19.420  66.212  1.00  0.00    -0.506 P  
ENDBRANCH  18  19
ENDBRANCH  13  18
ENDBRANCH   9  11
BRANCH   8  24
HETATM   24  C   UNL     1      -9.409  12.494  67.643  1.00  0.00    -0.189 A  
HETATM   25  C   UNL     1      -9.953  11.862  68.784  1.00  0.00    -0.105 A  
HETATM   26  C   UNL     1     -11.268  11.386  68.849  1.00  0.00    -0.310 A  
HETATM   27  C   UNL     1      -9.924  13.223  65.197  1.00  0.00    -0.174 C  
HETATM   28  C   UNL     1     -10.301  12.634  66.536  1.00  0.00    -0.256 A  
HETATM   29  C   UNL     1     -12.123  11.576  67.781  1.00  0.00     0.113 A  
HETATM   30  C   UNL     1     -11.649  12.208  66.642  1.00  0.00    -0.416 A  
ENDBRANCH   8  24
ENDBRANCH   2   5
BRANCH   3  31
HETATM   31  C   UNL     1      -6.751   8.415  66.592  1.00  0.00    -0.061 C  
HETATM   32  C   UNL     1      -5.726   8.086  67.722  1.00  0.00    -0.038 C  
HETATM   33  C   UNL     1      -6.036   7.952  65.299  1.00  0.00    -0.038 C  
BRANCH  31  34
HETATM   34  C   UNL     1      -8.040   7.626  66.928  1.00  0.00    -0.116 A  
HETATM   35  F   UNL     1     -11.092   8.661  69.850  1.00  0.00    -0.248 F  
HETATM   36  C   UNL     1      -9.628   5.810  66.446  1.00  0.00    -0.175 A  
HETATM   37  C   UNL     1     -10.079   4.680  65.549  1.00  0.00    -0.183 C  
HETATM   38  F   UNL     1      -9.790   7.248  70.874  1.00  0.00    -0.182 F  
HETATM   39  C   UNL     1      -8.508   6.586  66.105  1.00  0.00    -0.137 A  
HETATM   40  C   UNL     1     -10.305   6.082  67.642  1.00  0.00    -0.258 A  
HETATM   41  F   UNL     1     -11.361   4.840  65.121  1.00  0.00    -0.261 F  
HETATM   42  F   UNL     1     -10.033   3.472  66.170  1.00  0.00    -0.147 F  
HETATM   43  F   UNL     1      -9.325   4.554  64.423  1.00  0.00    -0.151 F  
HETATM   44  F   UNL     1     -11.663   6.570  70.004  1.00  0.00    -0.421 F  
HETATM   45  C   UNL     1      -9.880   7.117  68.486  1.00  0.00    -0.155 A  
HETATM   46  C   UNL     1      -8.757   7.885  68.115  1.00  0.00    -0.126 A  
HETATM   47  C   UNL     1     -10.598   7.394  69.791  1.00  0.00    -0.236 C  
ENDBRANCH  31  34
ENDBRANCH   3  31
TORSDOF 7
ENDMDL
MODEL       28
REMARK 921   NORMALIZED FREE ENERGY PREDICTED BY IDOCK:   -7.11 KCAL/MOL
REMARK 922        TOTAL FREE ENERGY PREDICTED BY IDOCK:  -10.66 KCAL/MOL
REMARK 923 INTER-LIGAND FREE ENERGY PREDICTED BY IDOCK:   -9.31 KCAL/MOL
REMARK 924 INTRA-LIGAND FREE ENERGY PREDICTED BY IDOCK:   -1.35 KCAL/MOL
REMARK 927      BINDING AFFINITY PREDICTED BY RF-SCORE:    0.00 PKD
ROOT
HETATM    1  C   UNL     1      -6.824  10.989  69.586  1.00  0.00    -0.129 C  
HETATM    2  N   UNL     1      -7.020  11.261  68.158  1.00  0.00    -0.067 N  
HETATM    3  C   UNL     1      -6.904  10.315  67.130  1.00  0.00    -0.082 C  
HETATM    4  O   UNL     1      -6.847  10.691  65.952  1.00  0.00    -0.129 OA 
ENDROOT
BRANCH   2   5
HETATM    5  C   UNL     1      -6.814  12.646  67.817  1.00  0.00    -0.128 A  
HETATM    6  C   UNL     1      -7.475  14.907  67.430  1.00  0.00    -0.228 A  
HETATM    7  C   UNL     1      -5.540  13.186  68.030  1.00  0.00    -0.110 A  
HETATM    8  C   UNL     1      -7.843  13.531  67.439  1.00  0.00    -0.157 A  
HETATM    9  C   UNL     1      -6.173  15.385  67.652  1.00  0.00    -0.142 A  
HETATM   10  N   UNL     1      -5.207  14.498  67.940  1.00  0.00    -0.251 NA 
BRANCH   9  11
HETATM   11  N   UNL     1      -5.836  16.725  67.598  1.00  0.00    -0.134 NA 
HETATM   12  C   UNL     1      -5.468  17.356  66.310  1.00  0.00    -0.178 C  
HETATM   13  N   UNL     1      -6.443  19.581  67.174  1.00  0.00    -0.194 N  
HETATM   14  C   UNL     1      -5.186  20.410  67.293  1.00  0.00    -0.165 C  
HETATM   15  C   UNL     1      -5.850  17.643  68.738  1.00  0.00    -0.174 C  
HETATM   16  C   UNL     1      -6.369  18.584  65.993  1.00  0.00    -0.221 C  
HETATM   17  C   UNL     1      -6.789  18.830  68.466  1.00  0.00    -0.264 C  
BRANCH  13  18
HETATM   18  C   UNL     1      -7.620  20.539  66.938  1.00  0.00    -0.277 C  
BRANCH  18  19
HETATM   19  O   UNL     1      -8.484  20.182  65.903  1.00  0.00    -0.265 OA 
HETATM   20  O   UNL     1     -10.100  20.461  67.856  1.00  0.00    -0.383 OA 
HETATM   21  O   UNL     1     -10.943  19.795  65.431  1.00  0.00    -0.414 OA 
HETATM   22  O   UNL     1      -9.615  18.227  66.769  1.00  0.00    -0.277 OA 
HETATM   23  P   UNL     1      -9.926  19.786  66.523  1.00  0.00    -0.529 P  
ENDBRANCH  18  19
ENDBRANCH  13  18
ENDBRANCH   9  11
BRANCH   8  24
HETATM   24  C   UNL     1      -9.267  13.141  67.106  1.00  0.00    -0.227 A  
HETATM   25  C   UNL     1      -9.536  12.324  65.985  1.00  0.00    -0.194 A  
HETATM   26  C   UNL     1     -10.825  11.920  65.616  1.00  0.00    -0.333 A  
HETATM   27  C   UNL     1     -10.371  14.446  69.071  1.00  0.00    -0.204 C  
HETATM   28  C   UNL     1     -10.410  13.531  67.869  1.00  0.00    -0.249 A  
HETATM   29  C   UNL     1     -11.908  12.273  66.397  1.00  0.00    -0.382 A  
HETATM   30  C   UNL     1     -11.700  13.057  67.522  1.00  0.00    -0.421 A  
ENDBRANCH   8  24
ENDBRANCH   2   5
BRANCH   3  31
HETATM   31  C   UNL     1      -6.841   8.775  67.445  1.00  0.00    -0.071 C  
HETATM   32  C   UNL     1      -5.516   8.483  68.217  1.00  0.00    -0.034 C  
HETATM   33  C   UNL     1      -6.699   7.945  66.145  1.00  0.00    -0.054 C  
BRANCH  31  34
HETATM   34  C   UNL     1      -7.995   8.321  68.371  1.00  0.00    -0.119 A  
HETATM   35  F   UNL     1     -12.005   9.990  68.613  1.00  0.00    -0.046 F  
HETATM   36  C   UNL     1      -8.951   6.725  69.981  1.00  0.00    -0.141 A  
HETATM   37  C   UNL     1      -8.845   5.422  70.740  1.00  0.00    -0.133 C  
HETATM   38  F   UNL     1     -10.900  10.950  70.225  1.00  0.00    -0.295 F  
HETATM   39  C   UNL     1      -7.947   7.104  69.073  1.00  0.00    -0.120 A  
HETATM   40  C   UNL     1     -10.038   7.584  70.190  1.00  0.00    -0.195 A  
HETATM   41  F   UNL     1      -9.905   4.601  70.507  1.00  0.00    -0.231 F  
HETATM   42  F   UNL     1      -8.792   5.606  72.085  1.00  0.00    -0.133 F  
HETATM   43  F   UNL     1      -7.738   4.699  70.414  1.00  0.00    -0.051 F  
HETATM   44  F   UNL     1     -12.194   9.256  70.651  1.00  0.00    -0.288 F  
HETATM   45  C   UNL     1     -10.131   8.801  69.502  1.00  0.00    -0.202 A  
HETATM   46  C   UNL     1      -9.113   9.153  68.592  1.00  0.00    -0.136 A  
HETATM   47  C   UNL     1     -11.295   9.740  69.747  1.00  0.00    -0.158 C  
ENDBRANCH  31  34
ENDBRANCH   3  31
TORSDOF 7
ENDMDL
MODEL       29
REMARK 921   NORMALIZED FREE ENERGY PREDICTED BY IDOCK:   -7.07 KCAL/MOL
REMARK 922        TOTAL FREE ENERGY PREDICTED BY IDOCK:  -10.60 KCAL/MOL
REMARK 923 INTER-LIGAND FREE ENERGY PREDICTED BY IDOCK:  -10.02 KCAL/MOL
REMARK 924 INTRA-LIGAND FREE ENERGY PREDICTED BY IDOCK:   -0.58 KCAL/MOL
REMARK 927      BINDING AFFINITY PREDICTED BY RF-SCORE:    0.00 PKD
ROOT
HETATM    1  C   UNL     1     -11.650  12.040  68.134  1.00  0.00    -0.340 C  
HETATM    2  N   UNL     1     -10.577  11.983  67.135  1.00  0.00    -0.219 N  
HETATM    3  C   UNL     1     -10.480  12.804  66.003  1.00  0.00    -0.274 C  
HETATM    4  O   UNL     1      -9.681  12.518  65.102  1.00  0.00    -0.161 OA 
ENDROOT
BRANCH   2   5
HETATM    5  C   UNL     1      -9.923  10.700  67.087  1.00  0.00    -0.195 A  
HETATM    6  C   UNL     1      -8.211   9.117  67.600  1.00  0.00    -0.108 A  
HETATM    7  C   UNL     1     -10.715   9.574  66.834  1.00  0.00    -0.114 A  
HETATM    8  C   UNL     1      -8.575  10.484  67.436  1.00  0.00    -0.122 A  
HETATM    9  C   UNL     1      -9.057   8.029  67.327  1.00  0.00    -0.135 A  
HETATM   10  N   UNL     1     -10.314   8.282  66.927  1.00  0.00    -0.321 NA 
BRANCH   9  11
HETATM   11  N   UNL     1      -8.664   6.710  67.456  1.00  0.00    -0.119 NA 
HETATM   12  C   UNL     1      -7.351   6.371  68.051  1.00  0.00    -0.089 C  
HETATM   13  N   UNL     1      -8.373   4.180  68.946  1.00  0.00    -0.077 N  
HETATM   14  C   UNL     1      -7.625   3.163  68.116  1.00  0.00    -0.053 C  
HETATM   15  C   UNL     1      -9.477   5.550  67.085  1.00  0.00    -0.122 C  
HETATM   16  C   UNL     1      -7.501   5.416  69.270  1.00  0.00    -0.073 C  
HETATM   17  C   UNL     1      -9.689   4.629  68.298  1.00  0.00    -0.131 C  
BRANCH  13  18
HETATM   18  C   UNL     1      -8.783   3.505  70.264  1.00  0.00    -0.067 C  
BRANCH  18  19
HETATM   19  O   UNL     1     -10.034   3.872  70.759  1.00  0.00    -0.179 OA 
HETATM   20  O   UNL     1      -8.474   4.781  72.560  1.00  0.00    -0.113 OA 
HETATM   21  O   UNL     1     -11.105   5.079  72.713  1.00  0.00    -0.247 OA 
HETATM   22  O   UNL     1     -10.081   2.865  72.959  1.00  0.00    -0.120 OA 
HETATM   23  P   UNL     1      -9.885   4.323  72.306  1.00  0.00    -0.177 P  
ENDBRANCH  18  19
ENDBRANCH  13  18
ENDBRANCH   9  11
BRANCH   8  24
HETATM   24  C   UNL     1      -7.544  11.562  67.689  1.00  0.00    -0.115 A  
HETATM   25  C   UNL     1      -7.784  12.561  68.660  1.00  0.00    -0.063 A  
HETATM   26  C   UNL     1      -6.878  13.588  68.952  1.00  0.00    -0.111 A  
HETATM   27  C   UNL     1      -5.840  10.732  65.904  1.00  0.00    -0.142 C  
HETATM   28  C   UNL     1      -6.288  11.653  67.015  1.00  0.00    -0.149 A  
HETATM   29  C   UNL     1      -5.651  13.625  68.318  1.00  0.00    -0.104 A  
HETATM   30  C   UNL     1      -5.353  12.657  67.371  1.00  0.00    -0.058 A  
ENDBRANCH   8  24
ENDBRANCH   2   5
BRANCH   3  31
HETATM   31  C   UNL     1     -11.375  14.090  65.852  1.00  0.00    -0.317 C  
HETATM   32  C   UNL     1     -12.872  13.668  65.991  1.00  0.00    -0.242 C  
HETATM   33  C   UNL     1     -11.286  14.664  64.416  1.00  0.00    -0.238 C  
BRANCH  31  34
HETATM   34  C   UNL     1     -11.105  15.123  66.972  1.00  0.00    -0.328 A  
HETATM   35  F   UNL     1     -11.550  14.553  71.262  1.00  0.00    -0.354 F  
HETATM   36  C   UNL     1     -10.235  17.301  67.715  1.00  0.00    -0.332 A  
HETATM   37  C   UNL     1      -9.508  18.588  67.398  1.00  0.00    -0.283 C  
HETATM   38  F   UNL     1     -13.400  15.511  70.628  1.00  0.00    -0.473 F  
HETATM   39  C   UNL     1     -10.410  16.319  66.724  1.00  0.00    -0.296 A  
HETATM   40  C   UNL     1     -10.765  17.080  68.992  1.00  0.00    -0.271 A  
HETATM   41  F   UNL     1      -8.421  18.777  68.195  1.00  0.00    -0.286 F  
HETATM   42  F   UNL     1     -10.295  19.684  67.561  1.00  0.00    -0.442 F  
HETATM   43  F   UNL     1      -9.045  18.643  66.119  1.00  0.00    -0.303 F  
HETATM   44  F   UNL     1     -11.813  16.695  71.525  1.00  0.00    -0.427 F  
HETATM   45  C   UNL     1     -11.456  15.895  69.286  1.00  0.00    -0.374 A  
HETATM   46  C   UNL     1     -11.610  14.924  68.275  1.00  0.00    -0.356 A  
HETATM   47  C   UNL     1     -12.049  15.668  70.661  1.00  0.00    -0.405 C  
ENDBRANCH  31  34
ENDBRANCH   3  31
TORSDOF 7
ENDMDL
MODEL       30
REMARK 921   NORMALIZED FREE ENERGY PREDICTED BY IDOCK:   -7.06 KCAL/MOL
REMARK 922        TOTAL FREE ENERGY PREDICTED BY IDOCK:  -10.59 KCAL/MOL
REMARK 923 INTER-LIGAND FREE ENERGY PREDICTED BY IDOCK:   -8.59 KCAL/MOL
REMARK 924 INTRA-LIGAND FREE ENERGY PREDICTED BY IDOCK:   -2.00 KCAL/MOL
REMARK 927      BINDING AFFINITY PREDICTED BY RF-SCORE:    0.00 PKD
ROOT
HETATM    1  C   UNL     1      -5.340   9.786  68.540  1.00  0.00    -0.032 C  
HETATM    2  N   UNL     1      -6.441  10.376  69.309  1.00  0.00    -0.047 N  
HETATM    3  C   UNL     1      -7.189   9.710  70.290  1.00  0.00    -0.135 C  
HETATM    4  O   UNL     1      -8.244  10.210  70.704  1.00  0.00    -0.001 OA 
ENDROOT
BRANCH   2   5
HETATM    5  C   UNL     1      -7.060  11.491  68.639  1.00  0.00    -0.098 A  
HETATM    6  C   UNL     1      -8.792  12.612  67.438  1.00  0.00    -0.189 A  
HETATM    7  C   UNL     1      -6.653  12.779  69.008  1.00  0.00    -0.099 A  
HETATM    8  C   UNL     1      -8.154  11.380  67.759  1.00  0.00    -0.121 A  
HETATM    9  C   UNL     1      -8.331  13.876  67.841  1.00  0.00    -0.167 A  
HETATM   10  N   UNL     1      -7.240  13.940  68.623  1.00  0.00    -0.104 NA 
BRANCH   9  11
HETATM   11  N   UNL     1      -8.947  15.061  67.482  1.00  0.00    -0.177 NA 
HETATM   12  C   UNL     1      -9.865  15.746  68.421  1.00  0.00    -0.206 C  
HETATM   13  N   UNL     1      -9.157  18.002  67.393  1.00  0.00    -0.248 N  
HETATM   14  C   UNL     1     -10.443  18.418  66.719  1.00  0.00    -0.385 C  
HETATM   15  C   UNL     1      -8.739  15.767  66.216  1.00  0.00    -0.323 C  
HETATM   16  C   UNL     1      -9.417  17.210  68.696  1.00  0.00    -0.275 C  
HETATM   17  C   UNL     1      -8.233  17.196  66.471  1.00  0.00    -0.273 C  
BRANCH  13  18
HETATM   18  C   UNL     1      -8.370  19.276  67.737  1.00  0.00    -0.300 C  
BRANCH  18  19
HETATM   19  O   UNL     1      -8.061  19.441  69.087  1.00  0.00    -0.320 OA 
HETATM   20  O   UNL     1      -5.990  20.409  67.957  1.00  0.00    -0.225 OA 
HETATM   21  O   UNL     1      -6.242  20.354  70.597  1.00  0.00    -0.516 OA 
HETATM   22  O   UNL     1      -5.954  18.278  69.325  1.00  0.00    -0.218 OA 
HETATM   23  P   UNL     1      -6.489  19.792  69.236  1.00  0.00    -0.344 P  
ENDBRANCH  18  19
ENDBRANCH  13  18
ENDBRANCH   9  11
BRANCH   8  24
HETATM   24  C   UNL     1      -8.708  10.089  67.196  1.00  0.00    -0.132 A  
HETATM   25  C   UNL     1      -9.730   9.395  67.883  1.00  0.00    -0.177 A  
HETATM   26  C   UNL     1     -10.294   8.198  67.424  1.00  0.00    -0.351 A  
HETATM   27  C   UNL     1      -7.167  10.024  65.098  1.00  0.00    -0.139 C  
HETATM   28  C   UNL     1      -8.280   9.493  65.970  1.00  0.00    -0.115 A  
HETATM   29  C   UNL     1      -9.894   7.669  66.212  1.00  0.00    -0.080 A  
HETATM   30  C   UNL     1      -8.909   8.319  65.485  1.00  0.00    -0.152 A  
ENDBRANCH   8  24
ENDBRANCH   2   5
BRANCH   3  31
HETATM   31  C   UNL     1      -6.716   8.330  70.879  1.00  0.00    -0.040 C  
HETATM   32  C   UNL     1      -6.580   8.475  72.427  1.00  0.00    -0.091 C  
HETATM   33  C   UNL     1      -5.278   7.989  70.413  1.00  0.00    -0.023 C  
BRANCH  31  34
HETATM   34  C   UNL     1      -7.751   7.206  70.634  1.00  0.00    -0.094 A  
HETATM   35  F   UNL     1      -7.238   3.610  68.241  1.00  0.00    -0.049 F  
HETATM   36  C   UNL     1      -9.908   6.133  71.132  1.00  0.00    -0.210 A  
HETATM   37  C   UNL     1     -11.169   6.071  71.963  1.00  0.00    -0.288 C  
HETATM   38  F   UNL     1      -8.246   5.020  66.924  1.00  0.00    -0.106 F  
HETATM   39  C   UNL     1      -8.923   7.098  71.403  1.00  0.00    -0.135 A  
HETATM   40  C   UNL     1      -9.716   5.246  70.065  1.00  0.00    -0.263 A  
HETATM   41  F   UNL     1     -11.333   4.862  72.565  1.00  0.00    -0.260 F  
HETATM   42  F   UNL     1     -12.291   6.285  71.226  1.00  0.00    -0.342 F  
HETATM   43  F   UNL     1     -11.197   6.992  72.966  1.00  0.00    -0.283 F  
HETATM   44  F   UNL     1      -9.389   3.485  67.955  1.00  0.00    -0.165 F  
HETATM   45  C   UNL     1      -8.556   5.311  69.280  1.00  0.00    -0.102 A  
HETATM   46  C   UNL     1      -7.581   6.285  69.578  1.00  0.00    -0.094 A  
HETATM   47  C   UNL     1      -8.361   4.367  68.111  1.00  0.00    -0.093 C  
ENDBRANCH  31  34
ENDBRANCH   3  31
TORSDOF 7
ENDMDL
MODEL       31
REMARK 921   NORMALIZED FREE ENERGY PREDICTED BY IDOCK:   -7.04 KCAL/MOL
REMARK 922        TOTAL FREE ENERGY PREDICTED BY IDOCK:  -10.56 KCAL/MOL
REMARK 923 INTER-LIGAND FREE ENERGY PREDICTED BY IDOCK:   -9.78 KCAL/MOL
REMARK 924 INTRA-LIGAND FREE ENERGY PREDICTED BY IDOCK:   -0.79 KCAL/MOL
REMARK 927      BINDING AFFINITY PREDICTED BY RF-SCORE:    0.00 PKD
ROOT
HETATM    1  C   UNL     1     -11.664  11.870  67.286  1.00  0.00    -0.247 C  
HETATM    2  N   UNL     1     -10.625  11.539  68.269  1.00  0.00    -0.191 N  
HETATM    3  C   UNL     1      -9.350  12.119  68.323  1.00  0.00    -0.198 C  
HETATM    4  O   UNL     1      -8.471  11.604  69.026  1.00  0.00    -0.003 OA 
ENDROOT
BRANCH   2   5
HETATM    5  C   UNL     1     -10.787  10.224  68.835  1.00  0.00    -0.228 A  
HETATM    6  C   UNL     1     -10.155   7.969  69.300  1.00  0.00    -0.198 A  
HETATM    7  C   UNL     1     -11.601  10.098  69.966  1.00  0.00    -0.253 A  
HETATM    8  C   UNL     1     -10.057   9.091  68.426  1.00  0.00    -0.216 A  
HETATM    9  C   UNL     1     -10.996   7.906  70.423  1.00  0.00    -0.249 A  
HETATM   10  N   UNL     1     -11.729   8.987  70.734  1.00  0.00    -0.270 NA 
BRANCH   9  11
HETATM   11  N   UNL     1     -11.102   6.789  71.231  1.00  0.00    -0.252 NA 
HETATM   12  C   UNL     1     -11.004   5.430  70.652  1.00  0.00    -0.034 C  
HETATM   13  N   UNL     1      -9.983   4.607  72.871  1.00  0.00    -0.146 N  
HETATM   14  C   UNL     1     -11.087   3.703  73.369  1.00  0.00    -0.198 C  
HETATM   15  C   UNL     1     -11.265   6.816  72.686  1.00  0.00    -0.255 C  
HETATM   16  C   UNL     1      -9.878   4.596  71.328  1.00  0.00    -0.190 C  
HETATM   17  C   UNL     1     -10.121   6.050  73.372  1.00  0.00    -0.198 C  
BRANCH  13  18
HETATM   18  C   UNL     1      -8.657   4.102  73.460  1.00  0.00    -0.092 C  
BRANCH  18  19
HETATM   19  O   UNL     1      -7.644   3.861  72.533  1.00  0.00    -0.061 OA 
HETATM   20  O   UNL     1      -6.375   5.065  74.388  1.00  0.00    -0.059 OA 
HETATM   21  O   UNL     1      -5.157   4.207  72.193  1.00  0.00     0.000 OA 
HETATM   22  O   UNL     1      -6.752   6.066  72.093  1.00  0.00    -0.064 OA 
HETATM   23  P   UNL     1      -6.345   4.746  72.917  1.00  0.00    -0.045 P  
ENDBRANCH  18  19
ENDBRANCH  13  18
ENDBRANCH   9  11
BRANCH   8  24
HETATM   24  C   UNL     1      -9.171   9.003  67.203  1.00  0.00    -0.164 A  
HETATM   25  C   UNL     1      -9.710   9.237  65.917  1.00  0.00    -0.355 A  
HETATM   26  C   UNL     1      -8.953   9.177  64.740  1.00  0.00    -0.177 A  
HETATM   27  C   UNL     1      -6.997   8.368  68.488  1.00  0.00    -0.069 C  
HETATM   28  C   UNL     1      -7.774   8.707  67.237  1.00  0.00    -0.097 A  
HETATM   29  C   UNL     1      -7.595   8.934  64.806  1.00  0.00    -0.106 A  
HETATM   30  C   UNL     1      -7.008   8.718  66.044  1.00  0.00    -0.080 A  
ENDBRANCH   8  24
ENDBRANCH   2   5
BRANCH   3  31
HETATM   31  C   UNL     1      -9.010  13.417  67.502  1.00  0.00    -0.207 C  
HETATM   32  C   UNL     1      -9.396  13.172  66.009  1.00  0.00    -0.023 C  
HETATM   33  C   UNL     1      -7.481  13.660  67.452  1.00  0.00    -0.139 C  
BRANCH  31  34
HETATM   34  C   UNL     1      -9.837  14.638  67.973  1.00  0.00    -0.216 A  
HETATM   35  F   UNL     1     -10.759  18.240  65.714  1.00  0.00    -0.423 F  
HETATM   36  C   UNL     1     -11.312  15.723  69.615  1.00  0.00    -0.334 A  
HETATM   37  C   UNL     1     -12.126  15.641  70.887  1.00  0.00    -0.407 C  
HETATM   38  F   UNL     1      -9.028  18.765  66.926  1.00  0.00    -0.268 F  
HETATM   39  C   UNL     1     -10.627  14.594  69.134  1.00  0.00    -0.247 A  
HETATM   40  C   UNL     1     -11.210  16.930  68.913  1.00  0.00    -0.016 A  
HETATM   41  F   UNL     1     -13.432  15.965  70.686  1.00  0.00    -0.427 F  
HETATM   42  F   UNL     1     -11.669  16.481  71.852  1.00  0.00    -0.512 F  
HETATM   43  F   UNL     1     -12.133  14.398  71.441  1.00  0.00    -0.365 F  
HETATM   44  F   UNL     1     -11.022  19.342  67.569  1.00  0.00    -0.537 F  
HETATM   45  C   UNL     1     -10.442  17.015  67.743  1.00  0.00    -0.349 A  
HETATM   46  C   UNL     1      -9.771  15.865  67.280  1.00  0.00    -0.224 A  
HETATM   47  C   UNL     1     -10.313  18.328  66.997  1.00  0.00    -0.389 C  
ENDBRANCH  31  34
ENDBRANCH   3  31
TORSDOF 7
ENDMDL
MODEL       32
REMARK 921   NORMALIZED FREE ENERGY PREDICTED BY IDOCK:   -7.03 KCAL/MOL
REMARK 922        TOTAL FREE ENERGY PREDICTED BY IDOCK:  -10.55 KCAL/MOL
REMARK 923 INTER-LIGAND FREE ENERGY PREDICTED BY IDOCK:  -10.77 KCAL/MOL
REMARK 924 INTRA-LIGAND FREE ENERGY PREDICTED BY IDOCK:    0.23 KCAL/MOL
REMARK 927      BINDING AFFINITY PREDICTED BY RF-SCORE:    0.00 PKD
ROOT
HETATM    1  C   UNL     1      -8.326  13.836  67.062  1.00  0.00    -0.087 C  
HETATM    2  N   UNL     1      -9.323  12.785  66.824  1.00  0.00    -0.236 N  
HETATM    3  C   UNL     1     -10.679  13.005  66.547  1.00  0.00    -0.278 C  
HETATM    4  O   UNL     1     -11.479  12.061  66.605  1.00  0.00    -0.339 OA 
ENDROOT
BRANCH   2   5
HETATM    5  C   UNL     1      -8.956  11.522  67.412  1.00  0.00    -0.156 A  
HETATM    6  C   UNL     1      -8.019   9.326  67.425  1.00  0.00    -0.106 A  
HETATM    7  C   UNL     1      -8.758  11.480  68.796  1.00  0.00    -0.044 A  
HETATM    8  C   UNL     1      -8.629  10.369  66.671  1.00  0.00    -0.128 A  
HETATM    9  C   UNL     1      -7.850   9.346  68.820  1.00  0.00    -0.084 A  
HETATM   10  N   UNL     1      -8.243  10.438  69.495  1.00  0.00    -0.155 NA 
BRANCH   9  11
HETATM   11  N   UNL     1      -7.291   8.301  69.532  1.00  0.00    -0.072 NA 
HETATM   12  C   UNL     1      -6.550   8.560  70.789  1.00  0.00    -0.041 C  
HETATM   13  N   UNL     1      -7.307   6.253  71.655  1.00  0.00    -0.087 N  
HETATM   14  C   UNL     1      -5.986   5.520  71.690  1.00  0.00    -0.029 C  
HETATM   15  C   UNL     1      -7.401   6.885  69.176  1.00  0.00    -0.093 C  
HETATM   16  C   UNL     1      -7.143   7.756  71.981  1.00  0.00    -0.069 C  
HETATM   17  C   UNL     1      -8.046   6.088  70.321  1.00  0.00    -0.111 C  
BRANCH  13  18
HETATM   18  C   UNL     1      -8.228   5.616  72.707  1.00  0.00    -0.112 C  
BRANCH  18  19
HETATM   19  O   UNL     1      -9.477   5.208  72.239  1.00  0.00    -0.137 OA 
HETATM   20  O   UNL     1     -10.060   7.370  73.459  1.00  0.00    -0.297 OA 
HETATM   21  O   UNL     1     -11.908   5.924  72.222  1.00  0.00    -0.303 OA 
HETATM   22  O   UNL     1     -10.815   5.086  74.251  1.00  0.00    -0.320 OA 
HETATM   23  P   UNL     1     -10.632   6.061  72.984  1.00  0.00    -0.268 P  
ENDBRANCH  18  19
ENDBRANCH  13  18
ENDBRANCH   9  11
BRANCH   8  24
HETATM   24  C   UNL     1      -8.823  10.191  65.181  1.00  0.00    -0.207 A  
HETATM   25  C   UNL     1      -9.743  11.005  64.482  1.00  0.00    -0.323 A  
HETATM   26  C   UNL     1      -9.975  10.901  63.104  1.00  0.00    -0.368 A  
HETATM   27  C   UNL     1      -7.130   8.230  64.919  1.00  0.00    -0.079 C  
HETATM   28  C   UNL     1      -8.116   9.240  64.382  1.00  0.00    -0.142 A  
HETATM   29  C   UNL     1      -9.244  10.005  62.349  1.00  0.00    -0.319 A  
HETATM   30  C   UNL     1      -8.313   9.194  62.979  1.00  0.00    -0.196 A  
ENDBRANCH   8  24
ENDBRANCH   2   5
BRANCH   3  31
HETATM   31  C   UNL     1     -11.211  14.436  66.166  1.00  0.00    -0.336 C  
HETATM   32  C   UNL     1     -12.749  14.340  65.919  1.00  0.00    -0.310 C  
HETATM   33  C   UNL     1     -10.646  14.894  64.798  1.00  0.00    -0.336 C  
BRANCH  31  34
HETATM   34  C   UNL     1     -11.014  15.456  67.313  1.00  0.00    -0.317 A  
HETATM   35  F   UNL     1     -11.349  14.728  71.589  1.00  0.00    -0.376 F  
HETATM   36  C   UNL     1     -10.321  17.678  68.110  1.00  0.00    -0.386 A  
HETATM   37  C   UNL     1      -9.711  19.031  67.823  1.00  0.00    -0.325 C  
HETATM   38  F   UNL     1     -13.282  15.543  71.005  1.00  0.00    -0.463 F  
HETATM   39  C   UNL     1     -10.426  16.714  67.093  1.00  0.00    -0.300 A  
HETATM   40  C   UNL     1     -10.813  17.376  69.387  1.00  0.00     0.275 A  
HETATM   41  F   UNL     1      -8.633  19.289  68.613  1.00  0.00    -0.360 F  
HETATM   42  F   UNL     1     -10.586  20.051  68.027  1.00  0.00    -0.522 F  
HETATM   43  F   UNL     1      -9.272  19.161  66.541  1.00  0.00    -0.296 F  
HETATM   44  F   UNL     1     -11.789  16.831  71.919  1.00  0.00    -0.462 F  
HETATM   45  C   UNL     1     -11.396  16.129  69.653  1.00  0.00    -0.316 A  
HETATM   46  C   UNL     1     -11.482  15.178  68.615  1.00  0.00    -0.341 A  
HETATM   47  C   UNL     1     -11.949  15.813  71.027  1.00  0.00    -0.419 C  
ENDBRANCH  31  34
ENDBRANCH   3  31
TORSDOF 7
ENDMDL
MODEL       33
REMARK 921   NORMALIZED FREE ENERGY PREDICTED BY IDOCK:   -7.03 KCAL/MOL
REMARK 922        TOTAL FREE ENERGY PREDICTED BY IDOCK:  -10.55 KCAL/MOL
REMARK 923 INTER-LIGAND FREE ENERGY PREDICTED BY IDOCK:   -9.07 KCAL/MOL
REMARK 924 INTRA-LIGAND FREE ENERGY PREDICTED BY IDOCK:   -1.48 KCAL/MOL
REMARK 927      BINDING AFFINITY PREDICTED BY RF-SCORE:    0.00 PKD
ROOT
HETATM    1  C   UNL     1      -7.795   8.987  68.681  1.00  0.00    -0.101 C  
HETATM    2  N   UNL     1      -9.073   9.404  68.093  1.00  0.00    -0.128 N  
HETATM    3  C   UNL     1      -9.969   8.561  67.422  1.00  0.00    -0.214 C  
HETATM    4  O   UNL     1     -10.891   9.049  66.756  1.00  0.00    -0.116 OA 
ENDROOT
BRANCH   2   5
HETATM    5  C   UNL     1      -9.111  10.809  67.774  1.00  0.00    -0.151 A  
HETATM    6  C   UNL     1      -9.044  12.709  66.330  1.00  0.00    -0.114 A  
HETATM    7  C   UNL     1      -9.790  11.658  68.656  1.00  0.00    -0.165 A  
HETATM    8  C   UNL     1      -8.652  11.359  66.562  1.00  0.00    -0.175 A  
HETATM    9  C   UNL     1      -9.727  13.511  67.260  1.00  0.00    -0.236 A  
HETATM   10  N   UNL     1     -10.082  12.965  68.435  1.00  0.00    -0.236 NA 
BRANCH   9  11
HETATM   11  N   UNL     1     -10.060  14.832  67.026  1.00  0.00    -0.243 NA 
HETATM   12  C   UNL     1     -10.822  15.605  68.033  1.00  0.00    -0.308 C  
HETATM   13  N   UNL     1      -9.614  17.740  67.239  1.00  0.00    -0.267 N  
HETATM   14  C   UNL     1     -10.763  18.496  66.615  1.00  0.00    -0.233 C  
HETATM   15  C   UNL     1      -9.676  15.598  65.838  1.00  0.00    -0.353 C  
HETATM   16  C   UNL     1     -10.068  16.898  68.455  1.00  0.00    -0.297 C  
HETATM   17  C   UNL     1      -8.872  16.847  66.237  1.00  0.00    -0.279 C  
BRANCH  13  18
HETATM   18  C   UNL     1      -8.573  18.767  67.709  1.00  0.00    -0.283 C  
BRANCH  18  19
HETATM   19  O   UNL     1      -7.850  18.408  68.847  1.00  0.00    -0.288 OA 
HETATM   20  O   UNL     1      -6.814  20.664  68.263  1.00  0.00    -0.258 OA 
HETATM   21  O   UNL     1      -6.013  19.263  70.368  1.00  0.00    -0.234 OA 
HETATM   22  O   UNL     1      -5.552  18.475  68.093  1.00  0.00    -0.174 OA 
HETATM   23  P   UNL     1      -6.554  19.367  68.981  1.00  0.00    -0.335 P  
ENDBRANCH  18  19
ENDBRANCH  13  18
ENDBRANCH   9  11
BRANCH   8  24
HETATM   24  C   UNL     1      -7.850  10.628  65.506  1.00  0.00    -0.099 A  
HETATM   25  C   UNL     1      -6.461  10.435  65.678  1.00  0.00    -0.125 A  
HETATM   26  C   UNL     1      -5.654   9.767  64.748  1.00  0.00    -0.074 A  
HETATM   27  C   UNL     1      -9.847  10.213  63.887  1.00  0.00    -0.129 C  
HETATM   28  C   UNL     1      -8.402  10.080  64.308  1.00  0.00    -0.169 A  
HETATM   29  C   UNL     1      -6.221   9.207  63.620  1.00  0.00    -0.089 A  
HETATM   30  C   UNL     1      -7.584   9.348  63.411  1.00  0.00    -0.114 A  
ENDBRANCH   8  24
ENDBRANCH   2   5
BRANCH   3  31
HETATM   31  C   UNL     1      -9.824   6.996  67.495  1.00  0.00    -0.186 C  
HETATM   32  C   UNL     1      -8.429   6.602  66.914  1.00  0.00    -0.115 C  
HETATM   33  C   UNL     1     -10.829   6.298  66.545  1.00  0.00    -0.137 C  
BRANCH  31  34
HETATM   34  C   UNL     1      -9.853   6.475  68.953  1.00  0.00    -0.142 A  
HETATM   35  F   UNL     1      -6.816   4.112  70.981  1.00  0.00    -0.029 F  
HETATM   36  C   UNL     1     -10.873   6.426  71.190  1.00  0.00    -0.308 A  
HETATM   37  C   UNL     1     -11.911   6.946  72.159  1.00  0.00    -0.281 C  
HETATM   38  F   UNL     1      -8.283   2.661  70.283  1.00  0.00    -0.047 F  
HETATM   39  C   UNL     1     -10.784   6.953  69.891  1.00  0.00    -0.278 A  
HETATM   40  C   UNL     1     -10.004   5.394  71.566  1.00  0.00    -0.237 A  
HETATM   41  F   UNL     1     -11.352   7.444  73.296  1.00  0.00    -0.348 F  
HETATM   42  F   UNL     1     -12.785   5.983  72.554  1.00  0.00    -0.236 F  
HETATM   43  F   UNL     1     -12.667   7.955  71.646  1.00  0.00    -0.300 F  
HETATM   44  F   UNL     1      -8.320   3.340  72.347  1.00  0.00    -0.073 F  
HETATM   45  C   UNL     1      -9.052   4.895  70.666  1.00  0.00    -0.174 A  
HETATM   46  C   UNL     1      -8.981   5.448  69.370  1.00  0.00    -0.124 A  
HETATM   47  C   UNL     1      -8.129   3.763  71.066  1.00  0.00    -0.066 C  
ENDBRANCH  31  34
ENDBRANCH   3  31
TORSDOF 7
ENDMDL
MODEL       34
REMARK 921   NORMALIZED FREE ENERGY PREDICTED BY IDOCK:   -7.02 KCAL/MOL
REMARK 922        TOTAL FREE ENERGY PREDICTED BY IDOCK:  -10.54 KCAL/MOL
REMARK 923 INTER-LIGAND FREE ENERGY PREDICTED BY IDOCK:   -7.64 KCAL/MOL
REMARK 924 INTRA-LIGAND FREE ENERGY PREDICTED BY IDOCK:   -2.90 KCAL/MOL
REMARK 927      BINDING AFFINITY PREDICTED BY RF-SCORE:    0.00 PKD
ROOT
HETATM    1  C   UNL     1      -7.234  13.000  69.928  1.00  0.00     0.853 C  
HETATM    2  N   UNL     1      -6.615  13.229  68.617  1.00  0.00    -0.084 N  
HETATM    3  C   UNL     1      -6.404  14.485  68.031  1.00  0.00    -0.154 C  
HETATM    4  O   UNL     1      -6.103  14.561  66.832  1.00  0.00     0.301 OA 
ENDROOT
BRANCH   2   5
HETATM    5  C   UNL     1      -6.722  12.091  67.740  1.00  0.00    -0.096 A  
HETATM    6  C   UNL     1      -7.635  10.818  65.938  1.00  0.00    -0.106 A  
HETATM    7  C   UNL     1      -5.580  11.304  67.553  1.00  0.00    -0.047 A  
HETATM    8  C   UNL     1      -7.845  11.812  66.937  1.00  0.00    -0.141 A  
HETATM    9  C   UNL     1      -6.460  10.060  65.804  1.00  0.00    -0.099 A  
HETATM   10  N   UNL     1      -5.438  10.311  66.639  1.00  0.00    -0.045 NA 
BRANCH   9  11
HETATM   11  N   UNL     1      -6.297   9.072  64.850  1.00  0.00    -0.065 NA 
HETATM   12  C   UNL     1      -5.354   7.954  65.079  1.00  0.00    -0.029 C  
HETATM   13  N   UNL     1      -6.879   6.437  63.660  1.00  0.00    -0.043 N  
HETATM   14  C   UNL     1      -5.994   6.194  62.459  1.00  0.00    -0.026 C  
HETATM   15  C   UNL     1      -7.036   8.992  63.589  1.00  0.00    -0.089 C  
HETATM   16  C   UNL     1      -6.060   6.573  64.965  1.00  0.00    -0.037 C  
HETATM   17  C   UNL     1      -7.793   7.657  63.490  1.00  0.00    -0.124 C  
BRANCH  13  18
HETATM   18  C   UNL     1      -7.830   5.238  63.795  1.00  0.00    -0.091 C  
BRANCH  18  19
HETATM   19  O   UNL     1      -8.541   5.172  64.993  1.00  0.00    -0.143 OA 
HETATM   20  O   UNL     1      -8.460   2.719  64.301  1.00  0.00    -0.085 OA 
HETATM   21  O   UNL     1      -9.642   3.497  66.543  1.00  0.00    -0.181 OA 
HETATM   22  O   UNL     1     -10.600   4.070  64.360  1.00  0.00    -0.251 OA 
HETATM   23  P   UNL     1      -9.230   3.714  65.126  1.00  0.00    -0.165 P  
ENDBRANCH  18  19
ENDBRANCH  13  18
ENDBRANCH   9  11
BRANCH   8  24
HETATM   24  C   UNL     1      -9.188  12.504  67.024  1.00  0.00    -0.214 A  
HETATM   25  C   UNL     1      -9.403  13.725  66.345  1.00  0.00    -0.215 A  
HETATM   26  C   UNL     1     -10.618  14.422  66.376  1.00  0.00    -0.297 A  
HETATM   27  C   UNL     1     -10.297  10.748  68.595  1.00  0.00    -0.208 C  
HETATM   28  C   UNL     1     -10.310  12.001  67.751  1.00  0.00    -0.210 A  
HETATM   29  C   UNL     1     -11.701  13.889  67.048  1.00  0.00    -0.426 A  
HETATM   30  C   UNL     1     -11.553  12.683  67.715  1.00  0.00    -0.403 A  
ENDBRANCH   8  24
ENDBRANCH   2   5
BRANCH   3  31
HETATM   31  C   UNL     1      -6.544  15.809  68.869  1.00  0.00    -0.119 C  
HETATM   32  C   UNL     1      -5.598  16.886  68.252  1.00  0.00    -0.122 C  
HETATM   33  C   UNL     1      -6.000  15.619  70.307  1.00  0.00    -0.102 C  
BRANCH  31  34
HETATM   34  C   UNL     1      -7.976  16.393  68.799  1.00  0.00    -0.233 A  
HETATM   35  F   UNL     1      -9.552  19.193  65.866  1.00  0.00    -0.347 F  
HETATM   36  C   UNL     1     -10.314  16.433  69.561  1.00  0.00    -0.278 A  
HETATM   37  C   UNL     1     -11.415  15.843  70.413  1.00  0.00    -0.378 C  
HETATM   38  F   UNL     1      -8.979  20.425  67.567  1.00  0.00    -0.399 F  
HETATM   39  C   UNL     1      -9.033  15.856  69.554  1.00  0.00    -0.135 A  
HETATM   40  C   UNL     1     -10.550  17.577  68.788  1.00  0.00    -0.241 A  
HETATM   41  F   UNL     1     -12.496  15.470  69.675  1.00  0.00    -0.346 F  
HETATM   42  F   UNL     1     -11.875  16.715  71.348  1.00  0.00    -0.407 F  
HETATM   43  F   UNL     1     -11.030  14.729  71.094  1.00  0.00    -0.241 F  
HETATM   44  F   UNL     1     -11.056  19.849  67.291  1.00  0.00    -0.511 F  
HETATM   45  C   UNL     1      -9.527  18.138  68.011  1.00  0.00    -0.290 A  
HETATM   46  C   UNL     1      -8.253  17.535  68.017  1.00  0.00    -0.239 A  
HETATM   47  C   UNL     1      -9.776  19.389  67.194  1.00  0.00    -0.333 C  
ENDBRANCH  31  34
ENDBRANCH   3  31
TORSDOF 7
ENDMDL
MODEL       35
REMARK 921   NORMALIZED FREE ENERGY PREDICTED BY IDOCK:   -7.01 KCAL/MOL
REMARK 922        TOTAL FREE ENERGY PREDICTED BY IDOCK:  -10.52 KCAL/MOL
REMARK 923 INTER-LIGAND FREE ENERGY PREDICTED BY IDOCK:   -9.61 KCAL/MOL
REMARK 924 INTRA-LIGAND FREE ENERGY PREDICTED BY IDOCK:   -0.90 KCAL/MOL
REMARK 927      BINDING AFFINITY PREDICTED BY RF-SCORE:    0.00 PKD
ROOT
HETATM    1  C   UNL     1     -11.927  10.485  69.029  1.00  0.00    -0.023 C  
HETATM    2  N   UNL     1     -10.485  10.733  68.913  1.00  0.00    -0.194 N  
HETATM    3  C   UNL     1      -9.487  10.043  69.613  1.00  0.00    -0.223 C  
HETATM    4  O   UNL     1      -8.330  10.485  69.631  1.00  0.00    -0.119 OA 
ENDROOT
BRANCH   2   5
HETATM    5  C   UNL     1     -10.180  12.064  68.452  1.00  0.00    -0.209 A  
HETATM    6  C   UNL     1      -9.619  13.724  66.830  1.00  0.00    -0.283 A  
HETATM    7  C   UNL     1     -10.668  13.140  69.202  1.00  0.00    -0.030 A  
HETATM    8  C   UNL     1      -9.565  12.354  67.219  1.00  0.00    -0.199 A  
HETATM    9  C   UNL     1     -10.124  14.760  67.633  1.00  0.00    -0.227 A  
HETATM   10  N   UNL     1     -10.636  14.446  68.834  1.00  0.00    -0.244 NA 
BRANCH   9  11
HETATM   11  N   UNL     1     -10.127  16.087  67.247  1.00  0.00    -0.260 NA 
HETATM   12  C   UNL     1     -10.840  17.103  68.056  1.00  0.00    -0.317 C  
HETATM   13  N   UNL     1      -9.101  18.852  67.307  1.00  0.00    -0.278 N  
HETATM   14  C   UNL     1      -9.960  19.752  66.449  1.00  0.00    -0.470 C  
HETATM   15  C   UNL     1      -9.424  16.627  66.082  1.00  0.00    -0.287 C  
HETATM   16  C   UNL     1      -9.893  18.257  68.494  1.00  0.00    -0.381 C  
HETATM   17  C   UNL     1      -8.434  17.725  66.509  1.00  0.00    -0.260 C  
BRANCH  13  18
HETATM   18  C   UNL     1      -7.941  19.694  67.859  1.00  0.00    -0.300 C  
BRANCH  18  19
HETATM   19  O   UNL     1      -7.823  19.711  69.249  1.00  0.00    -0.290 OA 
HETATM   20  O   UNL     1      -5.568  20.657  68.525  1.00  0.00    -0.267 OA 
HETATM   21  O   UNL     1      -6.202  20.364  71.084  1.00  0.00    -0.579 OA 
HETATM   22  O   UNL     1      -5.826  18.406  69.656  1.00  0.00    -0.233 OA 
HETATM   23  P   UNL     1      -6.274  19.952  69.651  1.00  0.00    -0.351 P  
ENDBRANCH  18  19
ENDBRANCH  13  18
ENDBRANCH   9  11
BRANCH   8  24
HETATM   24  C   UNL     1      -8.924  11.345  66.291  1.00  0.00    -0.205 A  
HETATM   25  C   UNL     1      -7.644  10.823  66.585  1.00  0.00    -0.134 A  
HETATM   26  C   UNL     1      -6.988   9.885  65.777  1.00  0.00    -0.109 A  
HETATM   27  C   UNL     1     -10.869  11.294  64.560  1.00  0.00    -0.354 C  
HETATM   28  C   UNL     1      -9.533  10.840  65.101  1.00  0.00    -0.271 A  
HETATM   29  C   UNL     1      -7.620   9.380  64.657  1.00  0.00    -0.109 A  
HETATM   30  C   UNL     1      -8.886   9.841  64.332  1.00  0.00    -0.258 A  
ENDBRANCH   8  24
ENDBRANCH   2   5
BRANCH   3  31
HETATM   31  C   UNL     1      -9.807   8.710  70.385  1.00  0.00    -0.207 C  
HETATM   32  C   UNL     1     -11.350   8.477  70.348  1.00  0.00    -0.193 C  
HETATM   33  C   UNL     1      -9.493   8.851  71.896  1.00  0.00    -0.301 C  
BRANCH  31  34
HETATM   34  C   UNL     1      -9.162   7.476  69.710  1.00  0.00    -0.147 A  
HETATM   35  F   UNL     1      -9.370   6.341  65.516  1.00  0.00    -0.083 F  
HETATM   36  C   UNL     1      -7.656   5.533  69.790  1.00  0.00    -0.074 A  
HETATM   37  C   UNL     1      -6.628   4.712  70.536  1.00  0.00    -0.035 C  
HETATM   38  F   UNL     1     -10.926   5.171  66.492  1.00  0.00    -0.320 F  
HETATM   39  C   UNL     1      -8.184   6.703  70.361  1.00  0.00    -0.125 A  
HETATM   40  C   UNL     1      -8.112   5.124  68.530  1.00  0.00    -0.086 A  
HETATM   41  F   UNL     1      -5.466   4.581  69.840  1.00  0.00    -0.006 F  
HETATM   42  F   UNL     1      -7.060   3.450  70.798  1.00  0.00    -0.032 F  
HETATM   43  F   UNL     1      -6.282   5.249  71.738  1.00  0.00    -0.025 F  
HETATM   44  F   UNL     1      -9.000   4.267  66.052  1.00  0.00    -0.115 F  
HETATM   45  C   UNL     1      -9.078   5.872  67.842  1.00  0.00    -0.109 A  
HETATM   46  C   UNL     1      -9.586   7.046  68.435  1.00  0.00    -0.135 A  
HETATM   47  C   UNL     1      -9.589   5.416  66.490  1.00  0.00    -0.156 C  
ENDBRANCH  31  34
ENDBRANCH   3  31
TORSDOF 7
ENDMDL
MODEL       36
REMARK 921   NORMALIZED FREE ENERGY PREDICTED BY IDOCK:   -6.98 KCAL/MOL
REMARK 922        TOTAL FREE ENERGY PREDICTED BY IDOCK:  -10.48 KCAL/MOL
REMARK 923 INTER-LIGAND FREE ENERGY PREDICTED BY IDOCK:   -9.16 KCAL/MOL
REMARK 924 INTRA-LIGAND FREE ENERGY PREDICTED BY IDOCK:   -1.32 KCAL/MOL
REMARK 927      BINDING AFFINITY PREDICTED BY RF-SCORE:    0.00 PKD
ROOT
HETATM    1  C   UNL     1      -5.160  13.581  67.748  1.00  0.00    -0.036 C  
HETATM    2  N   UNL     1      -6.324  13.597  68.640  1.00  0.00    -0.084 N  
HETATM    3  C   UNL     1      -6.987  14.750  69.084  1.00  0.00    -0.138 C  
HETATM    4  O   UNL     1      -7.796  14.672  70.019  1.00  0.00     0.147 OA 
ENDROOT
BRANCH   2   5
HETATM    5  C   UNL     1      -6.422  12.414  69.456  1.00  0.00    -0.090 A  
HETATM    6  C   UNL     1      -7.002  10.146  69.929  1.00  0.00    -0.133 A  
HETATM    7  C   UNL     1      -5.507  12.268  70.505  1.00  0.00    -0.159 A  
HETATM    8  C   UNL     1      -7.268  11.324  69.172  1.00  0.00    -0.115 A  
HETATM    9  C   UNL     1      -6.066  10.066  70.974  1.00  0.00    -0.031 A  
HETATM   10  N   UNL     1      -5.330  11.154  71.258  1.00  0.00    -0.283 NA 
BRANCH   9  11
HETATM   11  N   UNL     1      -5.856   8.922  71.720  1.00  0.00    -0.058 NA 
HETATM   12  C   UNL     1      -5.757   8.994  73.196  1.00  0.00    -0.061 C  
HETATM   13  N   UNL     1      -6.762   6.625  73.334  1.00  0.00    -0.075 N  
HETATM   14  C   UNL     1      -5.577   5.847  73.856  1.00  0.00    -0.037 C  
HETATM   15  C   UNL     1      -5.761   7.566  71.174  1.00  0.00    -0.035 C  
HETATM   16  C   UNL     1      -6.797   8.068  73.888  1.00  0.00    -0.118 C  
HETATM   17  C   UNL     1      -6.829   6.655  71.802  1.00  0.00    -0.066 C  
BRANCH  13  18
HETATM   18  C   UNL     1      -8.039   5.894  73.778  1.00  0.00    -0.106 C  
BRANCH  18  19
HETATM   19  O   UNL     1      -8.839   5.407  72.744  1.00  0.00    -0.123 OA 
HETATM   20  O   UNL     1     -10.152   7.460  73.496  1.00  0.00    -0.297 OA 
HETATM   21  O   UNL     1     -10.984   5.926  71.499  1.00  0.00    -0.259 OA 
HETATM   22  O   UNL     1     -10.990   5.090  73.804  1.00  0.00    -0.297 OA 
HETATM   23  P   UNL     1     -10.285   6.132  72.801  1.00  0.00    -0.202 P  
ENDBRANCH  18  19
ENDBRANCH  13  18
ENDBRANCH   9  11
BRANCH   8  24
HETATM   24  C   UNL     1      -8.359  11.300  68.124  1.00  0.00    -0.143 A  
HETATM   25  C   UNL     1      -9.686  11.638  68.473  1.00  0.00    -0.187 A  
HETATM   26  C   UNL     1     -10.748  11.642  67.559  1.00  0.00    -0.257 A  
HETATM   27  C   UNL     1      -6.834  10.521  66.162  1.00  0.00    -0.131 C  
HETATM   28  C   UNL     1      -8.152  10.967  66.750  1.00  0.00    -0.151 A  
HETATM   29  C   UNL     1     -10.511  11.361  66.228  1.00  0.00    -0.301 A  
HETATM   30  C   UNL     1      -9.224  11.043  65.824  1.00  0.00    -0.226 A  
ENDBRANCH   8  24
ENDBRANCH   2   5
BRANCH   3  31
HETATM   31  C   UNL     1      -6.721  16.150  68.418  1.00  0.00    -0.127 C  
HETATM   32  C   UNL     1      -5.604  15.979  67.341  1.00  0.00    -0.100 C  
HETATM   33  C   UNL     1      -6.105  17.143  69.434  1.00  0.00    -0.230 C  
BRANCH  31  34
HETATM   34  C   UNL     1      -7.968  16.687  67.674  1.00  0.00    -0.188 A  
HETATM   35  F   UNL     1      -9.207  20.834  67.238  1.00  0.00    -0.486 F  
HETATM   36  C   UNL     1      -9.898  16.330  66.191  1.00  0.00    -0.358 A  
HETATM   37  C   UNL     1     -10.692  15.415  65.287  1.00  0.00    -0.421 C  
HETATM   38  F   UNL     1     -10.363  20.077  68.921  1.00  0.00    -0.527 F  
HETATM   39  C   UNL     1      -8.717  15.877  66.804  1.00  0.00    -0.303 A  
HETATM   40  C   UNL     1     -10.340  17.634  66.450  1.00  0.00    -0.345 A  
HETATM   41  F   UNL     1     -10.832  15.923  64.032  1.00  0.00    -0.112 F  
HETATM   42  F   UNL     1     -11.950  15.190  65.750  1.00  0.00    -0.216 F  
HETATM   43  F   UNL     1     -10.123  14.189  65.129  1.00  0.00    -0.347 F  
HETATM   44  F   UNL     1     -11.264  20.195  66.947  1.00  0.00    -0.357 F  
HETATM   45  C   UNL     1      -9.616  18.480  67.301  1.00  0.00    -0.305 A  
HETATM   46  C   UNL     1      -8.432  18.001  67.897  1.00  0.00    -0.253 A  
HETATM   47  C   UNL     1     -10.109  19.881  67.599  1.00  0.00    -0.427 C  
ENDBRANCH  31  34
ENDBRANCH   3  31
TORSDOF 7
ENDMDL
MODEL       37
REMARK 921   NORMALIZED FREE ENERGY PREDICTED BY IDOCK:   -6.93 KCAL/MOL
REMARK 922        TOTAL FREE ENERGY PREDICTED BY IDOCK:  -10.40 KCAL/MOL
REMARK 923 INTER-LIGAND FREE ENERGY PREDICTED BY IDOCK:   -7.32 KCAL/MOL
REMARK 924 INTRA-LIGAND FREE ENERGY PREDICTED BY IDOCK:   -3.08 KCAL/MOL
REMARK 927      BINDING AFFINITY PREDICTED BY RF-SCORE:    0.00 PKD
ROOT
HETATM    1  C   UNL     1      -7.386  12.569  69.811  1.00  0.00     0.858 C  
HETATM    2  N   UNL     1      -6.736  12.796  68.515  1.00  0.00    -0.083 N  
HETATM    3  C   UNL     1      -6.491  14.052  67.943  1.00  0.00    -0.162 C  
HETATM    4  O   UNL     1      -6.165  14.132  66.751  1.00  0.00     0.700 OA 
ENDROOT
BRANCH   2   5
HETATM    5  C   UNL     1      -6.845  11.667  67.627  1.00  0.00    -0.094 A  
HETATM    6  C   UNL     1      -7.741  10.425  65.796  1.00  0.00    -0.146 A  
HETATM    7  C   UNL     1      -5.714  10.859  67.461  1.00  0.00    -0.044 A  
HETATM    8  C   UNL     1      -7.955  11.415  66.797  1.00  0.00    -0.160 A  
HETATM    9  C   UNL     1      -6.578   9.645  65.683  1.00  0.00    -0.078 A  
HETATM   10  N   UNL     1      -5.571   9.870  66.543  1.00  0.00    -0.045 NA 
BRANCH   9  11
HETATM   11  N   UNL     1      -6.413   8.661  64.726  1.00  0.00    -0.065 NA 
HETATM   12  C   UNL     1      -5.334   7.655  64.859  1.00  0.00    -0.029 C  
HETATM   13  N   UNL     1      -6.830   5.954  63.629  1.00  0.00    -0.037 N  
HETATM   14  C   UNL     1      -6.058   5.783  62.341  1.00  0.00    -0.022 C  
HETATM   15  C   UNL     1      -7.270   8.475  63.553  1.00  0.00    -0.095 C  
HETATM   16  C   UNL     1      -5.894   6.205  64.835  1.00  0.00    -0.025 C  
HETATM   17  C   UNL     1      -7.884   7.065  63.550  1.00  0.00    -0.109 C  
BRANCH  13  18
HETATM   18  C   UNL     1      -7.624   4.663  63.878  1.00  0.00    -0.071 C  
BRANCH  18  19
HETATM   19  O   UNL     1      -8.949   4.684  63.445  1.00  0.00    -0.142 OA 
HETATM   20  O   UNL     1      -9.123   3.306  65.584  1.00  0.00    -0.142 OA 
HETATM   21  O   UNL     1     -11.253   3.861  64.105  1.00  0.00    -0.328 OA 
HETATM   22  O   UNL     1      -9.519   2.338  63.278  1.00  0.00    -0.092 OA 
HETATM   23  P   UNL     1      -9.797   3.577  64.267  1.00  0.00    -0.188 P  
ENDBRANCH  18  19
ENDBRANCH  13  18
ENDBRANCH   9  11
BRANCH   8  24
HETATM   24  C   UNL     1      -9.286  12.133  66.859  1.00  0.00    -0.203 A  
HETATM   25  C   UNL     1      -9.459  13.366  66.190  1.00  0.00    -0.156 A  
HETATM   26  C   UNL     1     -10.661  14.086  66.199  1.00  0.00    -0.290 A  
HETATM   27  C   UNL     1     -10.469  10.379  68.378  1.00  0.00    -0.216 C  
HETATM   28  C   UNL     1     -10.436  11.643  67.550  1.00  0.00    -0.228 A  
HETATM   29  C   UNL     1     -11.770  13.567  66.837  1.00  0.00    -0.424 A  
HETATM   30  C   UNL     1     -11.664  12.350  67.492  1.00  0.00    -0.425 A  
ENDBRANCH   8  24
ENDBRANCH   2   5
BRANCH   3  31
HETATM   31  C   UNL     1      -6.626  15.372  68.788  1.00  0.00    -0.106 C  
HETATM   32  C   UNL     1      -5.690  16.455  68.164  1.00  0.00    -0.113 C  
HETATM   33  C   UNL     1      -6.063  15.179  70.218  1.00  0.00    -0.127 C  
BRANCH  31  34
HETATM   34  C   UNL     1      -8.060  15.952  68.738  1.00  0.00    -0.190 A  
HETATM   35  F   UNL     1     -11.223  15.449  71.682  1.00  0.00    -0.396 F  
HETATM   36  C   UNL     1      -9.740  17.430  67.715  1.00  0.00    -0.268 A  
HETATM   37  C   UNL     1     -10.092  18.491  66.698  1.00  0.00    -0.389 C  
HETATM   38  F   UNL     1     -11.626  13.943  70.162  1.00  0.00    -0.312 F  
HETATM   39  C   UNL     1      -8.421  16.959  67.825  1.00  0.00    -0.198 A  
HETATM   40  C   UNL     1     -10.728  16.885  68.545  1.00  0.00    -0.359 A  
HETATM   41  F   UNL     1     -10.626  19.603  67.274  1.00  0.00    -0.489 F  
HETATM   42  F   UNL     1     -11.004  18.059  65.788  1.00  0.00    -0.301 F  
HETATM   43  F   UNL     1      -9.019  18.925  65.980  1.00  0.00    -0.304 F  
HETATM   44  F   UNL     1     -12.718  15.823  70.149  1.00  0.00    -0.419 F  
HETATM   45  C   UNL     1     -10.410  15.888  69.477  1.00  0.00    -0.277 A  
HETATM   46  C   UNL     1      -9.077  15.438  69.571  1.00  0.00    -0.231 A  
HETATM   47  C   UNL     1     -11.484  15.281  70.357  1.00  0.00    -0.299 C  
ENDBRANCH  31  34
ENDBRANCH   3  31
TORSDOF 7
ENDMDL
MODEL       38
REMARK 921   NORMALIZED FREE ENERGY PREDICTED BY IDOCK:   -6.91 KCAL/MOL
REMARK 922        TOTAL FREE ENERGY PREDICTED BY IDOCK:  -10.38 KCAL/MOL
REMARK 923 INTER-LIGAND FREE ENERGY PREDICTED BY IDOCK:   -8.56 KCAL/MOL
REMARK 924 INTRA-LIGAND FREE ENERGY PREDICTED BY IDOCK:   -1.82 KCAL/MOL
REMARK 927      BINDING AFFINITY PREDICTED BY RF-SCORE:    0.00 PKD
ROOT
HETATM    1  C   UNL     1     -10.811   8.215  67.304  1.00  0.00    -0.060 C  
HETATM    2  N   UNL     1      -9.400   8.417  67.651  1.00  0.00    -0.136 N  
HETATM    3  C   UNL     1      -8.557   7.446  68.208  1.00  0.00    -0.124 C  
HETATM    4  O   UNL     1      -7.465   7.781  68.688  1.00  0.00    -0.094 OA 
ENDROOT
BRANCH   2   5
HETATM    5  C   UNL     1      -9.072   9.801  67.886  1.00  0.00    -0.121 A  
HETATM    6  C   UNL     1      -8.820  11.778  69.201  1.00  0.00     0.403 A  
HETATM    7  C   UNL     1      -8.157  10.409  67.020  1.00  0.00    -0.116 A  
HETATM    8  C   UNL     1      -9.485  10.531  69.017  1.00  0.00    -0.211 A  
HETATM    9  C   UNL     1      -7.908  12.335  68.289  1.00  0.00    -0.153 A  
HETATM   10  N   UNL     1      -7.598  11.634  67.186  1.00  0.00    -0.145 NA 
BRANCH   9  11
HETATM   11  N   UNL     1      -7.307  13.567  68.472  1.00  0.00    -0.109 NA 
HETATM   12  C   UNL     1      -6.574  14.218  67.362  1.00  0.00     0.082 C  
HETATM   13  N   UNL     1      -7.237  16.512  68.332  1.00  0.00    -0.162 N  
HETATM   14  C   UNL     1      -5.888  17.029  68.776  1.00  0.00    -0.146 C  
HETATM   15  C   UNL     1      -7.362  14.355  69.705  1.00  0.00     0.046 C  
HETATM   16  C   UNL     1      -7.131  15.638  67.060  1.00  0.00    -0.092 C  
HETATM   17  C   UNL     1      -7.973  15.740  69.434  1.00  0.00    -0.211 C  
BRANCH  13  18
HETATM   18  C   UNL     1      -8.130  17.725  68.026  1.00  0.00    -0.243 C  
BRANCH  18  19
HETATM   19  O   UNL     1      -8.650  17.773  66.733  1.00  0.00    -0.236 OA 
HETATM   20  O   UNL     1     -10.521  18.854  68.087  1.00  0.00    -0.374 OA 
HETATM   21  O   UNL     1     -10.691  18.564  65.456  1.00  0.00    -0.586 OA 
HETATM   22  O   UNL     1     -10.762  16.611  66.937  1.00  0.00    -0.266 OA 
HETATM   23  P   UNL     1     -10.228  18.123  66.804  1.00  0.00    -0.376 P  
ENDBRANCH  18  19
ENDBRANCH  13  18
ENDBRANCH   9  11
BRANCH   8  24
HETATM   24  C   UNL     1     -10.506  10.078  70.039  1.00  0.00    -0.337 A  
HETATM   25  C   UNL     1     -11.867  10.431  69.887  1.00  0.00    -0.314 A  
HETATM   26  C   UNL     1     -12.868  10.048  70.788  1.00  0.00    -0.341 A  
HETATM   27  C   UNL     1      -8.816   8.831  71.577  1.00  0.00    -0.295 C  
HETATM   28  C   UNL     1     -10.204   9.278  71.183  1.00  0.00    -0.387 A  
HETATM   29  C   UNL     1     -12.556   9.235  71.861  1.00  0.00    -0.468 A  
HETATM   30  C   UNL     1     -11.240   8.841  72.047  1.00  0.00    -0.443 A  
ENDBRANCH   8  24
ENDBRANCH   2   5
BRANCH   3  31
HETATM   31  C   UNL     1      -8.973   5.929  68.241  1.00  0.00    -0.112 C  
HETATM   32  C   UNL     1      -7.919   5.111  67.430  1.00  0.00    -0.100 C  
HETATM   33  C   UNL     1     -10.294   5.696  67.467  1.00  0.00    -0.277 C  
BRANCH  31  34
HETATM   34  C   UNL     1      -8.962   5.353  69.678  1.00  0.00    -0.130 A  
HETATM   35  F   UNL     1      -5.564   3.727  71.853  1.00  0.00    -0.006 F  
HETATM   36  C   UNL     1     -10.076   4.952  71.834  1.00  0.00    -0.262 A  
HETATM   37  C   UNL     1     -11.269   5.155  72.740  1.00  0.00    -0.255 C  
HETATM   38  F   UNL     1      -6.574   1.991  71.011  1.00  0.00    -0.021 F  
HETATM   39  C   UNL     1     -10.040   5.543  70.560  1.00  0.00    -0.293 A  
HETATM   40  C   UNL     1      -9.001   4.151  72.243  1.00  0.00    -0.139 A  
HETATM   41  F   UNL     1     -10.925   5.724  73.928  1.00  0.00    -0.273 F  
HETATM   42  F   UNL     1     -11.897   3.989  73.044  1.00  0.00    -0.147 F  
HETATM   43  F   UNL     1     -12.220   5.967  72.201  1.00  0.00    -0.359 F  
HETATM   44  F   UNL     1      -6.910   2.546  73.085  1.00  0.00    -0.023 F  
HETATM   45  C   UNL     1      -7.900   3.945  71.399  1.00  0.00    -0.064 A  
HETATM   46  C   UNL     1      -7.888   4.556  70.128  1.00  0.00    -0.060 A  
HETATM   47  C   UNL     1      -6.750   3.060  71.833  1.00  0.00    -0.022 C  
ENDBRANCH  31  34
ENDBRANCH   3  31
TORSDOF 7
ENDMDL
MODEL       39
REMARK 921   NORMALIZED FREE ENERGY PREDICTED BY IDOCK:   -6.90 KCAL/MOL
REMARK 922        TOTAL FREE ENERGY PREDICTED BY IDOCK:  -10.36 KCAL/MOL
REMARK 923 INTER-LIGAND FREE ENERGY PREDICTED BY IDOCK:   -8.86 KCAL/MOL
REMARK 924 INTRA-LIGAND FREE ENERGY PREDICTED BY IDOCK:   -1.50 KCAL/MOL
REMARK 927      BINDING AFFINITY PREDICTED BY RF-SCORE:    0.00 PKD
ROOT
HETATM    1  C   UNL     1      -5.379  10.425  68.570  1.00  0.00    -0.037 C  
HETATM    2  N   UNL     1      -6.642  10.920  69.129  1.00  0.00    -0.061 N  
HETATM    3  C   UNL     1      -7.574  10.144  69.832  1.00  0.00    -0.166 C  
HETATM    4  O   UNL     1      -8.709  10.592  70.047  1.00  0.00     0.133 OA 
ENDROOT
BRANCH   2   5
HETATM    5  C   UNL     1      -7.123  12.104  68.464  1.00  0.00    -0.099 A  
HETATM    6  C   UNL     1      -8.562  13.351  67.024  1.00  0.00    -0.168 A  
HETATM    7  C   UNL     1      -6.859  13.340  69.065  1.00  0.00    -0.096 A  
HETATM    8  C   UNL     1      -7.975  12.093  67.343  1.00  0.00    -0.168 A  
HETATM    9  C   UNL     1      -8.252  14.560  67.667  1.00  0.00    -0.177 A  
HETATM   10  N   UNL     1      -7.378  14.536  68.687  1.00  0.00    -0.120 NA 
BRANCH   9  11
HETATM   11  N   UNL     1      -8.806  15.776  67.311  1.00  0.00    -0.188 NA 
HETATM   12  C   UNL     1      -9.752  16.466  68.218  1.00  0.00    -0.224 C  
HETATM   13  N   UNL     1      -8.911  18.724  67.301  1.00  0.00    -0.272 N  
HETATM   14  C   UNL     1     -10.142  19.205  66.569  1.00  0.00    -0.406 C  
HETATM   15  C   UNL     1      -8.503  16.510  66.081  1.00  0.00    -0.285 C  
HETATM   16  C   UNL     1      -9.271  17.904  68.563  1.00  0.00    -0.284 C  
HETATM   17  C   UNL     1      -7.964  17.913  66.408  1.00  0.00    -0.267 C  
BRANCH  13  18
HETATM   18  C   UNL     1      -8.102  19.959  67.727  1.00  0.00    -0.294 C  
BRANCH  18  19
HETATM   19  O   UNL     1      -7.706  19.981  69.064  1.00  0.00    -0.163 OA 
HETATM   20  O   UNL     1      -5.734  21.122  67.918  1.00  0.00    -0.288 OA 
HETATM   21  O   UNL     1      -5.807  20.768  70.546  1.00  0.00    -0.539 OA 
HETATM   22  O   UNL     1      -5.566  18.854  69.032  1.00  0.00    -0.198 OA 
HETATM   23  P   UNL     1      -6.134  20.355  69.150  1.00  0.00    -0.276 P  
ENDBRANCH  18  19
ENDBRANCH  13  18
ENDBRANCH   9  11
BRANCH   8  24
HETATM   24  C   UNL     1      -8.337  10.876  66.519  1.00  0.00    -0.155 A  
HETATM   25  C   UNL     1      -7.434  10.378  65.553  1.00  0.00    -0.142 A  
HETATM   26  C   UNL     1      -7.697   9.256  64.756  1.00  0.00    -0.111 A  
HETATM   27  C   UNL     1     -10.691  10.524  67.576  1.00  0.00    -0.326 C  
HETATM   28  C   UNL     1      -9.558  10.146  66.651  1.00  0.00    -0.230 A  
HETATM   29  C   UNL     1      -8.866   8.542  64.936  1.00  0.00    -0.029 A  
HETATM   30  C   UNL     1      -9.780   8.973  65.886  1.00  0.00    -0.306 A  
ENDBRANCH   8  24
ENDBRANCH   2   5
BRANCH   3  31
HETATM   31  C   UNL     1      -7.208   8.706  70.355  1.00  0.00    -0.045 C  
HETATM   32  C   UNL     1      -6.869   8.806  71.876  1.00  0.00    -0.060 C  
HETATM   33  C   UNL     1      -5.891   8.200  69.717  1.00  0.00    -0.026 C  
BRANCH  31  34
HETATM   34  C   UNL     1      -8.397   7.723  70.235  1.00  0.00    -0.127 A  
HETATM   35  F   UNL     1     -11.877   7.449  72.830  1.00  0.00    -0.260 F  
HETATM   36  C   UNL     1      -9.637   6.001  68.991  1.00  0.00    -0.153 A  
HETATM   37  C   UNL     1      -9.813   5.176  67.736  1.00  0.00    -0.156 C  
HETATM   38  F   UNL     1     -10.507   5.926  73.567  1.00  0.00    -0.196 F  
HETATM   39  C   UNL     1      -8.611   6.957  69.076  1.00  0.00    -0.128 A  
HETATM   40  C   UNL     1     -10.477   5.805  70.094  1.00  0.00    -0.348 A  
HETATM   41  F   UNL     1     -11.048   5.331  67.186  1.00  0.00    -0.206 F  
HETATM   42  F   UNL     1      -9.661   3.844  67.963  1.00  0.00    -0.218 F  
HETATM   43  F   UNL     1      -8.926   5.495  66.754  1.00  0.00    -0.114 F  
HETATM   44  F   UNL     1     -12.149   5.370  72.257  1.00  0.00    -0.209 F  
HETATM   45  C   UNL     1     -10.306   6.555  71.267  1.00  0.00    -0.234 A  
HETATM   46  C   UNL     1      -9.273   7.513  71.321  1.00  0.00    -0.155 A  
HETATM   47  C   UNL     1     -11.200   6.325  72.468  1.00  0.00    -0.279 C  
ENDBRANCH  31  34
ENDBRANCH   3  31
TORSDOF 7
ENDMDL
MODEL       40
REMARK 921   NORMALIZED FREE ENERGY PREDICTED BY IDOCK:   -6.89 KCAL/MOL
REMARK 922        TOTAL FREE ENERGY PREDICTED BY IDOCK:  -10.35 KCAL/MOL
REMARK 923 INTER-LIGAND FREE ENERGY PREDICTED BY IDOCK:   -7.59 KCAL/MOL
REMARK 924 INTRA-LIGAND FREE ENERGY PREDICTED BY IDOCK:   -2.76 KCAL/MOL
REMARK 927      BINDING AFFINITY PREDICTED BY RF-SCORE:    0.00 PKD
ROOT
HETATM    1  C   UNL     1     -11.231   7.148  68.847  1.00  0.00     0.110 C  
HETATM    2  N   UNL     1      -9.992   7.491  68.141  1.00  0.00    -0.166 N  
HETATM    3  C   UNL     1      -8.889   6.640  67.983  1.00  0.00    -0.115 C  
HETATM    4  O   UNL     1      -7.808   7.101  67.590  1.00  0.00    -0.109 OA 
ENDROOT
BRANCH   2   5
HETATM    5  C   UNL     1      -9.755   8.911  68.081  1.00  0.00    -0.160 A  
HETATM    6  C   UNL     1      -8.709  10.965  68.704  1.00  0.00    -0.154 A  
HETATM    7  C   UNL     1     -10.054   9.570  66.883  1.00  0.00    -0.230 A  
HETATM    8  C   UNL     1      -9.096   9.648  69.084  1.00  0.00    -0.154 A  
HETATM    9  C   UNL     1      -9.043  11.571  67.481  1.00  0.00    -0.166 A  
HETATM   10  N   UNL     1      -9.735  10.854  66.580  1.00  0.00    -0.185 NA 
BRANCH   9  11
HETATM   11  N   UNL     1      -8.689  12.866  67.153  1.00  0.00    -0.202 NA 
HETATM   12  C   UNL     1      -9.602  13.717  66.356  1.00  0.00    -0.268 C  
HETATM   13  N   UNL     1      -8.675  15.785  67.584  1.00  0.00    -0.169 N  
HETATM   14  C   UNL     1      -7.952  16.480  66.455  1.00  0.00    -0.310 C  
HETATM   15  C   UNL     1      -7.455  13.534  67.575  1.00  0.00    -0.167 C  
HETATM   16  C   UNL     1      -9.941  15.044  67.091  1.00  0.00    -0.237 C  
HETATM   17  C   UNL     1      -7.776  14.815  68.362  1.00  0.00    -0.122 C  
BRANCH  13  18
HETATM   18  C   UNL     1      -9.093  16.852  68.606  1.00  0.00    -0.265 C  
BRANCH  18  19
HETATM   19  O   UNL     1     -10.239  17.577  68.279  1.00  0.00    -0.322 OA 
HETATM   20  O   UNL     1      -8.420  19.347  68.040  1.00  0.00    -0.302 OA 
HETATM   21  O   UNL     1     -10.971  19.894  67.563  1.00  0.00    -0.308 OA 
HETATM   22  O   UNL     1     -10.199  19.423  69.841  1.00  0.00     0.097 OA 
HETATM   23  P   UNL     1      -9.893  19.157  68.284  1.00  0.00    -0.439 P  
ENDBRANCH  18  19
ENDBRANCH  13  18
ENDBRANCH   9  11
BRANCH   8  24
HETATM   24  C   UNL     1      -8.739   9.139  70.464  1.00  0.00    -0.258 A  
HETATM   25  C   UNL     1      -9.738   9.019  71.457  1.00  0.00    -0.365 A  
HETATM   26  C   UNL     1      -9.485   8.555  72.754  1.00  0.00    -0.244 A  
HETATM   27  C   UNL     1      -6.197   8.832  69.991  1.00  0.00    -0.037 C  
HETATM   28  C   UNL     1      -7.427   8.738  70.863  1.00  0.00    -0.094 A  
HETATM   29  C   UNL     1      -8.217   8.130  73.099  1.00  0.00    -0.253 A  
HETATM   30  C   UNL     1      -7.202   8.206  72.157  1.00  0.00    -0.103 A  
ENDBRANCH   8  24
ENDBRANCH   2   5
BRANCH   3  31
HETATM   31  C   UNL     1      -8.994   5.103  68.301  1.00  0.00    -0.119 C  
HETATM   32  C   UNL     1      -7.812   4.371  67.591  1.00  0.00    -0.085 C  
HETATM   33  C   UNL     1     -10.255   4.484  67.650  1.00  0.00    -0.001 C  
BRANCH  31  34
HETATM   34  C   UNL     1      -8.845   4.809  69.814  1.00  0.00    -0.128 A  
HETATM   35  F   UNL     1     -12.027   4.214  72.720  1.00  0.00     0.071 F  
HETATM   36  C   UNL     1      -7.452   4.245  71.760  1.00  0.00    -0.069 A  
HETATM   37  C   UNL     1      -6.102   3.868  72.329  1.00  0.00    -0.009 C  
HETATM   38  F   UNL     1     -11.463   6.307  72.926  1.00  0.00    -0.277 F  
HETATM   39  C   UNL     1      -7.614   4.430  70.377  1.00  0.00    -0.049 A  
HETATM   40  C   UNL     1      -8.551   4.438  72.607  1.00  0.00    -0.110 A  
HETATM   41  F   UNL     1      -6.142   2.695  73.019  1.00  0.00    -0.007 F  
HETATM   42  F   UNL     1      -5.622   4.802  73.192  1.00  0.00    -0.007 F  
HETATM   43  F   UNL     1      -5.144   3.706  71.376  1.00  0.00     0.000 F  
HETATM   44  F   UNL     1     -10.690   4.829  74.319  1.00  0.00    -0.283 F  
HETATM   45  C   UNL     1      -9.800   4.805  72.086  1.00  0.00    -0.228 A  
HETATM   46  C   UNL     1      -9.936   4.978  70.693  1.00  0.00    -0.300 A  
HETATM   47  C   UNL     1     -10.982   5.038  73.004  1.00  0.00    -0.295 C  
ENDBRANCH  31  34
ENDBRANCH   3  31
TORSDOF 7
ENDMDL
MODEL       41
REMARK 921   NORMALIZED FREE ENERGY PREDICTED BY IDOCK:   -6.84 KCAL/MOL
REMARK 922        TOTAL FREE ENERGY PREDICTED BY IDOCK:  -10.28 KCAL/MOL
REMARK 923 INTER-LIGAND FREE ENERGY PREDICTED BY IDOCK:   -8.98 KCAL/MOL
REMARK 924 INTRA-LIGAND FREE ENERGY PREDICTED BY IDOCK:   -1.30 KCAL/MOL
REMARK 927      BINDING AFFINITY PREDICTED BY RF-SCORE:    0.00 PKD
ROOT
HETATM    1  C   UNL     1     -10.711   8.495  67.774  1.00  0.00    -0.101 C  
HETATM    2  N   UNL     1     -10.507   9.237  69.023  1.00  0.00    -0.215 N  
HETATM    3  C   UNL     1     -10.912   8.807  70.294  1.00  0.00    -0.235 C  
HETATM    4  O   UNL     1     -10.915   9.606  71.241  1.00  0.00    -0.349 OA 
ENDROOT
BRANCH   2   5
HETATM    5  C   UNL     1     -10.352  10.654  68.815  1.00  0.00    -0.193 A  
HETATM    6  C   UNL     1      -9.223  12.630  68.092  1.00  0.00    -0.209 A  
HETATM    7  C   UNL     1     -11.513  11.428  68.707  1.00  0.00    -0.290 A  
HETATM    8  C   UNL     1      -9.120  11.286  68.553  1.00  0.00    -0.173 A  
HETATM    9  C   UNL     1     -10.425  13.353  68.008  1.00  0.00    -0.239 A  
HETATM   10  N   UNL     1     -11.569  12.732  68.337  1.00  0.00    -0.303 NA 
BRANCH   9  11
HETATM   11  N   UNL     1     -10.491  14.671  67.595  1.00  0.00    -0.242 NA 
HETATM   12  C   UNL     1     -11.360  15.638  68.304  1.00  0.00    -0.356 C  
HETATM   13  N   UNL     1      -9.694  17.509  67.700  1.00  0.00    -0.269 N  
HETATM   14  C   UNL     1     -10.526  18.326  66.740  1.00  0.00    -0.365 C  
HETATM   15  C   UNL     1      -9.714  15.249  66.497  1.00  0.00    -0.268 C  
HETATM   16  C   UNL     1     -10.557  16.868  68.813  1.00  0.00    -0.355 C  
HETATM   17  C   UNL     1      -8.863  16.427  67.000  1.00  0.00    -0.199 C  
BRANCH  13  18
HETATM   18  C   UNL     1      -8.666  18.448  68.350  1.00  0.00    -0.317 C  
BRANCH  18  19
HETATM   19  O   UNL     1      -7.677  18.935  67.496  1.00  0.00    -0.231 OA 
HETATM   20  O   UNL     1      -6.285  17.886  69.357  1.00  0.00    -0.233 OA 
HETATM   21  O   UNL     1      -5.157  19.051  67.257  1.00  0.00    -0.156 OA 
HETATM   22  O   UNL     1      -6.365  20.380  68.926  1.00  0.00    -0.318 OA 
HETATM   23  P   UNL     1      -6.252  18.919  68.262  1.00  0.00    -0.221 P  
ENDBRANCH  18  19
ENDBRANCH  13  18
ENDBRANCH   9  11
BRANCH   8  24
HETATM   24  C   UNL     1      -7.754  10.645  68.671  1.00  0.00    -0.110 A  
HETATM   25  C   UNL     1      -7.061  10.674  69.902  1.00  0.00    -0.133 A  
HETATM   26  C   UNL     1      -5.796  10.100  70.089  1.00  0.00    -0.059 A  
HETATM   27  C   UNL     1      -7.606   9.865  66.191  1.00  0.00    -0.104 C  
HETATM   28  C   UNL     1      -7.084   9.971  67.605  1.00  0.00    -0.087 A  
HETATM   29  C   UNL     1      -5.191   9.415  69.054  1.00  0.00    -0.037 A  
HETATM   30  C   UNL     1      -5.836   9.337  67.829  1.00  0.00    -0.045 A  
ENDBRANCH   8  24
ENDBRANCH   2   5
BRANCH   3  31
HETATM   31  C   UNL     1     -11.370   7.323  70.545  1.00  0.00    -0.308 C  
HETATM   32  C   UNL     1     -11.616   6.643  69.161  1.00  0.00    -0.079 C  
HETATM   33  C   UNL     1     -12.758   7.276  71.230  1.00  0.00    -0.400 C  
BRANCH  31  34
HETATM   34  C   UNL     1     -10.277   6.488  71.255  1.00  0.00    -0.223 A  
HETATM   35  F   UNL     1      -6.179   7.671  72.108  1.00  0.00    -0.040 F  
HETATM   36  C   UNL     1      -9.590   4.502  72.533  1.00  0.00    -0.183 A  
HETATM   37  C   UNL     1      -9.961   3.226  73.254  1.00  0.00    -0.116 C  
HETATM   38  F   UNL     1      -6.058   6.522  70.263  1.00  0.00    -0.027 F  
HETATM   39  C   UNL     1     -10.585   5.311  71.958  1.00  0.00    -0.279 A  
HETATM   40  C   UNL     1      -8.247   4.882  72.406  1.00  0.00    -0.119 A  
HETATM   41  F   UNL     1      -9.540   3.223  74.548  1.00  0.00    -0.110 F  
HETATM   42  F   UNL     1      -9.419   2.123  72.674  1.00  0.00    -0.099 F  
HETATM   43  F   UNL     1     -11.304   3.006  73.300  1.00  0.00    -0.280 F  
HETATM   44  F   UNL     1      -5.581   5.582  72.163  1.00  0.00    -0.015 F  
HETATM   45  C   UNL     1      -7.897   6.054  71.722  1.00  0.00    -0.102 A  
HETATM   46  C   UNL     1      -8.917   6.851  71.162  1.00  0.00    -0.143 A  
HETATM   47  C   UNL     1      -6.443   6.451  71.565  1.00  0.00    -0.050 C  
ENDBRANCH  31  34
ENDBRANCH   3  31
TORSDOF 7
ENDMDL
MODEL       42
REMARK 921   NORMALIZED FREE ENERGY PREDICTED BY IDOCK:   -6.81 KCAL/MOL
REMARK 922        TOTAL FREE ENERGY PREDICTED BY IDOCK:  -10.24 KCAL/MOL
REMARK 923 INTER-LIGAND FREE ENERGY PREDICTED BY IDOCK:   -8.69 KCAL/MOL
REMARK 924 INTRA-LIGAND FREE ENERGY PREDICTED BY IDOCK:   -1.54 KCAL/MOL
REMARK 927      BINDING AFFINITY PREDICTED BY RF-SCORE:    0.00 PKD
ROOT
HETATM    1  C   UNL     1     -11.731   6.742  69.478  1.00  0.00    -0.033 C  
HETATM    2  N   UNL     1     -10.593   7.604  69.817  1.00  0.00    -0.242 N  
HETATM    3  C   UNL     1      -9.936   7.626  71.055  1.00  0.00    -0.182 C  
HETATM    4  O   UNL     1      -9.155   8.550  71.320  1.00  0.00    -0.160 OA 
ENDROOT
BRANCH   2   5
HETATM    5  C   UNL     1     -10.526   8.791  69.003  1.00  0.00    -0.203 A  
HETATM    6  C   UNL     1      -9.956  10.064  67.065  1.00  0.00    -0.257 A  
HETATM    7  C   UNL     1     -11.486   9.785  69.222  1.00  0.00     0.072 A  
HETATM    8  C   UNL     1      -9.663   8.948  67.901  1.00  0.00    -0.190 A  
HETATM    9  C   UNL     1     -10.938  11.030  67.342  1.00  0.00    -0.291 A  
HETATM   10  N   UNL     1     -11.690  10.878  68.444  1.00  0.00    -0.495 NA 
BRANCH   9  11
HETATM   11  N   UNL     1     -11.175  12.126  66.534  1.00  0.00    -0.311 NA 
HETATM   12  C   UNL     1     -12.164  13.154  66.932  1.00  0.00    -0.222 C  
HETATM   13  N   UNL     1     -10.754  14.923  65.696  1.00  0.00    -0.321 N  
HETATM   14  C   UNL     1     -11.684  15.278  64.559  1.00  0.00    -0.305 C  
HETATM   15  C   UNL     1     -10.478  12.412  65.278  1.00  0.00    -0.286 C  
HETATM   16  C   UNL     1     -11.528  14.572  66.989  1.00  0.00    -0.370 C  
HETATM   17  C   UNL     1      -9.788  13.785  65.344  1.00  0.00    -0.143 C  
BRANCH  13  18
HETATM   18  C   UNL     1      -9.859  16.141  65.971  1.00  0.00    -0.347 C  
BRANCH  18  19
HETATM   19  O   UNL     1      -8.488  15.915  65.847  1.00  0.00    -0.166 OA 
HETATM   20  O   UNL     1      -8.579  17.459  67.874  1.00  0.00    -0.223 OA 
HETATM   21  O   UNL     1      -6.284  16.504  66.950  1.00  0.00    -0.213 OA 
HETATM   22  O   UNL     1      -7.568  18.144  65.656  1.00  0.00    -0.538 OA 
HETATM   23  P   UNL     1      -7.685  16.981  66.762  1.00  0.00    -0.299 P  
ENDBRANCH  18  19
ENDBRANCH  13  18
ENDBRANCH   9  11
BRANCH   8  24
HETATM   24  C   UNL     1      -8.525   8.022  67.529  1.00  0.00    -0.127 A  
HETATM   25  C   UNL     1      -7.193   8.369  67.849  1.00  0.00    -0.091 A  
HETATM   26  C   UNL     1      -6.090   7.563  67.540  1.00  0.00    -0.048 A  
HETATM   27  C   UNL     1     -10.010   6.216  66.382  1.00  0.00    -0.130 C  
HETATM   28  C   UNL     1      -8.690   6.766  66.869  1.00  0.00    -0.117 A  
HETATM   29  C   UNL     1      -6.282   6.332  66.942  1.00  0.00    -0.039 A  
HETATM   30  C   UNL     1      -7.570   5.931  66.625  1.00  0.00    -0.095 A  
ENDBRANCH   8  24
ENDBRANCH   2   5
BRANCH   3  31
HETATM   31  C   UNL     1     -10.175   6.496  72.124  1.00  0.00    -0.203 C  
HETATM   32  C   UNL     1     -11.697   6.149  72.143  1.00  0.00    -0.361 C  
HETATM   33  C   UNL     1      -9.897   7.016  73.556  1.00  0.00    -0.296 C  
BRANCH  31  34
HETATM   34  C   UNL     1      -9.432   5.187  71.763  1.00  0.00    -0.188 A  
HETATM   35  F   UNL     1      -7.473   2.418  74.487  1.00  0.00    -0.037 F  
HETATM   36  C   UNL     1      -8.806   3.459  70.129  1.00  0.00    -0.147 A  
HETATM   37  C   UNL     1      -8.931   2.876  68.739  1.00  0.00    -0.132 C  
HETATM   38  F   UNL     1      -5.876   3.697  73.743  1.00  0.00    -0.003 F  
HETATM   39  C   UNL     1      -9.543   4.599  70.491  1.00  0.00    -0.268 A  
HETATM   40  C   UNL     1      -7.936   2.885  71.065  1.00  0.00    -0.057 A  
HETATM   41  F   UNL     1      -9.346   1.579  68.758  1.00  0.00    -0.142 F  
HETATM   42  F   UNL     1      -7.753   2.889  68.061  1.00  0.00    -0.056 F  
HETATM   43  F   UNL     1      -9.824   3.540  67.956  1.00  0.00    -0.224 F  
HETATM   44  F   UNL     1      -6.190   1.730  72.875  1.00  0.00    -0.007 F  
HETATM   45  C   UNL     1      -7.803   3.433  72.348  1.00  0.00    -0.063 A  
HETATM   46  C   UNL     1      -8.560   4.573  72.687  1.00  0.00    -0.114 A  
HETATM   47  C   UNL     1      -6.844   2.826  73.352  1.00  0.00    -0.027 C  
ENDBRANCH  31  34
ENDBRANCH   3  31
TORSDOF 7
ENDMDL
MODEL       43
REMARK 921   NORMALIZED FREE ENERGY PREDICTED BY IDOCK:   -6.78 KCAL/MOL
REMARK 922        TOTAL FREE ENERGY PREDICTED BY IDOCK:  -10.20 KCAL/MOL
REMARK 923 INTER-LIGAND FREE ENERGY PREDICTED BY IDOCK:   -8.25 KCAL/MOL
REMARK 924 INTRA-LIGAND FREE ENERGY PREDICTED BY IDOCK:   -1.95 KCAL/MOL
REMARK 927      BINDING AFFINITY PREDICTED BY RF-SCORE:    0.00 PKD
ROOT
HETATM    1  C   UNL     1      -8.460  10.117  70.454  1.00  0.00     0.449 C  
HETATM    2  N   UNL     1      -7.343  10.140  69.503  1.00  0.00    -0.106 N  
HETATM    3  C   UNL     1      -6.353   9.153  69.394  1.00  0.00    -0.044 C  
HETATM    4  O   UNL     1      -5.328   9.381  68.738  1.00  0.00    -0.037 OA 
ENDROOT
BRANCH   2   5
HETATM    5  C   UNL     1      -7.013  11.470  69.056  1.00  0.00    -0.112 A  
HETATM    6  C   UNL     1      -7.337  13.485  67.818  1.00  0.00    -0.166 A  
HETATM    7  C   UNL     1      -6.215  12.258  69.893  1.00  0.00    -0.110 A  
HETATM    8  C   UNL     1      -7.569  12.083  67.917  1.00  0.00    -0.124 A  
HETATM    9  C   UNL     1      -6.521  14.220  68.694  1.00  0.00    -0.089 A  
HETATM   10  N   UNL     1      -5.952  13.579  69.728  1.00  0.00    -0.116 NA 
BRANCH   9  11
HETATM   11  N   UNL     1      -6.280  15.574  68.551  1.00  0.00    -0.095 NA 
HETATM   12  C   UNL     1      -5.691  16.105  67.300  1.00  0.00    -0.073 C  
HETATM   13  N   UNL     1      -6.990  18.300  67.676  1.00  0.00    -0.202 N  
HETATM   14  C   UNL     1      -5.852  19.255  67.951  1.00  0.00    -0.202 C  
HETATM   15  C   UNL     1      -6.605  16.596  69.548  1.00  0.00    -0.212 C  
HETATM   16  C   UNL     1      -6.591  17.202  66.662  1.00  0.00    -0.237 C  
HETATM   17  C   UNL     1      -7.548  17.653  68.949  1.00  0.00    -0.219 C  
BRANCH  13  18
HETATM   18  C   UNL     1      -8.157  19.112  67.092  1.00  0.00    -0.261 C  
BRANCH  18  19
HETATM   19  O   UNL     1      -8.779  18.548  65.978  1.00  0.00    -0.497 OA 
HETATM   20  O   UNL     1     -10.777  19.407  67.310  1.00  0.00    -0.459 OA 
HETATM   21  O   UNL     1     -11.077  18.186  64.974  1.00  0.00    -0.650 OA 
HETATM   22  O   UNL     1     -10.311  16.945  66.945  1.00  0.00    -0.306 OA 
HETATM   23  P   UNL     1     -10.364  18.403  66.267  1.00  0.00    -0.296 P  
ENDBRANCH  18  19
ENDBRANCH  13  18
ENDBRANCH   9  11
BRANCH   8  24
HETATM   24  C   UNL     1      -8.407  11.394  66.861  1.00  0.00    -0.159 A  
HETATM   25  C   UNL     1      -9.815  11.515  66.881  1.00  0.00    -0.220 A  
HETATM   26  C   UNL     1     -10.655  10.910  65.938  1.00  0.00    -0.244 A  
HETATM   27  C   UNL     1      -6.408  10.298  65.602  1.00  0.00    -0.118 C  
HETATM   28  C   UNL     1      -7.874  10.611  65.791  1.00  0.00    -0.141 A  
HETATM   29  C   UNL     1     -10.110  10.197  64.887  1.00  0.00    -0.277 A  
HETATM   30  C   UNL     1      -8.733  10.063  64.806  1.00  0.00    -0.206 A  
ENDBRANCH   8  24
ENDBRANCH   2   5
BRANCH   3  31
HETATM   31  C   UNL     1      -6.517   7.755  70.096  1.00  0.00    -0.034 C  
HETATM   32  C   UNL     1      -6.325   7.949  71.633  1.00  0.00    -0.039 C  
HETATM   33  C   UNL     1      -5.368   6.794  69.700  1.00  0.00    -0.014 C  
BRANCH  31  34
HETATM   34  C   UNL     1      -7.937   7.169  69.904  1.00  0.00    -0.122 A  
HETATM   35  F   UNL     1      -9.632   5.478  66.273  1.00  0.00    -0.149 F  
HETATM   36  C   UNL     1     -10.090   6.420  70.829  1.00  0.00    -0.220 A  
HETATM   37  C   UNL     1     -10.963   6.143  72.031  1.00  0.00    -0.258 C  
HETATM   38  F   UNL     1     -10.334   7.538  66.313  1.00  0.00    -0.229 F  
HETATM   39  C   UNL     1      -8.770   6.872  70.997  1.00  0.00    -0.136 A  
HETATM   40  C   UNL     1     -10.592   6.255  69.532  1.00  0.00    -0.331 A  
HETATM   41  F   UNL     1     -11.410   4.857  72.060  1.00  0.00    -0.133 F  
HETATM   42  F   UNL     1     -12.070   6.931  72.064  1.00  0.00    -0.311 F  
HETATM   43  F   UNL     1     -10.324   6.340  73.217  1.00  0.00    -0.182 F  
HETATM   44  F   UNL     1     -11.634   5.932  66.988  1.00  0.00    -0.060 F  
HETATM   45  C   UNL     1      -9.792   6.528  68.414  1.00  0.00    -0.137 A  
HETATM   46  C   UNL     1      -8.468   6.973  68.612  1.00  0.00    -0.121 A  
HETATM   47  C   UNL     1     -10.344   6.372  67.012  1.00  0.00    -0.244 C  
ENDBRANCH  31  34
ENDBRANCH   3  31
TORSDOF 7
ENDMDL
MODEL       44
REMARK 921   NORMALIZED FREE ENERGY PREDICTED BY IDOCK:   -6.69 KCAL/MOL
REMARK 922        TOTAL FREE ENERGY PREDICTED BY IDOCK:  -10.07 KCAL/MOL
REMARK 923 INTER-LIGAND FREE ENERGY PREDICTED BY IDOCK:   -9.71 KCAL/MOL
REMARK 924 INTRA-LIGAND FREE ENERGY PREDICTED BY IDOCK:   -0.36 KCAL/MOL
REMARK 927      BINDING AFFINITY PREDICTED BY RF-SCORE:    0.00 PKD
ROOT
HETATM    1  C   UNL     1     -11.547  12.028  68.037  1.00  0.00    -0.342 C  
HETATM    2  N   UNL     1     -10.541  12.070  66.969  1.00  0.00    -0.221 N  
HETATM    3  C   UNL     1     -10.551  12.955  65.882  1.00  0.00    -0.269 C  
HETATM    4  O   UNL     1      -9.803  12.751  64.917  1.00  0.00    -0.170 OA 
ENDROOT
BRANCH   2   5
HETATM    5  C   UNL     1      -9.843  10.820  66.807  1.00  0.00    -0.193 A  
HETATM    6  C   UNL     1      -8.198   9.169  67.328  1.00  0.00    -0.114 A  
HETATM    7  C   UNL     1     -10.533   9.762  66.204  1.00  0.00    -0.058 A  
HETATM    8  C   UNL     1      -8.576  10.543  67.356  1.00  0.00    -0.122 A  
HETATM    9  C   UNL     1      -8.939   8.153  66.703  1.00  0.00    -0.152 A  
HETATM   10  N   UNL     1     -10.109   8.476  66.128  1.00  0.00    -0.129 NA 
BRANCH   9  11
HETATM   11  N   UNL     1      -8.529   6.833  66.655  1.00  0.00    -0.117 NA 
HETATM   12  C   UNL     1      -7.251   6.420  67.279  1.00  0.00    -0.078 C  
HETATM   13  N   UNL     1      -8.285   4.108  67.757  1.00  0.00    -0.094 N  
HETATM   14  C   UNL     1      -7.465   3.238  66.834  1.00  0.00    -0.075 C  
HETATM   15  C   UNL     1      -9.292   5.736  66.057  1.00  0.00    -0.117 C  
HETATM   16  C   UNL     1      -7.461   5.288  68.324  1.00  0.00    -0.076 C  
HETATM   17  C   UNL     1      -9.565   4.637  67.098  1.00  0.00    -0.176 C  
BRANCH  13  18
HETATM   18  C   UNL     1      -8.766   3.234  68.926  1.00  0.00    -0.096 C  
BRANCH  18  19
HETATM   19  O   UNL     1      -9.841   3.746  69.652  1.00  0.00    -0.168 OA 
HETATM   20  O   UNL     1      -7.982   3.760  71.397  1.00  0.00    -0.062 OA 
HETATM   21  O   UNL     1     -10.426   4.624  71.956  1.00  0.00    -0.192 OA 
HETATM   22  O   UNL     1     -10.005   2.245  71.542  1.00  0.00    -0.156 OA 
HETATM   23  P   UNL     1      -9.477   3.732  71.228  1.00  0.00    -0.175 P  
ENDBRANCH  18  19
ENDBRANCH  13  18
ENDBRANCH   9  11
BRANCH   8  24
HETATM   24  C   UNL     1      -7.649  11.554  67.996  1.00  0.00    -0.112 A  
HETATM   25  C   UNL     1      -7.330  12.753  67.319  1.00  0.00    -0.095 A  
HETATM   26  C   UNL     1      -6.483  13.735  67.847  1.00  0.00    -0.165 A  
HETATM   27  C   UNL     1      -7.209  10.183  70.166  1.00  0.00    -0.162 C  
HETATM   28  C   UNL     1      -7.056  11.402  69.287  1.00  0.00    -0.100 A  
HETATM   29  C   UNL     1      -5.960  13.584  69.117  1.00  0.00    -0.089 A  
HETATM   30  C   UNL     1      -6.257  12.437  69.836  1.00  0.00    -0.102 A  
ENDBRANCH   8  24
ENDBRANCH   2   5
BRANCH   3  31
HETATM   31  C   UNL     1     -11.502  14.208  65.862  1.00  0.00    -0.338 C  
HETATM   32  C   UNL     1     -12.979  13.707  65.926  1.00  0.00    -0.173 C  
HETATM   33  C   UNL     1     -11.422  14.946  64.502  1.00  0.00    -0.328 C  
BRANCH  31  34
HETATM   34  C   UNL     1     -11.295  15.118  67.097  1.00  0.00    -0.291 A  
HETATM   35  F   UNL     1      -9.888  19.233  67.146  1.00  0.00    -0.338 F  
HETATM   36  C   UNL     1     -11.553  15.555  69.503  1.00  0.00    -0.361 A  
HETATM   37  C   UNL     1     -12.098  15.139  70.851  1.00  0.00    -0.334 C  
HETATM   38  F   UNL     1      -8.120  18.031  67.558  1.00  0.00    -0.220 F  
HETATM   39  C   UNL     1     -11.809  14.779  68.361  1.00  0.00    -0.319 A  
HETATM   40  C   UNL     1     -10.764  16.707  69.381  1.00  0.00    -0.331 A  
HETATM   41  F   UNL     1     -12.898  16.092  71.401  1.00  0.00    -0.498 F  
HETATM   42  F   UNL     1     -11.116  14.895  71.757  1.00  0.00    -0.377 F  
HETATM   43  F   UNL     1     -12.853  14.007  70.798  1.00  0.00    -0.364 F  
HETATM   44  F   UNL     1      -9.195  18.979  69.191  1.00  0.00    -0.347 F  
HETATM   45  C   UNL     1     -10.241  17.087  68.137  1.00  0.00    -0.322 A  
HETATM   46  C   UNL     1     -10.520  16.293  67.006  1.00  0.00    -0.306 A  
HETATM   47  C   UNL     1      -9.369  18.319  68.011  1.00  0.00    -0.284 C  
ENDBRANCH  31  34
ENDBRANCH   3  31
TORSDOF 7
ENDMDL
MODEL       45
REMARK 921   NORMALIZED FREE ENERGY PREDICTED BY IDOCK:   -6.66 KCAL/MOL
REMARK 922        TOTAL FREE ENERGY PREDICTED BY IDOCK:  -10.02 KCAL/MOL
REMARK 923 INTER-LIGAND FREE ENERGY PREDICTED BY IDOCK:  -11.11 KCAL/MOL
REMARK 924 INTRA-LIGAND FREE ENERGY PREDICTED BY IDOCK:    1.08 KCAL/MOL
REMARK 927      BINDING AFFINITY PREDICTED BY RF-SCORE:    0.00 PKD
ROOT
HETATM    1  C   UNL     1     -11.937  12.479  69.552  1.00  0.00    -0.266 C  
HETATM    2  N   UNL     1     -10.560  12.571  69.050  1.00  0.00    -0.113 N  
HETATM    3  C   UNL     1      -9.917  13.755  68.666  1.00  0.00    -0.174 C  
HETATM    4  O   UNL     1      -8.854  13.700  68.033  1.00  0.00    -0.171 OA 
ENDROOT
BRANCH   2   5
HETATM    5  C   UNL     1     -10.090  11.337  68.473  1.00  0.00    -0.204 A  
HETATM    6  C   UNL     1      -9.366   9.906  66.705  1.00  0.00    -0.196 A  
HETATM    7  C   UNL     1      -9.399  10.451  69.307  1.00  0.00    -0.187 A  
HETATM    8  C   UNL     1     -10.138  11.037  67.098  1.00  0.00    -0.227 A  
HETATM    9  C   UNL     1      -8.693   9.053  67.595  1.00  0.00    -0.124 A  
HETATM   10  N   UNL     1      -8.734   9.337  68.907  1.00  0.00    -0.130 NA 
BRANCH   9  11
HETATM   11  N   UNL     1      -7.983   7.938  67.190  1.00  0.00    -0.115 NA 
HETATM   12  C   UNL     1      -7.530   6.934  68.179  1.00  0.00    -0.099 C  
HETATM   13  N   UNL     1      -7.755   5.114  66.367  1.00  0.00    -0.091 N  
HETATM   14  C   UNL     1      -6.305   4.740  66.165  1.00  0.00    -0.036 C  
HETATM   15  C   UNL     1      -7.654   7.609  65.801  1.00  0.00    -0.088 C  
HETATM   16  C   UNL     1      -8.051   5.510  67.833  1.00  0.00    -0.100 C  
HETATM   17  C   UNL     1      -8.220   6.230  65.424  1.00  0.00    -0.142 C  
BRANCH  13  18
HETATM   18  C   UNL     1      -8.613   3.894  66.001  1.00  0.00    -0.112 C  
BRANCH  18  19
HETATM   19  O   UNL     1      -9.664   4.145  65.119  1.00  0.00    -0.174 OA 
HETATM   20  O   UNL     1      -9.173   1.686  64.656  1.00  0.00    -0.124 OA 
HETATM   21  O   UNL     1     -11.104   2.987  63.386  1.00  0.00    -0.256 OA 
HETATM   22  O   UNL     1      -8.749   3.525  62.967  1.00  0.00    -0.091 OA 
HETATM   23  P   UNL     1      -9.773   2.930  64.057  1.00  0.00    -0.147 P  
ENDBRANCH  18  19
ENDBRANCH  13  18
ENDBRANCH   9  11
BRANCH   8  24
HETATM   24  C   UNL     1     -10.880  11.831  66.045  1.00  0.00    -0.343 A  
HETATM   25  C   UNL     1     -11.949  12.677  66.416  1.00  0.00    -0.425 A  
HETATM   26  C   UNL     1     -12.680  13.444  65.499  1.00  0.00    -0.469 A  
HETATM   27  C   UNL     1      -9.509  10.939  64.018  1.00  0.00    -0.298 C  
HETATM   28  C   UNL     1     -10.570  11.809  64.650  1.00  0.00    -0.359 A  
HETATM   29  C   UNL     1     -12.330  13.440  64.163  1.00  0.00    -0.395 A  
HETATM   30  C   UNL     1     -11.275  12.643  63.746  1.00  0.00    -0.519 A  
ENDBRANCH   8  24
ENDBRANCH   2   5
BRANCH   3  31
HETATM   31  C   UNL     1     -10.522  15.163  69.022  1.00  0.00    -0.248 C  
HETATM   32  C   UNL     1     -10.694  15.249  70.572  1.00  0.00    -0.247 C  
HETATM   33  C   UNL     1     -11.968  15.301  68.483  1.00  0.00    -0.228 C  
BRANCH  31  34
HETATM   34  C   UNL     1      -9.577  16.322  68.622  1.00  0.00    -0.237 A  
HETATM   35  F   UNL     1      -5.227  16.310  68.623  1.00  0.00    -0.097 F  
HETATM   36  C   UNL     1      -9.213  18.551  67.650  1.00  0.00    -0.292 A  
HETATM   37  C   UNL     1      -9.764  19.769  66.943  1.00  0.00    -0.385 C  
HETATM   38  F   UNL     1      -5.786  17.230  70.516  1.00  0.00    -0.225 F  
HETATM   39  C   UNL     1     -10.046  17.458  67.941  1.00  0.00    -0.326 A  
HETATM   40  C   UNL     1      -7.870  18.508  68.046  1.00  0.00    -0.291 A  
HETATM   41  F   UNL     1      -9.114  20.028  65.776  1.00  0.00    -0.390 F  
HETATM   42  F   UNL     1      -9.664  20.897  67.693  1.00  0.00    -0.550 F  
HETATM   43  F   UNL     1     -11.080  19.649  66.615  1.00  0.00    -0.537 F  
HETATM   44  F   UNL     1      -5.215  18.473  68.827  1.00  0.00    -0.175 F  
HETATM   45  C   UNL     1      -7.358  17.389  68.718  1.00  0.00    -0.257 A  
HETATM   46  C   UNL     1      -8.215  16.303  68.991  1.00  0.00    -0.238 A  
HETATM   47  C   UNL     1      -5.912  17.353  69.167  1.00  0.00    -0.208 C  
ENDBRANCH  31  34
ENDBRANCH   3  31
TORSDOF 7
ENDMDL
MODEL       46
REMARK 921   NORMALIZED FREE ENERGY PREDICTED BY IDOCK:   -6.65 KCAL/MOL
REMARK 922        TOTAL FREE ENERGY PREDICTED BY IDOCK:  -10.01 KCAL/MOL
REMARK 923 INTER-LIGAND FREE ENERGY PREDICTED BY IDOCK:   -9.97 KCAL/MOL
REMARK 924 INTRA-LIGAND FREE ENERGY PREDICTED BY IDOCK:   -0.04 KCAL/MOL
REMARK 927      BINDING AFFINITY PREDICTED BY RF-SCORE:    0.00 PKD
ROOT
HETATM    1  C   UNL     1      -8.814  12.949  68.255  1.00  0.00    -0.168 C  
HETATM    2  N   UNL     1      -9.123  12.051  67.136  1.00  0.00    -0.180 N  
HETATM    3  C   UNL     1     -10.159  12.239  66.211  1.00  0.00    -0.234 C  
HETATM    4  O   UNL     1     -10.490  11.310  65.461  1.00  0.00    -0.258 OA 
ENDROOT
BRANCH   2   5
HETATM    5  C   UNL     1      -8.654  10.705  67.350  1.00  0.00    -0.122 A  
HETATM    6  C   UNL     1      -8.835   8.429  68.048  1.00  0.00    -0.142 A  
HETATM    7  C   UNL     1      -7.608  10.245  66.542  1.00  0.00    -0.113 A  
HETATM    8  C   UNL     1      -9.280   9.774  68.202  1.00  0.00    -0.132 A  
HETATM    9  C   UNL     1      -7.775   8.031  67.218  1.00  0.00    -0.101 A  
HETATM   10  N   UNL     1      -7.159   8.966  66.476  1.00  0.00    -0.083 NA 
BRANCH   9  11
HETATM   11  N   UNL     1      -7.337   6.724  67.118  1.00  0.00    -0.084 NA 
HETATM   12  C   UNL     1      -7.877   5.679  68.019  1.00  0.00    -0.097 C  
HETATM   13  N   UNL     1      -7.531   3.947  66.141  1.00  0.00    -0.086 N  
HETATM   14  C   UNL     1      -6.433   3.100  66.742  1.00  0.00    -0.036 C  
HETATM   15  C   UNL     1      -6.375   6.231  66.130  1.00  0.00    -0.039 C  
HETATM   16  C   UNL     1      -8.494   4.495  67.221  1.00  0.00    -0.104 C  
HETATM   17  C   UNL     1      -6.994   5.103  65.289  1.00  0.00    -0.062 C  
BRANCH  13  18
HETATM   18  C   UNL     1      -8.328   3.066  65.168  1.00  0.00    -0.096 C  
BRANCH  18  19
HETATM   19  O   UNL     1      -9.632   3.488  64.911  1.00  0.00    -0.157 OA 
HETATM   20  O   UNL     1      -9.215   1.882  62.975  1.00  0.00    -0.090 OA 
HETATM   21  O   UNL     1     -11.530   3.144  63.267  1.00  0.00    -0.101 OA 
HETATM   22  O   UNL     1      -9.499   4.379  62.666  1.00  0.00    -0.142 OA 
HETATM   23  P   UNL     1     -10.047   3.060  63.407  1.00  0.00    -0.193 P  
ENDBRANCH  18  19
ENDBRANCH  13  18
ENDBRANCH   9  11
BRANCH   8  24
HETATM   24  C   UNL     1     -10.384  10.082  69.190  1.00  0.00    -0.233 A  
HETATM   25  C   UNL     1     -11.587  10.679  68.749  1.00  0.00    -0.309 A  
HETATM   26  C   UNL     1     -12.653  10.990  69.602  1.00  0.00    -0.084 A  
HETATM   27  C   UNL     1      -9.115   9.215  71.292  1.00  0.00    -0.232 C  
HETATM   28  C   UNL     1     -10.318   9.796  70.588  1.00  0.00    -0.330 A  
HETATM   29  C   UNL     1     -12.581  10.661  70.942  1.00  0.00    -0.503 A  
HETATM   30  C   UNL     1     -11.433  10.055  71.427  1.00  0.00    -0.329 A  
ENDBRANCH   8  24
ENDBRANCH   2   5
BRANCH   3  31
HETATM   31  C   UNL     1     -10.919  13.613  66.107  1.00  0.00    -0.285 C  
HETATM   32  C   UNL     1     -12.450  13.323  66.009  1.00  0.00    -0.388 C  
HETATM   33  C   UNL     1     -10.594  14.330  64.774  1.00  0.00    -0.434 C  
BRANCH  31  34
HETATM   34  C   UNL     1     -10.719  14.486  67.369  1.00  0.00    -0.282 A  
HETATM   35  F   UNL     1     -12.025  13.615  71.426  1.00  0.00    -0.361 F  
HETATM   36  C   UNL     1      -9.705  16.423  68.496  1.00  0.00    -0.228 A  
HETATM   37  C   UNL     1      -8.759  17.602  68.459  1.00  0.00    -0.285 C  
HETATM   38  F   UNL     1     -13.573  14.907  70.604  1.00  0.00    -0.377 F  
HETATM   39  C   UNL     1      -9.829  15.574  67.383  1.00  0.00    -0.224 A  
HETATM   40  C   UNL     1     -10.488  16.176  69.631  1.00  0.00    -0.291 A  
HETATM   41  F   UNL     1      -7.822  17.544  69.445  1.00  0.00    -0.137 F  
HETATM   42  F   UNL     1      -9.400  18.790  68.611  1.00  0.00    -0.331 F  
HETATM   43  F   UNL     1      -8.063  17.696  67.292  1.00  0.00    -0.198 F  
HETATM   44  F   UNL     1     -12.029  15.738  71.888  1.00  0.00    -0.356 F  
HETATM   45  C   UNL     1     -11.380  15.095  69.664  1.00  0.00    -0.302 A  
HETATM   46  C   UNL     1     -11.479  14.255  68.536  1.00  0.00    -0.329 A  
HETATM   47  C   UNL     1     -12.243  14.843  70.883  1.00  0.00    -0.326 C  
ENDBRANCH  31  34
ENDBRANCH   3  31
TORSDOF 7
ENDMDL
MODEL       47
REMARK 921   NORMALIZED FREE ENERGY PREDICTED BY IDOCK:   -6.64 KCAL/MOL
REMARK 922        TOTAL FREE ENERGY PREDICTED BY IDOCK:  -10.00 KCAL/MOL
REMARK 923 INTER-LIGAND FREE ENERGY PREDICTED BY IDOCK:   -8.58 KCAL/MOL
REMARK 924 INTRA-LIGAND FREE ENERGY PREDICTED BY IDOCK:   -1.42 KCAL/MOL
REMARK 927      BINDING AFFINITY PREDICTED BY RF-SCORE:    0.00 PKD
ROOT
HETATM    1  C   UNL     1     -10.289   8.527  66.672  1.00  0.00    -0.233 C  
HETATM    2  N   UNL     1      -9.107   8.629  67.534  1.00  0.00    -0.133 N  
HETATM    3  C   UNL     1      -8.688   7.656  68.452  1.00  0.00    -0.127 C  
HETATM    4  O   UNL     1      -7.829   7.938  69.298  1.00  0.00    -0.110 OA 
ENDROOT
BRANCH   2   5
HETATM    5  C   UNL     1      -8.703   9.992  67.774  1.00  0.00    -0.125 A  
HETATM    6  C   UNL     1      -8.524  12.012  69.034  1.00  0.00     0.302 A  
HETATM    7  C   UNL     1      -7.587  10.472  67.080  1.00  0.00    -0.107 A  
HETATM    8  C   UNL     1      -9.255  10.817  68.773  1.00  0.00    -0.192 A  
HETATM    9  C   UNL     1      -7.408  12.439  68.296  1.00  0.00    -0.113 A  
HETATM   10  N   UNL     1      -6.959  11.653  67.304  1.00  0.00    -0.120 NA 
BRANCH   9  11
HETATM   11  N   UNL     1      -6.741  13.624  68.545  1.00  0.00    -0.086 NA 
HETATM   12  C   UNL     1      -6.004  14.314  67.461  1.00  0.00     0.105 C  
HETATM   13  N   UNL     1      -6.526  16.566  68.602  1.00  0.00    -0.137 N  
HETATM   14  C   UNL     1      -5.143  16.985  69.041  1.00  0.00    -0.134 C  
HETATM   15  C   UNL     1      -6.725  14.327  69.829  1.00  0.00    -0.095 C  
HETATM   16  C   UNL     1      -6.497  15.777  67.272  1.00  0.00    -0.104 C  
HETATM   17  C   UNL     1      -7.272  15.756  69.670  1.00  0.00    -0.134 C  
BRANCH  13  18
HETATM   18  C   UNL     1      -7.364  17.838  68.404  1.00  0.00    -0.257 C  
BRANCH  18  19
HETATM   19  O   UNL     1      -8.493  17.691  67.598  1.00  0.00    -0.220 OA 
HETATM   20  O   UNL     1      -9.216  19.566  69.168  1.00  0.00    -0.328 OA 
HETATM   21  O   UNL     1     -10.808  18.660  67.251  1.00  0.00    -0.426 OA 
HETATM   22  O   UNL     1     -10.264  17.261  69.190  1.00  0.00    -0.321 OA 
HETATM   23  P   UNL     1      -9.737  18.475  68.273  1.00  0.00    -0.393 P  
ENDBRANCH  18  19
ENDBRANCH  13  18
ENDBRANCH   9  11
BRANCH   8  24
HETATM   24  C   UNL     1     -10.490  10.509  69.592  1.00  0.00    -0.257 A  
HETATM   25  C   UNL     1     -10.414   9.611  70.681  1.00  0.00    -0.379 A  
HETATM   26  C   UNL     1     -11.512   9.280  71.486  1.00  0.00    -0.454 A  
HETATM   27  C   UNL     1     -12.107  12.022  68.223  1.00  0.00    -0.061 C  
HETATM   28  C   UNL     1     -11.777  11.084  69.360  1.00  0.00    -0.394 A  
HETATM   29  C   UNL     1     -12.734   9.886  71.268  1.00  0.00    -0.482 A  
HETATM   30  C   UNL     1     -12.861  10.791  70.226  1.00  0.00    -0.226 A  
ENDBRANCH   8  24
ENDBRANCH   2   5
BRANCH   3  31
HETATM   31  C   UNL     1      -9.294   6.204  68.432  1.00  0.00    -0.116 C  
HETATM   32  C   UNL     1      -8.461   5.336  67.437  1.00  0.00    -0.106 C  
HETATM   33  C   UNL     1     -10.717   6.202  67.821  1.00  0.00    -0.382 C  
BRANCH  31  34
HETATM   34  C   UNL     1      -9.189   5.510  69.811  1.00  0.00    -0.168 A  
HETATM   35  F   UNL     1     -12.269   5.218  72.869  1.00  0.00    -0.340 F  
HETATM   36  C   UNL     1      -7.980   4.074  71.401  1.00  0.00    -0.072 A  
HETATM   37  C   UNL     1      -6.808   3.169  71.706  1.00  0.00    -0.026 C  
HETATM   38  F   UNL     1     -11.040   6.913  73.470  1.00  0.00    -0.291 F  
HETATM   39  C   UNL     1      -8.129   4.641  70.124  1.00  0.00    -0.068 A  
HETATM   40  C   UNL     1      -8.920   4.379  72.395  1.00  0.00    -0.135 A  
HETATM   41  F   UNL     1      -7.202   1.933  72.116  1.00  0.00    -0.030 F  
HETATM   42  F   UNL     1      -6.013   3.661  72.692  1.00  0.00    -0.007 F  
HETATM   43  F   UNL     1      -5.995   2.963  70.634  1.00  0.00    -0.015 F  
HETATM   44  F   UNL     1     -10.740   4.969  74.394  1.00  0.00    -0.299 F  
HETATM   45  C   UNL     1      -9.999   5.232  72.122  1.00  0.00    -0.232 A  
HETATM   46  C   UNL     1     -10.127   5.781  70.830  1.00  0.00    -0.260 A  
HETATM   47  C   UNL     1     -11.000   5.580  73.204  1.00  0.00    -0.293 C  
ENDBRANCH  31  34
ENDBRANCH   3  31
TORSDOF 7
ENDMDL
MODEL       48
REMARK 921   NORMALIZED FREE ENERGY PREDICTED BY IDOCK:   -6.63 KCAL/MOL
REMARK 922        TOTAL FREE ENERGY PREDICTED BY IDOCK:   -9.99 KCAL/MOL
REMARK 923 INTER-LIGAND FREE ENERGY PREDICTED BY IDOCK:   -9.07 KCAL/MOL
REMARK 924 INTRA-LIGAND FREE ENERGY PREDICTED BY IDOCK:   -0.92 KCAL/MOL
REMARK 927      BINDING AFFINITY PREDICTED BY RF-SCORE:    0.00 PKD
ROOT
HETATM    1  C   UNL     1     -10.719   8.513  67.769  1.00  0.00    -0.101 C  
HETATM    2  N   UNL     1     -10.534   9.226  69.038  1.00  0.00    -0.215 N  
HETATM    3  C   UNL     1     -10.937   8.758  70.295  1.00  0.00    -0.235 C  
HETATM    4  O   UNL     1     -10.958   9.532  71.262  1.00  0.00    -0.337 OA 
ENDROOT
BRANCH   2   5
HETATM    5  C   UNL     1     -10.402  10.651  68.866  1.00  0.00    -0.207 A  
HETATM    6  C   UNL     1      -9.302  12.664  68.205  1.00  0.00    -0.195 A  
HETATM    7  C   UNL     1     -11.576  11.406  68.763  1.00  0.00    -0.313 A  
HETATM    8  C   UNL     1      -9.180  11.311  68.634  1.00  0.00    -0.163 A  
HETATM    9  C   UNL     1     -10.515  13.367  68.124  1.00  0.00    -0.245 A  
HETATM   10  N   UNL     1     -11.652  12.717  68.423  1.00  0.00    -0.303 NA 
BRANCH   9  11
HETATM   11  N   UNL     1     -10.601  14.693  67.742  1.00  0.00    -0.249 NA 
HETATM   12  C   UNL     1     -11.479  15.632  68.479  1.00  0.00    -0.375 C  
HETATM   13  N   UNL     1      -9.840  17.538  67.910  1.00  0.00    -0.282 N  
HETATM   14  C   UNL     1     -10.688  18.367  66.973  1.00  0.00    -0.293 C  
HETATM   15  C   UNL     1      -9.838  15.307  66.654  1.00  0.00    -0.250 C  
HETATM   16  C   UNL     1     -10.688  16.860  69.012  1.00  0.00    -0.308 C  
HETATM   17  C   UNL     1      -8.999  16.484  67.179  1.00  0.00    -0.205 C  
BRANCH  13  18
HETATM   18  C   UNL     1      -8.820  18.475  68.576  1.00  0.00    -0.326 C  
BRANCH  18  19
HETATM   19  O   UNL     1      -7.847  18.999  67.726  1.00  0.00    -0.245 OA 
HETATM   20  O   UNL     1      -6.422  17.909  69.539  1.00  0.00    -0.251 OA 
HETATM   21  O   UNL     1      -5.331  19.150  67.464  1.00  0.00    -0.167 OA 
HETATM   22  O   UNL     1      -6.535  20.414  69.186  1.00  0.00    -0.297 OA 
HETATM   23  P   UNL     1      -6.413  18.975  68.477  1.00  0.00    -0.259 P  
ENDBRANCH  18  19
ENDBRANCH  13  18
ENDBRANCH   9  11
BRANCH   8  24
HETATM   24  C   UNL     1      -7.804  10.692  68.754  1.00  0.00    -0.125 A  
HETATM   25  C   UNL     1      -7.126  10.703  69.994  1.00  0.00    -0.095 A  
HETATM   26  C   UNL     1      -5.853  10.148  70.182  1.00  0.00    -0.059 A  
HETATM   27  C   UNL     1      -7.611   9.977  66.257  1.00  0.00    -0.106 C  
HETATM   28  C   UNL     1      -7.108  10.058  67.679  1.00  0.00    -0.087 A  
HETATM   29  C   UNL     1      -5.223   9.500  69.138  1.00  0.00    -0.036 A  
HETATM   30  C   UNL     1      -5.851   9.441  67.904  1.00  0.00    -0.045 A  
ENDBRANCH   8  24
ENDBRANCH   2   5
BRANCH   3  31
HETATM   31  C   UNL     1     -11.370   7.260  70.506  1.00  0.00    -0.308 C  
HETATM   32  C   UNL     1     -11.634   6.622  69.106  1.00  0.00    -0.079 C  
HETATM   33  C   UNL     1     -12.744   7.171  71.216  1.00  0.00    -0.412 C  
BRANCH  31  34
HETATM   34  C   UNL     1     -10.252   6.418  71.167  1.00  0.00    -0.224 A  
HETATM   35  F   UNL     1      -9.760   2.098  71.029  1.00  0.00    -0.199 F  
HETATM   36  C   UNL     1      -8.107   6.263  72.361  1.00  0.00    -0.104 A  
HETATM   37  C   UNL     1      -6.882   6.944  72.930  1.00  0.00    -0.070 C  
HETATM   38  F   UNL     1     -10.778   2.487  72.914  1.00  0.00    -0.222 F  
HETATM   39  C   UNL     1      -9.086   7.009  71.684  1.00  0.00    -0.139 A  
HETATM   40  C   UNL     1      -8.294   4.884  72.523  1.00  0.00    -0.119 A  
HETATM   41  F   UNL     1      -5.726   6.437  72.420  1.00  0.00    -0.034 F  
HETATM   42  F   UNL     1      -6.794   6.813  74.279  1.00  0.00    -0.081 F  
HETATM   43  F   UNL     1      -6.845   8.281  72.677  1.00  0.00    -0.075 F  
HETATM   44  F   UNL     1      -8.629   2.161  72.884  1.00  0.00    -0.060 F  
HETATM   45  C   UNL     1      -9.436   4.252  72.013  1.00  0.00    -0.192 A  
HETATM   46  C   UNL     1     -10.400   5.024  71.332  1.00  0.00    -0.251 A  
HETATM   47  C   UNL     1      -9.648   2.765  72.210  1.00  0.00    -0.129 C  
ENDBRANCH  31  34
ENDBRANCH   3  31
TORSDOF 7
ENDMDL
MODEL       49
REMARK 921   NORMALIZED FREE ENERGY PREDICTED BY IDOCK:   -6.63 KCAL/MOL
REMARK 922        TOTAL FREE ENERGY PREDICTED BY IDOCK:   -9.98 KCAL/MOL
REMARK 923 INTER-LIGAND FREE ENERGY PREDICTED BY IDOCK:   -9.94 KCAL/MOL
REMARK 924 INTRA-LIGAND FREE ENERGY PREDICTED BY IDOCK:   -0.04 KCAL/MOL
REMARK 927      BINDING AFFINITY PREDICTED BY RF-SCORE:    0.00 PKD
ROOT
HETATM    1  C   UNL     1     -11.538  13.343  66.860  1.00  0.00    -0.365 C  
HETATM    2  N   UNL     1     -10.446  13.071  67.802  1.00  0.00    -0.224 N  
HETATM    3  C   UNL     1      -9.879  14.008  68.676  1.00  0.00    -0.191 C  
HETATM    4  O   UNL     1      -8.813  13.748  69.249  1.00  0.00     0.327 OA 
ENDROOT
BRANCH   2   5
HETATM    5  C   UNL     1      -9.636  11.946  67.411  1.00  0.00    -0.174 A  
HETATM    6  C   UNL     1      -9.044   9.636  67.287  1.00  0.00    -0.150 A  
HETATM    7  C   UNL     1      -8.842  12.083  66.266  1.00  0.00    -0.075 A  
HETATM    8  C   UNL     1      -9.710  10.671  68.005  1.00  0.00    -0.170 A  
HETATM    9  C   UNL     1      -8.259   9.841  66.141  1.00  0.00    -0.120 A  
HETATM   10  N   UNL     1      -8.158  11.086  65.649  1.00  0.00    -0.062 NA 
BRANCH   9  11
HETATM   11  N   UNL     1      -7.590   8.823  65.486  1.00  0.00    -0.085 NA 
HETATM   12  C   UNL     1      -6.227   8.425  65.909  1.00  0.00    -0.052 C  
HETATM   13  N   UNL     1      -6.743   6.017  65.146  1.00  0.00    -0.043 N  
HETATM   14  C   UNL     1      -5.805   5.890  63.969  1.00  0.00    -0.021 C  
HETATM   15  C   UNL     1      -8.138   8.026  64.387  1.00  0.00    -0.123 C  
HETATM   16  C   UNL     1      -6.154   6.912  66.262  1.00  0.00    -0.035 C  
HETATM   17  C   UNL     1      -8.133   6.531  64.749  1.00  0.00    -0.112 C  
BRANCH  13  18
HETATM   18  C   UNL     1      -6.982   4.610  65.714  1.00  0.00    -0.063 C  
BRANCH  18  19
HETATM   19  O   UNL     1      -7.953   4.526  66.713  1.00  0.00    -0.101 OA 
HETATM   20  O   UNL     1      -7.936   2.144  65.801  1.00  0.00    -0.079 OA 
HETATM   21  O   UNL     1      -9.527   2.863  67.798  1.00  0.00    -0.210 OA 
HETATM   22  O   UNL     1      -9.902   3.716  65.530  1.00  0.00    -0.151 OA 
HETATM   23  P   UNL     1      -8.783   3.148  66.536  1.00  0.00    -0.147 P  
ENDBRANCH  18  19
ENDBRANCH  13  18
ENDBRANCH   9  11
BRANCH   8  24
HETATM   24  C   UNL     1     -10.461  10.329  69.274  1.00  0.00    -0.250 A  
HETATM   25  C   UNL     1     -11.803  10.743  69.438  1.00  0.00    -0.370 A  
HETATM   26  C   UNL     1     -12.563  10.462  70.580  1.00  0.00    -0.435 A  
HETATM   27  C   UNL     1      -8.489   9.083  70.430  1.00  0.00    -0.201 C  
HETATM   28  C   UNL     1      -9.914   9.579  70.359  1.00  0.00    -0.325 A  
HETATM   29  C   UNL     1     -12.024   9.695  71.595  1.00  0.00    -0.470 A  
HETATM   30  C   UNL     1     -10.718   9.244  71.478  1.00  0.00    -0.425 A  
ENDBRANCH   8  24
ENDBRANCH   2   5
BRANCH   3  31
HETATM   31  C   UNL     1     -10.573  15.395  68.944  1.00  0.00    -0.244 C  
HETATM   32  C   UNL     1     -10.802  15.543  70.481  1.00  0.00    -0.353 C  
HETATM   33  C   UNL     1     -12.004  15.426  68.353  1.00  0.00    -0.156 C  
BRANCH  31  34
HETATM   34  C   UNL     1      -9.679  16.585  68.519  1.00  0.00    -0.239 A  
HETATM   35  F   UNL     1      -5.332  16.744  68.461  1.00  0.00    -0.114 F  
HETATM   36  C   UNL     1      -9.415  18.816  67.516  1.00  0.00    -0.326 A  
HETATM   37  C   UNL     1     -10.023  20.003  66.804  1.00  0.00    -0.454 C  
HETATM   38  F   UNL     1      -5.903  17.663  70.351  1.00  0.00    -0.246 F  
HETATM   39  C   UNL     1     -10.201  17.695  67.831  1.00  0.00    -0.357 A  
HETATM   40  C   UNL     1      -8.067  18.830  67.895  1.00  0.00    -0.284 A  
HETATM   41  F   UNL     1      -9.399  20.273  65.625  1.00  0.00    -0.364 F  
HETATM   42  F   UNL     1      -9.958  21.143  67.540  1.00  0.00    -0.585 F  
HETATM   43  F   UNL     1     -11.338  19.828  66.495  1.00  0.00    -0.420 F  
HETATM   44  F   UNL     1      -5.403  18.908  68.642  1.00  0.00    -0.186 F  
HETATM   45  C   UNL     1      -7.502  17.739  68.573  1.00  0.00    -0.272 A  
HETATM   46  C   UNL     1      -8.313  16.624  68.869  1.00  0.00    -0.230 A  
HETATM   47  C   UNL     1      -6.050  17.765  69.003  1.00  0.00    -0.211 C  
ENDBRANCH  31  34
ENDBRANCH   3  31
TORSDOF 7
ENDMDL
MODEL       50
REMARK 921   NORMALIZED FREE ENERGY PREDICTED BY IDOCK:   -6.62 KCAL/MOL
REMARK 922        TOTAL FREE ENERGY PREDICTED BY IDOCK:   -9.97 KCAL/MOL
REMARK 923 INTER-LIGAND FREE ENERGY PREDICTED BY IDOCK:   -9.15 KCAL/MOL
REMARK 924 INTRA-LIGAND FREE ENERGY PREDICTED BY IDOCK:   -0.82 KCAL/MOL
REMARK 927      BINDING AFFINITY PREDICTED BY RF-SCORE:    0.00 PKD
ROOT
HETATM    1  C   UNL     1     -10.838  10.718  68.958  1.00  0.00    -0.235 C  
HETATM    2  N   UNL     1      -9.607  10.534  68.180  1.00  0.00    -0.151 N  
HETATM    3  C   UNL     1      -8.856   9.352  68.121  1.00  0.00    -0.124 C  
HETATM    4  O   UNL     1      -7.715   9.372  67.640  1.00  0.00    -0.088 OA 
ENDROOT
BRANCH   2   5
HETATM    5  C   UNL     1      -8.925  11.774  67.908  1.00  0.00    -0.180 A  
HETATM    6  C   UNL     1      -8.683  13.959  66.977  1.00  0.00    -0.215 A  
HETATM    7  C   UNL     1      -7.938  12.185  68.812  1.00  0.00     0.007 A  
HETATM    8  C   UNL     1      -9.293  12.674  66.890  1.00  0.00    -0.228 A  
HETATM    9  C   UNL     1      -7.694  14.309  67.911  1.00  0.00    -0.152 A  
HETATM   10  N   UNL     1      -7.321  13.393  68.820  1.00  0.00    -0.098 NA 
BRANCH   9  11
HETATM   11  N   UNL     1      -7.089  15.551  67.947  1.00  0.00    -0.126 NA 
HETATM   12  C   UNL     1      -6.434  16.105  66.740  1.00  0.00     0.179 C  
HETATM   13  N   UNL     1      -7.045  18.474  67.550  1.00  0.00    -0.205 N  
HETATM   14  C   UNL     1      -5.673  19.027  67.859  1.00  0.00    -0.194 C  
HETATM   15  C   UNL     1      -7.068  16.443  69.109  1.00  0.00    -0.224 C  
HETATM   16  C   UNL     1      -7.018  17.493  66.354  1.00  0.00    -0.280 C  
HETATM   17  C   UNL     1      -7.703  17.799  68.760  1.00  0.00    -0.252 C  
BRANCH  13  18
HETATM   18  C   UNL     1      -7.963  19.655  67.200  1.00  0.00    -0.275 C  
BRANCH  18  19
HETATM   19  O   UNL     1      -8.710  19.507  66.032  1.00  0.00    -0.387 OA 
HETATM   20  O   UNL     1     -10.409  20.580  67.602  1.00  0.00    -0.272 OA 
HETATM   21  O   UNL     1     -11.018  19.967  65.095  1.00  0.00    -0.291 OA 
HETATM   22  O   UNL     1     -10.618  18.204  66.751  1.00  0.00    -0.357 OA 
HETATM   23  P   UNL     1     -10.277  19.729  66.368  1.00  0.00    -0.531 P  
ENDBRANCH  18  19
ENDBRANCH  13  18
ENDBRANCH   9  11
BRANCH   8  24
HETATM   24  C   UNL     1     -10.291  12.400  65.785  1.00  0.00    -0.289 A  
HETATM   25  C   UNL     1     -11.554  13.034  65.796  1.00  0.00    -0.396 A  
HETATM   26  C   UNL     1     -12.527  12.833  64.809  1.00  0.00    -0.539 A  
HETATM   27  C   UNL     1      -8.798  10.708  64.485  1.00  0.00    -0.189 C  
HETATM   28  C   UNL     1     -10.050  11.532  64.676  1.00  0.00    -0.318 A  
HETATM   29  C   UNL     1     -12.251  12.024  63.724  1.00  0.00    -0.600 A  
HETATM   30  C   UNL     1     -11.018  11.393  63.650  1.00  0.00    -0.443 A  
ENDBRANCH   8  24
ENDBRANCH   2   5
BRANCH   3  31
HETATM   31  C   UNL     1      -9.434   7.992  68.662  1.00  0.00    -0.147 C  
HETATM   32  C   UNL     1     -10.992   8.097  68.696  1.00  0.00     0.161 C  
HETATM   33  C   UNL     1      -9.047   7.772  70.145  1.00  0.00    -0.153 C  
BRANCH  31  34
HETATM   34  C   UNL     1      -9.097   6.804  67.729  1.00  0.00    -0.117 A  
HETATM   35  F   UNL     1      -9.689   2.567  68.519  1.00  0.00    -0.254 F  
HETATM   36  C   UNL     1      -8.402   5.930  65.537  1.00  0.00    -0.145 A  
HETATM   37  C   UNL     1      -8.052   6.181  64.088  1.00  0.00    -0.081 C  
HETATM   38  F   UNL     1      -7.605   2.947  69.026  1.00  0.00    -0.047 F  
HETATM   39  C   UNL     1      -8.792   6.992  66.369  1.00  0.00    -0.158 A  
HETATM   40  C   UNL     1      -8.317   4.640  66.076  1.00  0.00    -0.114 A  
HETATM   41  F   UNL     1      -8.835   5.464  63.236  1.00  0.00    -0.107 F  
HETATM   42  F   UNL     1      -6.767   5.847  63.797  1.00  0.00    -0.034 F  
HETATM   43  F   UNL     1      -8.197   7.483  63.718  1.00  0.00    -0.133 F  
HETATM   44  F   UNL     1      -8.117   2.077  67.101  1.00  0.00    -0.064 F  
HETATM   45  C   UNL     1      -8.623   4.405  67.424  1.00  0.00    -0.105 A  
HETATM   46  C   UNL     1      -9.019   5.489  68.234  1.00  0.00    -0.109 A  
HETATM   47  C   UNL     1      -8.508   3.013  68.011  1.00  0.00    -0.083 C  
ENDBRANCH  31  34
ENDBRANCH   3  31
TORSDOF 7
ENDMDL
MODEL       51
REMARK 921   NORMALIZED FREE ENERGY PREDICTED BY IDOCK:   -6.59 KCAL/MOL
REMARK 922        TOTAL FREE ENERGY PREDICTED BY IDOCK:   -9.93 KCAL/MOL
REMARK 923 INTER-LIGAND FREE ENERGY PREDICTED BY IDOCK:   -8.27 KCAL/MOL
REMARK 924 INTRA-LIGAND FREE ENERGY PREDICTED BY IDOCK:   -1.67 KCAL/MOL
REMARK 927      BINDING AFFINITY PREDICTED BY RF-SCORE:    0.00 PKD
ROOT
HETATM    1  C   UNL     1      -5.694   8.359  67.642  1.00  0.00    -0.039 C  
HETATM    2  N   UNL     1      -6.645   9.113  66.818  1.00  0.00    -0.067 N  
HETATM    3  C   UNL     1      -7.063   8.753  65.530  1.00  0.00    -0.083 C  
HETATM    4  O   UNL     1      -7.670   9.573  64.828  1.00  0.00    -0.110 OA 
ENDROOT
BRANCH   2   5
HETATM    5  C   UNL     1      -6.718  10.507  67.179  1.00  0.00    -0.079 A  
HETATM    6  C   UNL     1      -7.306  12.362  68.561  1.00  0.00    -0.105 A  
HETATM    7  C   UNL     1      -5.750  11.368  66.648  1.00  0.00    -0.142 A  
HETATM    8  C   UNL     1      -7.594  11.029  68.150  1.00  0.00    -0.095 A  
HETATM    9  C   UNL     1      -6.317  13.177  67.985  1.00  0.00    -0.127 A  
HETATM   10  N   UNL     1      -5.552  12.660  67.010  1.00  0.00    -0.326 NA 
BRANCH   9  11
HETATM   11  N   UNL     1      -6.086  14.483  68.375  1.00  0.00    -0.093 NA 
HETATM   12  C   UNL     1      -5.316  15.402  67.506  1.00  0.00     0.061 C  
HETATM   13  N   UNL     1      -6.706  17.366  68.431  1.00  0.00    -0.180 N  
HETATM   14  C   UNL     1      -5.648  18.118  69.205  1.00  0.00    -0.213 C  
HETATM   15  C   UNL     1      -6.590  15.095  69.606  1.00  0.00    -0.173 C  
HETATM   16  C   UNL     1      -6.125  16.687  67.169  1.00  0.00    -0.167 C  
HETATM   17  C   UNL     1      -7.448  16.330  69.284  1.00  0.00    -0.217 C  
BRANCH  13  18
HETATM   18  C   UNL     1      -7.781  18.375  68.000  1.00  0.00    -0.261 C  
BRANCH  18  19
HETATM   19  O   UNL     1      -8.952  17.818  67.487  1.00  0.00    -0.241 OA 
HETATM   20  O   UNL     1      -8.469  19.662  65.793  1.00  0.00    -0.401 OA 
HETATM   21  O   UNL     1     -10.565  18.056  65.546  1.00  0.00    -0.639 OA 
HETATM   22  O   UNL     1     -10.459  19.706  67.357  1.00  0.00    -0.424 OA 
HETATM   23  P   UNL     1      -9.568  18.807  66.364  1.00  0.00    -0.269 P  
ENDBRANCH  18  19
ENDBRANCH  13  18
ENDBRANCH   9  11
BRANCH   8  24
HETATM   24  C   UNL     1      -8.739  10.283  68.800  1.00  0.00    -0.144 A  
HETATM   25  C   UNL     1      -8.625   9.828  70.133  1.00  0.00    -0.214 A  
HETATM   26  C   UNL     1      -9.642   9.135  70.802  1.00  0.00    -0.338 A  
HETATM   27  C   UNL     1     -10.312  10.341  66.725  1.00  0.00    -0.288 C  
HETATM   28  C   UNL     1      -9.986  10.002  68.161  1.00  0.00    -0.176 A  
HETATM   29  C   UNL     1     -10.854   8.917  70.176  1.00  0.00    -0.251 A  
HETATM   30  C   UNL     1     -11.030   9.360  68.874  1.00  0.00    -0.081 A  
ENDBRANCH   8  24
ENDBRANCH   2   5
BRANCH   3  31
HETATM   31  C   UNL     1      -6.771   7.319  64.950  1.00  0.00    -0.047 C  
HETATM   32  C   UNL     1      -5.431   6.803  65.564  1.00  0.00    -0.026 C  
HETATM   33  C   UNL     1      -6.480   7.381  63.430  1.00  0.00    -0.053 C  
BRANCH  31  34
HETATM   34  C   UNL     1      -7.859   6.295  65.353  1.00  0.00    -0.104 A  
HETATM   35  F   UNL     1      -9.141   2.783  63.129  1.00  0.00    -0.094 F  
HETATM   36  C   UNL     1      -9.433   5.379  67.007  1.00  0.00    -0.133 A  
HETATM   37  C   UNL     1      -9.992   5.381  68.411  1.00  0.00    -0.161 C  
HETATM   38  F   UNL     1     -10.585   4.330  62.616  1.00  0.00    -0.188 F  
HETATM   39  C   UNL     1      -8.385   6.247  66.656  1.00  0.00    -0.112 A  
HETATM   40  C   UNL     1      -9.968   4.529  66.030  1.00  0.00    -0.265 A  
HETATM   41  F   UNL     1      -9.893   4.162  69.009  1.00  0.00    -0.242 F  
HETATM   42  F   UNL     1     -11.308   5.718  68.448  1.00  0.00    -0.283 F  
HETATM   43  F   UNL     1      -9.356   6.253  69.241  1.00  0.00    -0.134 F  
HETATM   44  F   UNL     1     -11.070   2.847  64.129  1.00  0.00    -0.087 F  
HETATM   45  C   UNL     1      -9.465   4.536  64.721  1.00  0.00    -0.126 A  
HETATM   46  C   UNL     1      -8.409   5.413  64.399  1.00  0.00    -0.129 A  
HETATM   47  C   UNL     1     -10.061   3.634  63.660  1.00  0.00    -0.199 C  
ENDBRANCH  31  34
ENDBRANCH   3  31
TORSDOF 7
ENDMDL
MODEL       52
REMARK 921   NORMALIZED FREE ENERGY PREDICTED BY IDOCK:   -6.55 KCAL/MOL
REMARK 922        TOTAL FREE ENERGY PREDICTED BY IDOCK:   -9.87 KCAL/MOL
REMARK 923 INTER-LIGAND FREE ENERGY PREDICTED BY IDOCK:   -9.71 KCAL/MOL
REMARK 924 INTRA-LIGAND FREE ENERGY PREDICTED BY IDOCK:   -0.16 KCAL/MOL
REMARK 927      BINDING AFFINITY PREDICTED BY RF-SCORE:    0.00 PKD
ROOT
HETATM    1  C   UNL     1      -8.941   9.527  67.332  1.00  0.00    -0.131 C  
HETATM    2  N   UNL     1      -8.334  10.662  68.038  1.00  0.00    -0.116 N  
HETATM    3  C   UNL     1      -7.544  10.567  69.192  1.00  0.00    -0.123 C  
HETATM    4  O   UNL     1      -7.285  11.587  69.845  1.00  0.00     0.124 OA 
ENDROOT
BRANCH   2   5
HETATM    5  C   UNL     1      -9.022  11.905  67.798  1.00  0.00    -0.173 A  
HETATM    6  C   UNL     1     -10.548  13.671  68.299  1.00  0.00    -0.261 A  
HETATM    7  C   UNL     1      -8.398  12.845  66.971  1.00  0.00    -0.107 A  
HETATM    8  C   UNL     1     -10.198  12.300  68.465  1.00  0.00    -0.213 A  
HETATM    9  C   UNL     1      -9.878  14.566  67.448  1.00  0.00    -0.227 A  
HETATM   10  N   UNL     1      -8.803  14.125  66.775  1.00  0.00    -0.207 NA 
BRANCH   9  11
HETATM   11  N   UNL     1     -10.265  15.882  67.274  1.00  0.00    -0.272 NA 
HETATM   12  C   UNL     1     -10.861  16.645  68.395  1.00  0.00    -0.361 C  
HETATM   13  N   UNL     1      -9.832  18.797  67.417  1.00  0.00    -0.308 N  
HETATM   14  C   UNL     1     -11.079  19.536  66.992  1.00  0.00    -0.166 C  
HETATM   15  C   UNL     1     -10.094  16.653  66.041  1.00  0.00    -0.340 C  
HETATM   16  C   UNL     1     -10.066  17.949  68.689  1.00  0.00    -0.394 C  
HETATM   17  C   UNL     1      -9.253  17.914  66.304  1.00  0.00    -0.185 C  
BRANCH  13  18
HETATM   18  C   UNL     1      -8.742  19.839  67.710  1.00  0.00    -0.325 C  
BRANCH  18  19
HETATM   19  O   UNL     1      -8.066  19.673  68.918  1.00  0.00    -0.330 OA 
HETATM   20  O   UNL     1      -6.161  20.284  67.337  1.00  0.00    -0.195 OA 
HETATM   21  O   UNL     1      -5.739  19.813  69.912  1.00  0.00    -0.236 OA 
HETATM   22  O   UNL     1      -6.399  17.999  68.400  1.00  0.00    -0.187 OA 
HETATM   23  P   UNL     1      -6.475  19.589  68.634  1.00  0.00    -0.293 P  
ENDBRANCH  18  19
ENDBRANCH  13  18
ENDBRANCH   9  11
BRANCH   8  24
HETATM   24  C   UNL     1     -11.050  11.419  69.353  1.00  0.00    -0.301 A  
HETATM   25  C   UNL     1     -11.003  10.014  69.214  1.00  0.00    -0.264 A  
HETATM   26  C   UNL     1     -11.759   9.135  70.000  1.00  0.00     0.130 A  
HETATM   27  C   UNL     1     -12.177  13.366  70.664  1.00  0.00    -0.427 C  
HETATM   28  C   UNL     1     -11.923  11.906  70.374  1.00  0.00    -0.400 A  
HETATM   29  C   UNL     1     -12.561   9.630  71.011  1.00  0.00    -0.367 A  
HETATM   30  C   UNL     1     -12.629  11.001  71.206  1.00  0.00    -0.517 A  
ENDBRANCH   8  24
ENDBRANCH   2   5
BRANCH   3  31
HETATM   31  C   UNL     1      -6.979   9.183  69.681  1.00  0.00    -0.055 C  
HETATM   32  C   UNL     1      -6.201   9.411  71.015  1.00  0.00    -0.080 C  
HETATM   33  C   UNL     1      -5.896   8.649  68.710  1.00  0.00    -0.044 C  
BRANCH  31  34
HETATM   34  C   UNL     1      -8.107   8.172  69.999  1.00  0.00    -0.114 A  
HETATM   35  F   UNL     1     -10.873   8.264  73.355  1.00  0.00    -0.247 F  
HETATM   36  C   UNL     1      -9.504   6.250  69.365  1.00  0.00    -0.148 A  
HETATM   37  C   UNL     1      -9.920   5.229  68.330  1.00  0.00    -0.156 C  
HETATM   38  F   UNL     1      -9.287   6.905  73.972  1.00  0.00    -0.177 F  
HETATM   39  C   UNL     1      -8.541   7.225  69.055  1.00  0.00    -0.129 A  
HETATM   40  C   UNL     1     -10.055   6.221  70.652  1.00  0.00    -0.230 A  
HETATM   41  F   UNL     1     -11.256   5.271  68.070  1.00  0.00     0.011 F  
HETATM   42  F   UNL     1      -9.647   3.955  68.716  1.00  0.00    -0.205 F  
HETATM   43  F   UNL     1      -9.303   5.399  67.128  1.00  0.00    -0.115 F  
HETATM   44  F   UNL     1     -11.155   6.115  73.190  1.00  0.00    -0.261 F  
HETATM   45  C   UNL     1      -9.659   7.155  71.621  1.00  0.00    -0.163 A  
HETATM   46  C   UNL     1      -8.695   8.127  71.281  1.00  0.00    -0.173 A  
HETATM   47  C   UNL     1     -10.237   7.108  73.020  1.00  0.00    -0.251 C  
ENDBRANCH  31  34
ENDBRANCH   3  31
TORSDOF 7
ENDMDL
MODEL       53
REMARK 921   NORMALIZED FREE ENERGY PREDICTED BY IDOCK:   -6.51 KCAL/MOL
REMARK 922        TOTAL FREE ENERGY PREDICTED BY IDOCK:   -9.82 KCAL/MOL
REMARK 923 INTER-LIGAND FREE ENERGY PREDICTED BY IDOCK:   -8.09 KCAL/MOL
REMARK 924 INTRA-LIGAND FREE ENERGY PREDICTED BY IDOCK:   -1.72 KCAL/MOL
REMARK 927      BINDING AFFINITY PREDICTED BY RF-SCORE:    0.00 PKD
ROOT
HETATM    1  C   UNL     1      -6.633  10.935  70.536  1.00  0.00     0.179 C  
HETATM    2  N   UNL     1      -6.881  10.486  69.161  1.00  0.00    -0.066 N  
HETATM    3  C   UNL     1      -7.301  11.307  68.105  1.00  0.00    -0.088 C  
HETATM    4  O   UNL     1      -7.715  10.795  67.056  1.00  0.00    -0.112 OA 
ENDROOT
BRANCH   2   5
HETATM    5  C   UNL     1      -7.184   9.080  69.076  1.00  0.00    -0.072 A  
HETATM    6  C   UNL     1      -8.601   7.179  68.798  1.00  0.00    -0.125 A  
HETATM    7  C   UNL     1      -6.155   8.215  68.688  1.00  0.00    -0.044 A  
HETATM    8  C   UNL     1      -8.479   8.540  69.200  1.00  0.00    -0.125 A  
HETATM    9  C   UNL     1      -7.523   6.361  68.419  1.00  0.00    -0.088 A  
HETATM   10  N   UNL     1      -6.293   6.900  68.383  1.00  0.00    -0.034 NA 
BRANCH   9  11
HETATM   11  N   UNL     1      -7.664   5.030  68.071  1.00  0.00    -0.083 NA 
HETATM   12  C   UNL     1      -9.000   4.390  68.076  1.00  0.00    -0.119 C  
HETATM   13  N   UNL     1      -8.216   2.849  66.164  1.00  0.00    -0.083 N  
HETATM   14  C   UNL     1      -8.196   1.514  66.870  1.00  0.00    -0.077 C  
HETATM   15  C   UNL     1      -6.576   4.155  67.633  1.00  0.00    -0.042 C  
HETATM   16  C   UNL     1      -9.343   3.767  66.693  1.00  0.00    -0.190 C  
HETATM   17  C   UNL     1      -6.871   3.583  66.236  1.00  0.00    -0.053 C  
BRANCH  13  18
HETATM   18  C   UNL     1      -8.452   2.588  64.668  1.00  0.00    -0.089 C  
BRANCH  18  19
HETATM   19  O   UNL     1      -9.616   1.885  64.360  1.00  0.00    -0.135 OA 
HETATM   20  O   UNL     1      -9.413   3.456  62.361  1.00  0.00    -0.087 OA 
HETATM   21  O   UNL     1     -11.397   1.707  62.566  1.00  0.00    -0.192 OA 
HETATM   22  O   UNL     1     -11.265   3.633  64.078  1.00  0.00    -0.300 OA 
HETATM   23  P   UNL     1     -10.394   2.640  63.159  1.00  0.00    -0.196 P  
ENDBRANCH  18  19
ENDBRANCH  13  18
ENDBRANCH   9  11
BRANCH   8  24
HETATM   24  C   UNL     1      -9.709   9.290  69.662  1.00  0.00    -0.192 A  
HETATM   25  C   UNL     1     -10.468  10.046  68.740  1.00  0.00    -0.229 A  
HETATM   26  C   UNL     1     -11.619  10.763  69.092  1.00  0.00    -0.376 A  
HETATM   27  C   UNL     1      -9.525   8.597  72.166  1.00  0.00    -0.373 C  
HETATM   28  C   UNL     1     -10.201   9.286  71.004  1.00  0.00    -0.384 A  
HETATM   29  C   UNL     1     -12.098  10.705  70.386  1.00  0.00    -0.430 A  
HETATM   30  C   UNL     1     -11.405   9.961  71.329  1.00  0.00    -0.404 A  
ENDBRANCH   8  24
ENDBRANCH   2   5
BRANCH   3  31
HETATM   31  C   UNL     1      -7.263  12.875  68.228  1.00  0.00    -0.112 C  
HETATM   32  C   UNL     1      -6.361  13.437  67.084  1.00  0.00     0.461 C  
HETATM   33  C   UNL     1      -6.533  13.315  69.521  1.00  0.00    -0.078 C  
BRANCH  31  34
HETATM   34  C   UNL     1      -8.661  13.509  68.034  1.00  0.00    -0.181 A  
HETATM   35  F   UNL     1     -10.995  15.718  70.966  1.00  0.00    -0.329 F  
HETATM   36  C   UNL     1     -10.534  14.165  66.581  1.00  0.00    -0.278 A  
HETATM   37  C   UNL     1     -11.123  14.291  65.194  1.00  0.00    -0.352 C  
HETATM   38  F   UNL     1     -11.772  13.685  71.046  1.00  0.00    -0.315 F  
HETATM   39  C   UNL     1      -9.232  13.669  66.759  1.00  0.00    -0.251 A  
HETATM   40  C   UNL     1     -11.288  14.517  67.707  1.00  0.00    -0.335 A  
HETATM   41  F   UNL     1     -11.491  15.568  64.903  1.00  0.00    -0.363 F  
HETATM   42  F   UNL     1     -12.235  13.527  65.028  1.00  0.00    -0.361 F  
HETATM   43  F   UNL     1     -10.260  13.919  64.208  1.00  0.00    -0.441 F  
HETATM   44  F   UNL     1     -12.822  15.208  69.905  1.00  0.00    -0.287 F  
HETATM   45  C   UNL     1     -10.753  14.385  68.997  1.00  0.00    -0.261 A  
HETATM   46  C   UNL     1      -9.441  13.891  69.146  1.00  0.00     0.280 A  
HETATM   47  C   UNL     1     -11.578  14.744  70.215  1.00  0.00    -0.282 C  
ENDBRANCH  31  34
ENDBRANCH   3  31
TORSDOF 7
ENDMDL
MODEL       54
REMARK 921   NORMALIZED FREE ENERGY PREDICTED BY IDOCK:   -6.43 KCAL/MOL
REMARK 922        TOTAL FREE ENERGY PREDICTED BY IDOCK:   -9.71 KCAL/MOL
REMARK 923 INTER-LIGAND FREE ENERGY PREDICTED BY IDOCK:   -8.90 KCAL/MOL
REMARK 924 INTRA-LIGAND FREE ENERGY PREDICTED BY IDOCK:   -0.81 KCAL/MOL
REMARK 927      BINDING AFFINITY PREDICTED BY RF-SCORE:    0.00 PKD
ROOT
HETATM    1  C   UNL     1     -11.287  12.891  67.299  1.00  0.00    -0.310 C  
HETATM    2  N   UNL     1     -10.101  12.366  67.984  1.00  0.00    -0.208 N  
HETATM    3  C   UNL     1      -8.834  12.966  67.983  1.00  0.00    -0.195 C  
HETATM    4  O   UNL     1      -7.851  12.328  68.380  1.00  0.00    -0.143 OA 
ENDROOT
BRANCH   2   5
HETATM    5  C   UNL     1     -10.167  10.945  68.211  1.00  0.00    -0.173 A  
HETATM    6  C   UNL     1      -9.625   8.655  67.805  1.00  0.00    -0.178 A  
HETATM    7  C   UNL     1     -10.516  10.506  69.493  1.00  0.00    -0.235 A  
HETATM    8  C   UNL     1      -9.750   9.974  67.280  1.00  0.00    -0.206 A  
HETATM    9  C   UNL     1      -9.995   8.278  69.106  1.00  0.00    -0.196 A  
HETATM   10  N   UNL     1     -10.456   9.226  69.939  1.00  0.00    -0.215 NA 
BRANCH   9  11
HETATM   11  N   UNL     1      -9.902   6.982  69.578  1.00  0.00    -0.160 NA 
HETATM   12  C   UNL     1     -10.965   5.995  69.279  1.00  0.00    -0.366 C  
HETATM   13  N   UNL     1      -9.184   4.132  69.327  1.00  0.00    -0.132 N  
HETATM   14  C   UNL     1      -9.607   3.371  70.562  1.00  0.00    -0.161 C  
HETATM   15  C   UNL     1      -8.777   6.445  70.346  1.00  0.00    -0.147 C  
HETATM   16  C   UNL     1     -10.395   4.732  68.574  1.00  0.00     0.107 C  
HETATM   17  C   UNL     1      -8.160   5.234  69.626  1.00  0.00    -0.091 C  
BRANCH  13  18
HETATM   18  C   UNL     1      -8.458   3.151  68.394  1.00  0.00    -0.080 C  
BRANCH  18  19
HETATM   19  O   UNL     1      -8.862   3.184  67.060  1.00  0.00    -0.119 OA 
HETATM   20  O   UNL     1      -6.322   3.208  66.834  1.00  0.00    -0.034 OA 
HETATM   21  O   UNL     1      -7.912   3.229  64.711  1.00  0.00    -0.084 OA 
HETATM   22  O   UNL     1      -7.787   5.173  66.200  1.00  0.00    -0.100 OA 
HETATM   23  P   UNL     1      -7.599   3.577  66.128  1.00  0.00    -0.082 P  
ENDBRANCH  18  19
ENDBRANCH  13  18
ENDBRANCH   9  11
BRANCH   8  24
HETATM   24  C   UNL     1      -9.389  10.233  65.833  1.00  0.00    -0.226 A  
HETATM   25  C   UNL     1     -10.375  10.681  64.924  1.00  0.00    -0.347 A  
HETATM   26  C   UNL     1     -10.116  10.944  63.573  1.00  0.00    -0.406 A  
HETATM   27  C   UNL     1      -6.885   9.554  66.052  1.00  0.00    -0.090 C  
HETATM   28  C   UNL     1      -8.079  10.073  65.287  1.00  0.00    -0.145 A  
HETATM   29  C   UNL     1      -8.831  10.826  63.082  1.00  0.00    -0.209 A  
HETATM   30  C   UNL     1      -7.819  10.410  63.934  1.00  0.00    -0.057 A  
ENDBRANCH   8  24
ENDBRANCH   2   5
BRANCH   3  31
HETATM   31  C   UNL     1      -8.634  14.444  67.480  1.00  0.00    -0.199 C  
HETATM   32  C   UNL     1      -9.139  14.536  66.006  1.00  0.00     0.026 C  
HETATM   33  C   UNL     1      -7.130  14.798  67.377  1.00  0.00    -0.173 C  
BRANCH  31  34
HETATM   34  C   UNL     1      -9.476  15.456  68.294  1.00  0.00    -0.200 A  
HETATM   35  F   UNL     1     -11.112  14.928  72.290  1.00  0.00    -0.408 F  
HETATM   36  C   UNL     1     -10.411  17.710  68.599  1.00  0.00    -0.359 A  
HETATM   37  C   UNL     1     -10.521  19.147  68.139  1.00  0.00    -0.338 C  
HETATM   38  F   UNL     1     -12.750  14.434  70.943  1.00  0.00    -0.348 F  
HETATM   39  C   UNL     1      -9.582  16.805  67.915  1.00  0.00    -0.236 A  
HETATM   40  C   UNL     1     -11.152  17.257  69.698  1.00  0.00     0.622 A  
HETATM   41  F   UNL     1     -10.161  20.029  69.111  1.00  0.00    -0.486 F  
HETATM   42  F   UNL     1     -11.786  19.480  67.771  1.00  0.00    -0.035 F  
HETATM   43  F   UNL     1      -9.729  19.430  67.069  1.00  0.00    -0.336 F  
HETATM   44  F   UNL     1     -12.651  16.401  71.861  1.00  0.00    -0.464 F  
HETATM   45  C   UNL     1     -11.067  15.922  70.117  1.00  0.00    -0.369 A  
HETATM   46  C   UNL     1     -10.222  15.037  69.416  1.00  0.00    -0.229 A  
HETATM   47  C   UNL     1     -11.888  15.427  71.290  1.00  0.00    -0.380 C  
ENDBRANCH  31  34
ENDBRANCH   3  31
TORSDOF 7
ENDMDL
MODEL       55
REMARK 921   NORMALIZED FREE ENERGY PREDICTED BY IDOCK:   -6.41 KCAL/MOL
REMARK 922        TOTAL FREE ENERGY PREDICTED BY IDOCK:   -9.68 KCAL/MOL
REMARK 923 INTER-LIGAND FREE ENERGY PREDICTED BY IDOCK:  -10.75 KCAL/MOL
REMARK 924 INTRA-LIGAND FREE ENERGY PREDICTED BY IDOCK:    1.07 KCAL/MOL
REMARK 927      BINDING AFFINITY PREDICTED BY RF-SCORE:    0.00 PKD
ROOT
HETATM    1  C   UNL     1     -12.159  12.641  69.395  1.00  0.00    -0.179 C  
HETATM    2  N   UNL     1     -10.765  12.658  68.936  1.00  0.00    -0.206 N  
HETATM    3  C   UNL     1     -10.049  13.806  68.568  1.00  0.00    -0.225 C  
HETATM    4  O   UNL     1      -8.972  13.692  67.968  1.00  0.00    -0.173 OA 
ENDROOT
BRANCH   2   5
HETATM    5  C   UNL     1     -10.343  11.399  68.377  1.00  0.00    -0.195 A  
HETATM    6  C   UNL     1      -9.610   9.931  66.642  1.00  0.00    -0.235 A  
HETATM    7  C   UNL     1      -9.759  10.467  69.242  1.00  0.00    -0.214 A  
HETATM    8  C   UNL     1     -10.330  11.108  66.999  1.00  0.00    -0.263 A  
HETATM    9  C   UNL     1      -9.047   9.033  67.563  1.00  0.00    -0.132 A  
HETATM   10  N   UNL     1      -9.145   9.314  68.873  1.00  0.00    -0.138 NA 
BRANCH   9  11
HETATM   11  N   UNL     1      -8.388   7.876  67.191  1.00  0.00    -0.116 NA 
HETATM   12  C   UNL     1      -7.207   7.405  67.951  1.00  0.00    -0.091 C  
HETATM   13  N   UNL     1      -7.848   4.980  67.355  1.00  0.00    -0.095 N  
HETATM   14  C   UNL     1      -6.705   4.605  66.442  1.00  0.00    -0.053 C  
HETATM   15  C   UNL     1      -8.786   6.998  66.089  1.00  0.00    -0.147 C  
HETATM   16  C   UNL     1      -7.400   5.953  68.472  1.00  0.00    -0.085 C  
HETATM   17  C   UNL     1      -9.046   5.571  66.601  1.00  0.00    -0.126 C  
BRANCH  13  18
HETATM   18  C   UNL     1      -8.377   3.692  68.004  1.00  0.00    -0.091 C  
BRANCH  18  19
HETATM   19  O   UNL     1      -9.256   3.877  69.070  1.00  0.00    -0.126 OA 
HETATM   20  O   UNL     1      -7.267   2.774  70.223  1.00  0.00    -0.033 OA 
HETATM   21  O   UNL     1      -9.432   3.503  71.570  1.00  0.00    -0.128 OA 
HETATM   22  O   UNL     1      -9.520   1.647  69.970  1.00  0.00    -0.108 OA 
HETATM   23  P   UNL     1      -8.748   3.010  70.339  1.00  0.00    -0.088 P  
ENDBRANCH  18  19
ENDBRANCH  13  18
ENDBRANCH   9  11
BRANCH   8  24
HETATM   24  C   UNL     1     -10.957  11.952  65.911  1.00  0.00    -0.354 A  
HETATM   25  C   UNL     1     -12.019  12.834  66.219  1.00  0.00    -0.460 A  
HETATM   26  C   UNL     1     -12.646  13.648  65.268  1.00  0.00    -0.512 A  
HETATM   27  C   UNL     1      -9.469  11.048  63.975  1.00  0.00    -0.278 C  
HETATM   28  C   UNL     1     -10.542  11.947  64.544  1.00  0.00    -0.358 A  
HETATM   29  C   UNL     1     -12.194  13.657  63.963  1.00  0.00    -0.443 A  
HETATM   30  C   UNL     1     -11.142  12.827  63.608  1.00  0.00    -0.443 A  
ENDBRANCH   8  24
ENDBRANCH   2   5
BRANCH   3  31
HETATM   31  C   UNL     1     -10.591  15.245  68.901  1.00  0.00    -0.242 C  
HETATM   32  C   UNL     1     -10.772  15.358  70.447  1.00  0.00    -0.312 C  
HETATM   33  C   UNL     1     -12.023  15.444  68.346  1.00  0.00    -0.156 C  
BRANCH  31  34
HETATM   34  C   UNL     1      -9.588  16.353  68.496  1.00  0.00    -0.229 A  
HETATM   35  F   UNL     1      -5.244  16.172  68.637  1.00  0.00    -0.096 F  
HETATM   36  C   UNL     1      -9.106  18.534  67.467  1.00  0.00    -0.289 A  
HETATM   37  C   UNL     1      -9.587  19.749  66.706  1.00  0.00    -0.388 C  
HETATM   38  F   UNL     1      -5.824  17.174  70.481  1.00  0.00    -0.219 F  
HETATM   39  C   UNL     1      -9.990  17.484  67.765  1.00  0.00    -0.312 A  
HETATM   40  C   UNL     1      -7.779  18.451  67.908  1.00  0.00    -0.261 A  
HETATM   41  F   UNL     1      -8.890  19.945  65.553  1.00  0.00    -0.253 F  
HETATM   42  F   UNL     1      -9.465  20.896  67.424  1.00  0.00    -0.552 F  
HETATM   43  F   UNL     1     -10.896  19.670  66.340  1.00  0.00    -0.523 F  
HETATM   44  F   UNL     1      -5.152  18.339  68.775  1.00  0.00    -0.165 F  
HETATM   45  C   UNL     1      -7.332  17.335  68.630  1.00  0.00    -0.238 A  
HETATM   46  C   UNL     1      -8.240  16.293  68.908  1.00  0.00    -0.231 A  
HETATM   47  C   UNL     1      -5.903  17.258  69.126  1.00  0.00    -0.193 C  
ENDBRANCH  31  34
ENDBRANCH   3  31
TORSDOF 7
ENDMDL
MODEL       56
REMARK 921   NORMALIZED FREE ENERGY PREDICTED BY IDOCK:   -6.38 KCAL/MOL
REMARK 922        TOTAL FREE ENERGY PREDICTED BY IDOCK:   -9.64 KCAL/MOL
REMARK 923 INTER-LIGAND FREE ENERGY PREDICTED BY IDOCK:  -10.63 KCAL/MOL
REMARK 924 INTRA-LIGAND FREE ENERGY PREDICTED BY IDOCK:    0.99 KCAL/MOL
REMARK 927      BINDING AFFINITY PREDICTED BY RF-SCORE:    0.00 PKD
ROOT
HETATM    1  C   UNL     1     -11.914  12.279  69.361  1.00  0.00    -0.259 C  
HETATM    2  N   UNL     1     -10.521  12.490  68.951  1.00  0.00    -0.140 N  
HETATM    3  C   UNL     1      -9.947  13.731  68.645  1.00  0.00    -0.174 C  
HETATM    4  O   UNL     1      -8.847  13.777  68.078  1.00  0.00    -0.166 OA 
ENDROOT
BRANCH   2   5
HETATM    5  C   UNL     1      -9.925  11.316  68.366  1.00  0.00    -0.197 A  
HETATM    6  C   UNL     1      -9.030   9.990  66.593  1.00  0.00    -0.156 A  
HETATM    7  C   UNL     1      -9.174  10.482  69.202  1.00  0.00    -0.171 A  
HETATM    8  C   UNL     1      -9.913  11.037  66.985  1.00  0.00    -0.223 A  
HETATM    9  C   UNL     1      -8.302   9.187  67.486  1.00  0.00    -0.116 A  
HETATM   10  N   UNL     1      -8.399   9.443  68.801  1.00  0.00    -0.115 NA 
BRANCH   9  11
HETATM   11  N   UNL     1      -7.482   8.150  67.081  1.00  0.00    -0.088 NA 
HETATM   12  C   UNL     1      -7.251   6.984  67.964  1.00  0.00    -0.095 C  
HETATM   13  N   UNL     1      -6.977   5.508  65.869  1.00  0.00    -0.064 N  
HETATM   14  C   UNL     1      -5.511   5.157  65.963  1.00  0.00    -0.013 C  
HETATM   15  C   UNL     1      -6.818   8.062  65.778  1.00  0.00    -0.056 C  
HETATM   16  C   UNL     1      -7.630   5.648  67.264  1.00  0.00    -0.089 C  
HETATM   17  C   UNL     1      -7.236   6.776  65.045  1.00  0.00    -0.074 C  
BRANCH  13  18
HETATM   18  C   UNL     1      -7.685   4.380  65.103  1.00  0.00    -0.085 C  
BRANCH  18  19
HETATM   19  O   UNL     1      -8.918   4.718  64.546  1.00  0.00    -0.153 OA 
HETATM   20  O   UNL     1      -9.326   2.314  65.291  1.00  0.00    -0.119 OA 
HETATM   21  O   UNL     1     -11.223   3.753  64.123  1.00  0.00    -0.317 OA 
HETATM   22  O   UNL     1      -9.255   3.016  62.860  1.00  0.00    -0.091 OA 
HETATM   23  P   UNL     1      -9.795   3.375  64.332  1.00  0.00    -0.143 P  
ENDBRANCH  18  19
ENDBRANCH  13  18
ENDBRANCH   9  11
BRANCH   8  24
HETATM   24  C   UNL     1     -10.701  11.778  65.926  1.00  0.00    -0.328 A  
HETATM   25  C   UNL     1     -11.851  12.517  66.284  1.00  0.00    -0.453 A  
HETATM   26  C   UNL     1     -12.629  13.230  65.363  1.00  0.00    -0.526 A  
HETATM   27  C   UNL     1      -9.209  11.050  63.920  1.00  0.00    -0.181 C  
HETATM   28  C   UNL     1     -10.359  11.809  64.540  1.00  0.00    -0.340 A  
HETATM   29  C   UNL     1     -12.249  13.281  64.035  1.00  0.00    -0.475 A  
HETATM   30  C   UNL     1     -11.117  12.591  63.631  1.00  0.00    -0.523 A  
ENDBRANCH   8  24
ENDBRANCH   2   5
BRANCH   3  31
HETATM   31  C   UNL     1     -10.678  15.077  69.007  1.00  0.00    -0.239 C  
HETATM   32  C   UNL     1     -10.831  15.154  70.558  1.00  0.00    -0.230 C  
HETATM   33  C   UNL     1     -12.139  15.074  68.492  1.00  0.00    -0.177 C  
BRANCH  31  34
HETATM   34  C   UNL     1      -9.854  16.319  68.586  1.00  0.00    -0.230 A  
HETATM   35  F   UNL     1     -11.352  20.055  66.937  1.00  0.00    -0.369 F  
HETATM   36  C   UNL     1      -7.728  17.552  68.504  1.00  0.00    -0.272 A  
HETATM   37  C   UNL     1      -6.271  17.662  68.895  1.00  0.00    -0.207 C  
HETATM   38  F   UNL     1     -10.737  18.884  65.207  1.00  0.00    -0.430 F  
HETATM   39  C   UNL     1      -8.506  16.471  68.952  1.00  0.00    -0.235 A  
HETATM   40  C   UNL     1      -8.314  18.512  67.669  1.00  0.00    -0.268 A  
HETATM   41  F   UNL     1      -6.000  18.820  69.557  1.00  0.00    -0.224 F  
HETATM   42  F   UNL     1      -5.440  17.634  67.820  1.00  0.00    -0.129 F  
HETATM   43  F   UNL     1      -5.859  16.659  69.717  1.00  0.00    -0.159 F  
HETATM   44  F   UNL     1      -9.425  20.422  66.003  1.00  0.00    -0.403 F  
HETATM   45  C   UNL     1      -9.659  18.405  67.289  1.00  0.00    -0.292 A  
HETATM   46  C   UNL     1     -10.418  17.313  67.760  1.00  0.00    -0.371 A  
HETATM   47  C   UNL     1     -10.285  19.430  66.367  1.00  0.00    -0.465 C  
ENDBRANCH  31  34
ENDBRANCH   3  31
TORSDOF 7
ENDMDL
MODEL       57
REMARK 921   NORMALIZED FREE ENERGY PREDICTED BY IDOCK:   -6.36 KCAL/MOL
REMARK 922        TOTAL FREE ENERGY PREDICTED BY IDOCK:   -9.60 KCAL/MOL
REMARK 923 INTER-LIGAND FREE ENERGY PREDICTED BY IDOCK:   -8.43 KCAL/MOL
REMARK 924 INTRA-LIGAND FREE ENERGY PREDICTED BY IDOCK:   -1.17 KCAL/MOL
REMARK 927      BINDING AFFINITY PREDICTED BY RF-SCORE:    0.00 PKD
ROOT
HETATM    1  C   UNL     1      -6.428  10.551  69.002  1.00  0.00    -0.054 C  
HETATM    2  N   UNL     1      -7.252  11.077  67.908  1.00  0.00    -0.084 N  
HETATM    3  C   UNL     1      -7.742  10.326  66.831  1.00  0.00    -0.105 C  
HETATM    4  O   UNL     1      -8.216  10.904  65.843  1.00  0.00    -0.160 OA 
ENDROOT
BRANCH   2   5
HETATM    5  C   UNL     1      -7.088  12.495  67.714  1.00  0.00    -0.126 A  
HETATM    6  C   UNL     1      -7.719  14.793  67.860  1.00  0.00    -0.146 A  
HETATM    7  C   UNL     1      -5.783  12.990  67.600  1.00  0.00    -0.118 A  
HETATM    8  C   UNL     1      -8.136  13.432  67.792  1.00  0.00    -0.173 A  
HETATM    9  C   UNL     1      -6.388  15.225  67.738  1.00  0.00    -0.160 A  
HETATM   10  N   UNL     1      -5.427  14.299  67.593  1.00  0.00    -0.338 NA 
BRANCH   9  11
HETATM   11  N   UNL     1      -6.015  16.556  67.767  1.00  0.00    -0.118 NA 
HETATM   12  C   UNL     1      -5.844  17.317  66.508  1.00  0.00    -0.205 C  
HETATM   13  N   UNL     1      -6.578  19.452  67.753  1.00  0.00    -0.220 N  
HETATM   14  C   UNL     1      -5.289  20.239  67.742  1.00  0.00    -0.193 C  
HETATM   15  C   UNL     1      -5.804  17.344  68.983  1.00  0.00    -0.191 C  
HETATM   16  C   UNL     1      -6.739  18.589  66.479  1.00  0.00    -0.196 C  
HETATM   17  C   UNL     1      -6.731  18.571  68.999  1.00  0.00    -0.272 C  
BRANCH  13  18
HETATM   18  C   UNL     1      -7.742  20.452  67.822  1.00  0.00    -0.230 C  
BRANCH  18  19
HETATM   19  O   UNL     1      -8.780  20.226  66.919  1.00  0.00    -0.325 OA 
HETATM   20  O   UNL     1      -9.968  19.947  69.158  1.00  0.00    -0.389 OA 
HETATM   21  O   UNL     1     -11.258  19.698  66.854  1.00  0.00    -0.299 OA 
HETATM   22  O   UNL     1      -9.594  18.034  67.542  1.00  0.00    -0.266 OA 
HETATM   23  P   UNL     1     -10.037  19.573  67.702  1.00  0.00    -0.470 P  
ENDBRANCH  18  19
ENDBRANCH  13  18
ENDBRANCH   9  11
BRANCH   8  24
HETATM   24  C   UNL     1      -9.612  13.105  67.859  1.00  0.00    -0.218 A  
HETATM   25  C   UNL     1     -10.185  12.651  69.069  1.00  0.00     0.103 A  
HETATM   26  C   UNL     1     -11.541  12.332  69.209  1.00  0.00    -0.383 A  
HETATM   27  C   UNL     1     -10.124  13.646  65.364  1.00  0.00    -0.291 C  
HETATM   28  C   UNL     1     -10.519  13.235  66.763  1.00  0.00    -0.270 A  
HETATM   29  C   UNL     1     -12.404  12.511  68.146  1.00  0.00     0.392 A  
HETATM   30  C   UNL     1     -11.901  12.973  66.940  1.00  0.00    -0.442 A  
ENDBRANCH   8  24
ENDBRANCH   2   5
BRANCH   3  31
HETATM   31  C   UNL     1      -7.700   8.753  66.849  1.00  0.00    -0.094 C  
HETATM   32  C   UNL     1      -6.212   8.298  66.725  1.00  0.00    -0.055 C  
HETATM   33  C   UNL     1      -8.372   8.163  65.584  1.00  0.00    -0.148 C  
BRANCH  31  34
HETATM   34  C   UNL     1      -8.226   8.171  68.183  1.00  0.00    -0.129 A  
HETATM   35  F   UNL     1      -6.116   5.556  70.945  1.00  0.00    -0.024 F  
HETATM   36  C   UNL     1      -9.925   8.080  69.959  1.00  0.00    -0.191 A  
HETATM   37  C   UNL     1     -11.203   8.614  70.567  1.00  0.00    -0.241 C  
HETATM   38  F   UNL     1      -7.326   4.222  69.722  1.00  0.00    -0.047 F  
HETATM   39  C   UNL     1      -9.395   8.659  68.794  1.00  0.00    -0.142 A  
HETATM   40  C   UNL     1      -9.268   6.986  70.536  1.00  0.00    -0.159 A  
HETATM   41  F   UNL     1     -11.030   9.030  71.851  1.00  0.00    -0.372 F  
HETATM   42  F   UNL     1     -12.194   7.685  70.597  1.00  0.00    -0.264 F  
HETATM   43  F   UNL     1     -11.710   9.685  69.896  1.00  0.00    -0.226 F  
HETATM   44  F   UNL     1      -8.013   4.810  71.698  1.00  0.00    -0.091 F  
HETATM   45  C   UNL     1      -8.093   6.476  69.966  1.00  0.00    -0.121 A  
HETATM   46  C   UNL     1      -7.579   7.080  68.800  1.00  0.00    -0.105 A  
HETATM   47  C   UNL     1      -7.396   5.277  70.576  1.00  0.00    -0.070 C  
ENDBRANCH  31  34
ENDBRANCH   3  31
TORSDOF 7
ENDMDL
MODEL       58
REMARK 921   NORMALIZED FREE ENERGY PREDICTED BY IDOCK:   -6.30 KCAL/MOL
REMARK 922        TOTAL FREE ENERGY PREDICTED BY IDOCK:   -9.52 KCAL/MOL
REMARK 923 INTER-LIGAND FREE ENERGY PREDICTED BY IDOCK:   -8.85 KCAL/MOL
REMARK 924 INTRA-LIGAND FREE ENERGY PREDICTED BY IDOCK:   -0.66 KCAL/MOL
REMARK 927      BINDING AFFINITY PREDICTED BY RF-SCORE:    0.00 PKD
ROOT
HETATM    1  C   UNL     1     -11.147  11.325  69.095  1.00  0.00    -0.253 C  
HETATM    2  N   UNL     1      -9.780  11.029  68.651  1.00  0.00    -0.190 N  
HETATM    3  C   UNL     1      -9.046   9.887  69.000  1.00  0.00    -0.164 C  
HETATM    4  O   UNL     1      -7.828   9.847  68.778  1.00  0.00    -0.086 OA 
ENDROOT
BRANCH   2   5
HETATM    5  C   UNL     1      -9.042  12.210  68.280  1.00  0.00    -0.191 A  
HETATM    6  C   UNL     1      -8.669  14.256  67.108  1.00  0.00    -0.243 A  
HETATM    7  C   UNL     1      -8.108  12.709  69.196  1.00  0.00     0.507 A  
HETATM    8  C   UNL     1      -9.310  12.984  67.135  1.00  0.00    -0.230 A  
HETATM    9  C   UNL     1      -7.737  14.698  68.061  1.00  0.00    -0.132 A  
HETATM   10  N   UNL     1      -7.457  13.895  69.101  1.00  0.00    -0.035 NA 
BRANCH   9  11
HETATM   11  N   UNL     1      -7.097  15.922  67.989  1.00  0.00    -0.123 NA 
HETATM   12  C   UNL     1      -6.483  16.375  66.720  1.00  0.00    -0.016 C  
HETATM   13  N   UNL     1      -6.994  18.810  67.397  1.00  0.00    -0.205 N  
HETATM   14  C   UNL     1      -5.595  19.341  67.608  1.00  0.00    -0.182 C  
HETATM   15  C   UNL     1      -6.999  16.886  69.087  1.00  0.00    -0.234 C  
HETATM   16  C   UNL     1      -7.047  17.753  66.269  1.00  0.00    -0.294 C  
HETATM   17  C   UNL     1      -7.613  18.235  68.677  1.00  0.00    -0.296 C  
BRANCH  13  18
HETATM   18  C   UNL     1      -7.894  19.993  67.011  1.00  0.00    -0.310 C  
BRANCH  18  19
HETATM   19  O   UNL     1      -8.642  19.819  65.846  1.00  0.00    -0.367 OA 
HETATM   20  O   UNL     1     -10.455  20.381  67.549  1.00  0.00    -0.265 OA 
HETATM   21  O   UNL     1     -11.029  19.915  65.002  1.00  0.00    -0.245 OA 
HETATM   22  O   UNL     1     -10.238  18.107  66.457  1.00  0.00    -0.353 OA 
HETATM   23  P   UNL     1     -10.209  19.699  66.230  1.00  0.00    -0.527 P  
ENDBRANCH  18  19
ENDBRANCH  13  18
ENDBRANCH   9  11
BRANCH   8  24
HETATM   24  C   UNL     1     -10.237  12.597  66.002  1.00  0.00    -0.287 A  
HETATM   25  C   UNL     1     -11.491  13.233  65.861  1.00  0.00    -0.359 A  
HETATM   26  C   UNL     1     -12.400  12.931  64.839  1.00  0.00    -0.532 A  
HETATM   27  C   UNL     1      -8.683  10.767  64.994  1.00  0.00    -0.160 C  
HETATM   28  C   UNL     1      -9.934  11.612  65.012  1.00  0.00    -0.297 A  
HETATM   29  C   UNL     1     -12.062  12.008  63.868  1.00  0.00    -0.557 A  
HETATM   30  C   UNL     1     -10.835  11.367  63.945  1.00  0.00    -0.463 A  
ENDBRANCH   8  24
ENDBRANCH   2   5
BRANCH   3  31
HETATM   31  C   UNL     1      -9.741   8.647  69.675  1.00  0.00    -0.179 C  
HETATM   32  C   UNL     1     -11.257   8.668  69.302  1.00  0.00     0.242 C  
HETATM   33  C   UNL     1      -9.739   8.779  71.218  1.00  0.00    -0.335 C  
BRANCH  31  34
HETATM   34  C   UNL     1      -9.179   7.305  69.146  1.00  0.00    -0.139 A  
HETATM   35  F   UNL     1      -9.124   5.895  65.032  1.00  0.00    -0.083 F  
HETATM   36  C   UNL     1      -7.915   5.224  69.498  1.00  0.00    -0.088 A  
HETATM   37  C   UNL     1      -7.061   4.356  70.394  1.00  0.00    -0.045 C  
HETATM   38  F   UNL     1     -10.886   4.972  65.918  1.00  0.00    -0.312 F  
HETATM   39  C   UNL     1      -8.359   6.482  69.939  1.00  0.00    -0.131 A  
HETATM   40  C   UNL     1      -8.297   4.775  68.227  1.00  0.00    -0.091 A  
HETATM   41  F   UNL     1      -5.862   4.052  69.827  1.00  0.00    -0.015 F  
HETATM   42  F   UNL     1      -7.655   3.170  70.690  1.00  0.00    -0.039 F  
HETATM   43  F   UNL     1      -6.770   4.940  71.589  1.00  0.00    -0.035 F  
HETATM   44  F   UNL     1      -9.041   3.838  65.731  1.00  0.00    -0.125 F  
HETATM   45  C   UNL     1      -9.103   5.569  67.400  1.00  0.00    -0.110 A  
HETATM   46  C   UNL     1      -9.529   6.830  67.865  1.00  0.00    -0.118 A  
HETATM   47  C   UNL     1      -9.535   5.072  66.035  1.00  0.00    -0.161 C  
ENDBRANCH  31  34
ENDBRANCH   3  31
TORSDOF 7
ENDMDL
MODEL       59
REMARK 921   NORMALIZED FREE ENERGY PREDICTED BY IDOCK:   -6.27 KCAL/MOL
REMARK 922        TOTAL FREE ENERGY PREDICTED BY IDOCK:   -9.48 KCAL/MOL
REMARK 923 INTER-LIGAND FREE ENERGY PREDICTED BY IDOCK:   -9.10 KCAL/MOL
REMARK 924 INTRA-LIGAND FREE ENERGY PREDICTED BY IDOCK:   -0.38 KCAL/MOL
REMARK 927      BINDING AFFINITY PREDICTED BY RF-SCORE:    0.00 PKD
ROOT
HETATM    1  C   UNL     1      -5.255  10.335  68.962  1.00  0.00    -0.035 C  
HETATM    2  N   UNL     1      -6.627  10.689  69.343  1.00  0.00    -0.064 N  
HETATM    3  C   UNL     1      -7.566   9.807  69.896  1.00  0.00    -0.152 C  
HETATM    4  O   UNL     1      -8.758  10.136  69.954  1.00  0.00    -0.173 OA 
ENDROOT
BRANCH   2   5
HETATM    5  C   UNL     1      -7.127  11.840  68.636  1.00  0.00    -0.101 A  
HETATM    6  C   UNL     1      -8.508  12.990  67.064  1.00  0.00    -0.142 A  
HETATM    7  C   UNL     1      -7.011  13.088  69.258  1.00  0.00     0.033 A  
HETATM    8  C   UNL     1      -7.865  11.775  67.438  1.00  0.00    -0.155 A  
HETATM    9  C   UNL     1      -8.349  14.214  67.734  1.00  0.00    -0.174 A  
HETATM   10  N   UNL     1      -7.577  14.245  68.833  1.00  0.00    -0.126 NA 
BRANCH   9  11
HETATM   11  N   UNL     1      -8.953  15.388  67.325  1.00  0.00    -0.190 NA 
HETATM   12  C   UNL     1     -10.022  16.008  68.143  1.00  0.00    -0.228 C  
HETATM   13  N   UNL     1      -9.263  18.322  67.298  1.00  0.00    -0.254 N  
HETATM   14  C   UNL     1     -10.455  18.718  66.458  1.00  0.00    -0.427 C  
HETATM   15  C   UNL     1      -8.594  16.146  66.125  1.00  0.00    -0.296 C  
HETATM   16  C   UNL     1      -9.676  17.475  68.525  1.00  0.00    -0.319 C  
HETATM   17  C   UNL     1      -8.185  17.582  66.495  1.00  0.00    -0.276 C  
BRANCH  13  18
HETATM   18  C   UNL     1      -8.584  19.609  67.790  1.00  0.00    -0.322 C  
BRANCH  18  19
HETATM   19  O   UNL     1      -8.229  19.619  69.139  1.00  0.00    -0.274 OA 
HETATM   20  O   UNL     1      -6.190  20.702  68.058  1.00  0.00    -0.259 OA 
HETATM   21  O   UNL     1      -6.356  20.348  70.681  1.00  0.00    -0.510 OA 
HETATM   22  O   UNL     1      -6.123  18.429  69.173  1.00  0.00    -0.220 OA 
HETATM   23  P   UNL     1      -6.651  19.946  69.275  1.00  0.00    -0.292 P  
ENDBRANCH  18  19
ENDBRANCH  13  18
ENDBRANCH   9  11
BRANCH   8  24
HETATM   24  C   UNL     1      -8.059  10.540  66.584  1.00  0.00    -0.127 A  
HETATM   25  C   UNL     1      -9.234   9.765  66.712  1.00  0.00    -0.179 A  
HETATM   26  C   UNL     1      -9.485   8.613  65.956  1.00  0.00    -0.278 A  
HETATM   27  C   UNL     1      -5.779  10.713  65.338  1.00  0.00    -0.133 C  
HETATM   28  C   UNL     1      -7.123  10.079  65.607  1.00  0.00    -0.119 A  
HETATM   29  C   UNL     1      -8.584   8.216  64.986  1.00  0.00    -0.076 A  
HETATM   30  C   UNL     1      -7.424   8.951  64.803  1.00  0.00    -0.103 A  
ENDBRANCH   8  24
ENDBRANCH   2   5
BRANCH   3  31
HETATM   31  C   UNL     1      -7.134   8.396  70.443  1.00  0.00    -0.037 C  
HETATM   32  C   UNL     1      -6.476   8.592  71.845  1.00  0.00    -0.071 C  
HETATM   33  C   UNL     1      -5.997   7.789  69.584  1.00  0.00    -0.027 C  
BRANCH  31  34
HETATM   34  C   UNL     1      -8.347   7.458  70.656  1.00  0.00    -0.127 A  
HETATM   35  F   UNL     1     -12.547   8.567  70.868  1.00  0.00    -0.249 F  
HETATM   36  C   UNL     1      -9.306   5.198  70.813  1.00  0.00    -0.210 A  
HETATM   37  C   UNL     1      -9.132   3.700  70.704  1.00  0.00    -0.114 C  
HETATM   38  F   UNL     1     -11.898   8.432  72.942  1.00  0.00    -0.452 F  
HETATM   39  C   UNL     1      -8.232   6.062  70.538  1.00  0.00    -0.113 A  
HETATM   40  C   UNL     1     -10.532   5.744  71.213  1.00  0.00    -0.295 A  
HETATM   41  F   UNL     1      -9.997   3.143  69.813  1.00  0.00    -0.175 F  
HETATM   42  F   UNL     1      -9.341   3.064  71.887  1.00  0.00    -0.135 F  
HETATM   43  F   UNL     1      -7.887   3.332  70.293  1.00  0.00    -0.044 F  
HETATM   44  F   UNL     1     -12.968   6.777  72.026  1.00  0.00    -0.361 F  
HETATM   45  C   UNL     1     -10.694   7.132  71.333  1.00  0.00    -0.245 A  
HETATM   46  C   UNL     1      -9.601   7.975  71.044  1.00  0.00    -0.184 A  
HETATM   47  C   UNL     1     -12.013   7.719  71.789  1.00  0.00    -0.296 C  
ENDBRANCH  31  34
ENDBRANCH   3  31
TORSDOF 7
ENDMDL
MODEL       60
REMARK 921   NORMALIZED FREE ENERGY PREDICTED BY IDOCK:   -6.27 KCAL/MOL
REMARK 922        TOTAL FREE ENERGY PREDICTED BY IDOCK:   -9.48 KCAL/MOL
REMARK 923 INTER-LIGAND FREE ENERGY PREDICTED BY IDOCK:   -7.50 KCAL/MOL
REMARK 924 INTRA-LIGAND FREE ENERGY PREDICTED BY IDOCK:   -1.98 KCAL/MOL
REMARK 927      BINDING AFFINITY PREDICTED BY RF-SCORE:    0.00 PKD
ROOT
HETATM    1  C   UNL     1      -7.673   8.831  66.631  1.00  0.00    -0.093 C  
HETATM    2  N   UNL     1      -7.486   9.749  67.760  1.00  0.00    -0.090 N  
HETATM    3  C   UNL     1      -7.065   9.376  69.044  1.00  0.00    -0.066 C  
HETATM    4  O   UNL     1      -7.173  10.176  69.983  1.00  0.00    -0.136 OA 
ENDROOT
BRANCH   2   5
HETATM    5  C   UNL     1      -8.262  10.957  67.636  1.00  0.00    -0.116 A  
HETATM    6  C   UNL     1      -9.913  12.552  68.290  1.00  0.00    -0.229 A  
HETATM    7  C   UNL     1      -7.704  12.016  66.911  1.00  0.00    -0.078 A  
HETATM    8  C   UNL     1      -9.465  11.200  68.326  1.00  0.00    -0.182 A  
HETATM    9  C   UNL     1      -9.307  13.572  67.538  1.00  0.00    -0.220 A  
HETATM   10  N   UNL     1      -8.200  13.277  66.837  1.00  0.00    -0.034 NA 
BRANCH   9  11
HETATM   11  N   UNL     1      -9.786  14.868  67.489  1.00  0.00    -0.217 NA 
HETATM   12  C   UNL     1     -10.192  15.567  68.730  1.00  0.00    -0.212 C  
HETATM   13  N   UNL     1      -9.484  17.798  67.650  1.00  0.00    -0.253 N  
HETATM   14  C   UNL     1     -10.826  18.475  67.500  1.00  0.00    -0.291 C  
HETATM   15  C   UNL     1      -9.898  15.679  66.275  1.00  0.00    -0.295 C  
HETATM   16  C   UNL     1      -9.423  16.906  68.913  1.00  0.00    -0.241 C  
HETATM   17  C   UNL     1      -9.087  16.978  66.416  1.00  0.00    -0.270 C  
BRANCH  13  18
HETATM   18  C   UNL     1      -8.413  18.893  67.766  1.00  0.00    -0.284 C  
BRANCH  18  19
HETATM   19  O   UNL     1      -8.035  19.225  69.067  1.00  0.00    -0.340 OA 
HETATM   20  O   UNL     1      -6.218  20.368  67.691  1.00  0.00    -0.210 OA 
HETATM   21  O   UNL     1      -6.268  20.522  70.339  1.00  0.00    -0.482 OA 
HETATM   22  O   UNL     1      -5.766  18.400  69.218  1.00  0.00    -0.210 OA 
HETATM   23  P   UNL     1      -6.526  19.808  69.054  1.00  0.00    -0.343 P  
ENDBRANCH  18  19
ENDBRANCH  13  18
ENDBRANCH   9  11
BRANCH   8  24
HETATM   24  C   UNL     1     -10.255  10.178  69.114  1.00  0.00    -0.229 A  
HETATM   25  C   UNL     1     -10.492  10.374  70.494  1.00  0.00     0.103 A  
HETATM   26  C   UNL     1     -11.215   9.475  71.288  1.00  0.00    -0.452 A  
HETATM   27  C   UNL     1     -10.649   8.546  67.124  1.00  0.00    -0.314 C  
HETATM   28  C   UNL     1     -10.820   8.990  68.558  1.00  0.00    -0.061 A  
HETATM   29  C   UNL     1     -11.790   8.357  70.715  1.00  0.00    -0.178 A  
HETATM   30  C   UNL     1     -11.608   8.126  69.360  1.00  0.00     0.711 A  
ENDBRANCH   8  24
ENDBRANCH   2   5
BRANCH   3  31
HETATM   31  C   UNL     1      -6.456   7.951  69.320  1.00  0.00    -0.036 C  
HETATM   32  C   UNL     1      -5.834   7.949  70.751  1.00  0.00    -0.033 C  
HETATM   33  C   UNL     1      -5.247   7.673  68.392  1.00  0.00    -0.026 C  
BRANCH  31  34
HETATM   34  C   UNL     1      -7.538   6.844  69.311  1.00  0.00    -0.096 A  
HETATM   35  F   UNL     1      -8.264   3.876  66.215  1.00  0.00    -0.101 F  
HETATM   36  C   UNL     1      -9.300   5.561  70.451  1.00  0.00    -0.198 A  
HETATM   37  C   UNL     1     -10.072   5.247  71.712  1.00  0.00    -0.200 C  
HETATM   38  F   UNL     1      -9.690   5.470  65.810  1.00  0.00    -0.171 F  
HETATM   39  C   UNL     1      -8.259   6.504  70.469  1.00  0.00    -0.118 A  
HETATM   40  C   UNL     1      -9.629   4.934  69.242  1.00  0.00    -0.241 A  
HETATM   41  F   UNL     1     -10.003   3.929  72.046  1.00  0.00    -0.209 F  
HETATM   42  F   UNL     1     -11.394   5.544  71.602  1.00  0.00    -0.297 F  
HETATM   43  F   UNL     1      -9.622   5.930  72.801  1.00  0.00    -0.154 F  
HETATM   44  F   UNL     1     -10.326   3.685  66.873  1.00  0.00     0.062 F  
HETATM   45  C   UNL     1      -8.928   5.235  68.066  1.00  0.00    -0.113 A  
HETATM   46  C   UNL     1      -7.883   6.180  68.115  1.00  0.00    -0.103 A  
HETATM   47  C   UNL     1      -9.300   4.574  66.755  1.00  0.00    -0.150 C  
ENDBRANCH  31  34
ENDBRANCH   3  31
TORSDOF 7
ENDMDL
MODEL       61
REMARK 921   NORMALIZED FREE ENERGY PREDICTED BY IDOCK:   -6.27 KCAL/MOL
REMARK 922        TOTAL FREE ENERGY PREDICTED BY IDOCK:   -9.48 KCAL/MOL
REMARK 923 INTER-LIGAND FREE ENERGY PREDICTED BY IDOCK:   -6.99 KCAL/MOL
REMARK 924 INTRA-LIGAND FREE ENERGY PREDICTED BY IDOCK:   -2.49 KCAL/MOL
REMARK 927      BINDING AFFINITY PREDICTED BY RF-SCORE:    0.00 PKD
ROOT
HETATM    1  C   UNL     1     -11.031   8.987  68.942  1.00  0.00     0.054 C  
HETATM    2  N   UNL     1      -9.832   9.198  68.123  1.00  0.00    -0.159 N  
HETATM    3  C   UNL     1      -9.081   8.185  67.512  1.00  0.00    -0.137 C  
HETATM    4  O   UNL     1      -7.960   8.443  67.051  1.00  0.00    -0.098 OA 
ENDROOT
BRANCH   2   5
HETATM    5  C   UNL     1      -9.165  10.442  68.416  1.00  0.00    -0.147 A  
HETATM    6  C   UNL     1      -7.370  11.810  69.194  1.00  0.00    -0.005 A  
HETATM    7  C   UNL     1      -9.545  11.572  67.684  1.00  0.00    -0.171 A  
HETATM    8  C   UNL     1      -8.051  10.561  69.270  1.00  0.00    -0.152 A  
HETATM    9  C   UNL     1      -7.806  12.910  68.438  1.00  0.00    -0.133 A  
HETATM   10  N   UNL     1      -8.915  12.774  67.692  1.00  0.00    -0.181 NA 
BRANCH   9  11
HETATM   11  N   UNL     1      -7.147  14.125  68.414  1.00  0.00    -0.094 NA 
HETATM   12  C   UNL     1      -6.718  14.723  67.129  1.00  0.00     0.370 C  
HETATM   13  N   UNL     1      -7.043  17.063  68.160  1.00  0.00    -0.172 N  
HETATM   14  C   UNL     1      -5.613  17.546  68.216  1.00  0.00    -0.147 C  
HETATM   15  C   UNL     1      -6.855  14.947  69.590  1.00  0.00    -0.181 C  
HETATM   16  C   UNL     1      -7.299  16.152  66.936  1.00  0.00    -0.220 C  
HETATM   17  C   UNL     1      -7.481  16.344  69.443  1.00  0.00    -0.122 C  
BRANCH  13  18
HETATM   18  C   UNL     1      -7.954  18.295  68.059  1.00  0.00    -0.264 C  
BRANCH  18  19
HETATM   19  O   UNL     1      -9.188  18.078  67.446  1.00  0.00    -0.251 OA 
HETATM   20  O   UNL     1      -8.188  19.903  65.972  1.00  0.00    -0.353 OA 
HETATM   21  O   UNL     1     -10.578  18.864  65.479  1.00  0.00    -0.572 OA 
HETATM   22  O   UNL     1     -10.209  20.272  67.452  1.00  0.00    -0.407 OA 
HETATM   23  P   UNL     1      -9.488  19.283  66.408  1.00  0.00    -0.336 P  
ENDBRANCH  18  19
ENDBRANCH  13  18
ENDBRANCH   9  11
BRANCH   8  24
HETATM   24  C   UNL     1      -7.519   9.480  70.185  1.00  0.00    -0.137 A  
HETATM   25  C   UNL     1      -8.274   9.062  71.305  1.00  0.00    -0.165 A  
HETATM   26  C   UNL     1      -7.849   8.067  72.194  1.00  0.00    -0.144 A  
HETATM   27  C   UNL     1      -5.278   9.123  68.908  1.00  0.00    -0.037 C  
HETATM   28  C   UNL     1      -6.273   8.805  69.999  1.00  0.00    -0.037 A  
HETATM   29  C   UNL     1      -6.662   7.399  71.965  1.00  0.00    -0.054 A  
HETATM   30  C   UNL     1      -5.890   7.753  70.869  1.00  0.00    -0.034 A  
ENDBRANCH   8  24
ENDBRANCH   2   5
BRANCH   3  31
HETATM   31  C   UNL     1      -9.633   6.716  67.401  1.00  0.00    -0.147 C  
HETATM   32  C   UNL     1      -8.970   6.032  66.165  1.00  0.00    -0.160 C  
HETATM   33  C   UNL     1     -11.143   6.713  67.058  1.00  0.00    -0.395 C  
BRANCH  31  34
HETATM   34  C   UNL     1      -9.255   5.857  68.632  1.00  0.00    -0.120 A  
HETATM   35  F   UNL     1      -5.702   3.402  69.155  1.00  0.00    -0.018 F  
HETATM   36  C   UNL     1      -9.641   5.159  70.959  1.00  0.00    -0.229 A  
HETATM   37  C   UNL     1     -10.403   5.317  72.255  1.00  0.00    -0.212 C  
HETATM   38  F   UNL     1      -7.246   2.020  68.487  1.00  0.00    -0.042 F  
HETATM   39  C   UNL     1      -9.920   5.993  69.863  1.00  0.00    -0.225 A  
HETATM   40  C   UNL     1      -8.665   4.163  70.825  1.00  0.00    -0.120 A  
HETATM   41  F   UNL     1      -9.581   5.579  73.308  1.00  0.00    -0.144 F  
HETATM   42  F   UNL     1     -11.104   4.201  72.587  1.00  0.00    -0.206 F  
HETATM   43  F   UNL     1     -11.306   6.335  72.227  1.00  0.00    -0.271 F  
HETATM   44  F   UNL     1      -6.759   2.169  70.600  1.00  0.00    -0.029 F  
HETATM   45  C   UNL     1      -7.969   4.001  69.619  1.00  0.00    -0.057 A  
HETATM   46  C   UNL     1      -8.265   4.856  68.537  1.00  0.00    -0.084 A  
HETATM   47  C   UNL     1      -6.931   2.908  69.467  1.00  0.00    -0.040 C  
ENDBRANCH  31  34
ENDBRANCH   3  31
TORSDOF 7
ENDMDL
MODEL       62
REMARK 921   NORMALIZED FREE ENERGY PREDICTED BY IDOCK:   -6.24 KCAL/MOL
REMARK 922        TOTAL FREE ENERGY PREDICTED BY IDOCK:   -9.43 KCAL/MOL
REMARK 923 INTER-LIGAND FREE ENERGY PREDICTED BY IDOCK:   -9.62 KCAL/MOL
REMARK 924 INTRA-LIGAND FREE ENERGY PREDICTED BY IDOCK:    0.19 KCAL/MOL
REMARK 927      BINDING AFFINITY PREDICTED BY RF-SCORE:    0.00 PKD
ROOT
HETATM    1  C   UNL     1     -11.554  12.567  66.424  1.00  0.00    -0.391 C  
HETATM    2  N   UNL     1     -10.440  12.506  67.377  1.00  0.00    -0.218 N  
HETATM    3  C   UNL     1      -9.923  13.597  68.088  1.00  0.00    -0.246 C  
HETATM    4  O   UNL     1      -8.837  13.491  68.674  1.00  0.00    -0.123 OA 
ENDROOT
BRANCH   2   5
HETATM    5  C   UNL     1      -9.567  11.383  67.148  1.00  0.00    -0.179 A  
HETATM    6  C   UNL     1      -8.857   9.111  67.340  1.00  0.00    -0.125 A  
HETATM    7  C   UNL     1      -8.761  11.408  66.004  1.00  0.00    -0.131 A  
HETATM    8  C   UNL     1      -9.586  10.196  67.907  1.00  0.00    -0.166 A  
HETATM    9  C   UNL     1      -8.063   9.203  66.185  1.00  0.00    -0.107 A  
HETATM   10  N   UNL     1      -8.017  10.376  65.532  1.00  0.00    -0.151 NA 
BRANCH   9  11
HETATM   11  N   UNL     1      -7.333   8.144  65.679  1.00  0.00    -0.074 NA 
HETATM   12  C   UNL     1      -6.298   7.481  66.505  1.00  0.00    -0.045 C  
HETATM   13  N   UNL     1      -6.790   5.273  65.270  1.00  0.00    -0.058 N  
HETATM   14  C   UNL     1      -5.498   5.084  64.509  1.00  0.00    -0.013 C  
HETATM   15  C   UNL     1      -7.519   7.550  64.353  1.00  0.00    -0.096 C  
HETATM   16  C   UNL     1      -6.560   5.954  66.640  1.00  0.00    -0.056 C  
HETATM   17  C   UNL     1      -7.844   6.052  64.473  1.00  0.00    -0.113 C  
BRANCH  13  18
HETATM   18  C   UNL     1      -7.406   3.886  65.504  1.00  0.00    -0.072 C  
BRANCH  18  19
HETATM   19  O   UNL     1      -8.614   3.879  66.201  1.00  0.00    -0.109 OA 
HETATM   20  O   UNL     1      -7.118   2.505  67.742  1.00  0.00    -0.047 OA 
HETATM   21  O   UNL     1      -9.650   3.013  68.346  1.00  0.00    -0.175 OA 
HETATM   22  O   UNL     1      -9.083   1.522  66.484  1.00  0.00    -0.113 OA 
HETATM   23  P   UNL     1      -8.553   2.758  67.367  1.00  0.00    -0.126 P  
ENDBRANCH  18  19
ENDBRANCH  13  18
ENDBRANCH   9  11
BRANCH   8  24
HETATM   24  C   UNL     1     -10.341   9.987  69.202  1.00  0.00    -0.233 A  
HETATM   25  C   UNL     1     -11.715  10.307  69.282  1.00  0.00    -0.141 A  
HETATM   26  C   UNL     1     -12.480  10.138  70.444  1.00  0.00    -0.243 A  
HETATM   27  C   UNL     1      -8.306   9.097  70.560  1.00  0.00    -0.222 C  
HETATM   28  C   UNL     1      -9.764   9.456  70.396  1.00  0.00    -0.315 A  
HETATM   29  C   UNL     1     -11.908   9.579  71.570  1.00  0.00    -0.478 A  
HETATM   30  C   UNL     1     -10.568   9.227  71.541  1.00  0.00    -0.405 A  
ENDBRANCH   8  24
ENDBRANCH   2   5
BRANCH   3  31
HETATM   31  C   UNL     1     -10.695  14.966  68.153  1.00  0.00    -0.251 C  
HETATM   32  C   UNL     1     -11.282  15.133  69.590  1.00  0.00    -0.288 C  
HETATM   33  C   UNL     1     -11.949  14.943  67.244  1.00  0.00    -0.149 C  
BRANCH  31  34
HETATM   34  C   UNL     1      -9.758  16.176  67.920  1.00  0.00    -0.225 A  
HETATM   35  F   UNL     1     -10.582  20.363  68.763  1.00  0.00    -0.495 F  
HETATM   36  C   UNL     1      -7.551  17.098  67.346  1.00  0.00    -0.188 A  
HETATM   37  C   UNL     1      -6.091  16.874  67.023  1.00  0.00    -0.190 C  
HETATM   38  F   UNL     1     -11.027  20.119  66.646  1.00  0.00    -0.496 F  
HETATM   39  C   UNL     1      -8.390  16.011  67.643  1.00  0.00    -0.164 A  
HETATM   40  C   UNL     1      -8.092  18.390  67.330  1.00  0.00    -0.243 A  
HETATM   41  F   UNL     1      -5.265  17.540  67.875  1.00  0.00    -0.121 F  
HETATM   42  F   UNL     1      -5.765  17.291  65.771  1.00  0.00    -0.192 F  
HETATM   43  F   UNL     1      -5.720  15.566  67.093  1.00  0.00    -0.081 F  
HETATM   44  F   UNL     1      -9.122  20.958  67.267  1.00  0.00    -0.477 F  
HETATM   45  C   UNL     1      -9.449  18.601  67.612  1.00  0.00    -0.316 A  
HETATM   46  C   UNL     1     -10.266  17.493  67.913  1.00  0.00    -0.350 A  
HETATM   47  C   UNL     1     -10.038  19.996  67.570  1.00  0.00    -0.425 C  
ENDBRANCH  31  34
ENDBRANCH   3  31
TORSDOF 7
ENDMDL
MODEL       63
REMARK 921   NORMALIZED FREE ENERGY PREDICTED BY IDOCK:   -6.21 KCAL/MOL
REMARK 922        TOTAL FREE ENERGY PREDICTED BY IDOCK:   -9.40 KCAL/MOL
REMARK 923 INTER-LIGAND FREE ENERGY PREDICTED BY IDOCK:   -8.22 KCAL/MOL
REMARK 924 INTRA-LIGAND FREE ENERGY PREDICTED BY IDOCK:   -1.18 KCAL/MOL
REMARK 927      BINDING AFFINITY PREDICTED BY RF-SCORE:    0.00 PKD
ROOT
HETATM    1  C   UNL     1     -10.941  11.909  68.864  1.00  0.00    -0.238 C  
HETATM    2  N   UNL     1     -10.102  11.962  67.661  1.00  0.00    -0.189 N  
HETATM    3  C   UNL     1     -10.163  12.955  66.675  1.00  0.00    -0.247 C  
HETATM    4  O   UNL     1      -9.592  12.781  65.590  1.00  0.00    -0.175 OA 
ENDROOT
BRANCH   2   5
HETATM    5  C   UNL     1      -9.588  10.671  67.279  1.00  0.00    -0.163 A  
HETATM    6  C   UNL     1      -8.135   8.782  67.430  1.00  0.00    -0.105 A  
HETATM    7  C   UNL     1     -10.456   9.794  66.619  1.00  0.00    -0.163 A  
HETATM    8  C   UNL     1      -8.327  10.174  67.665  1.00  0.00    -0.114 A  
HETATM    9  C   UNL     1      -9.050   7.954  66.759  1.00  0.00    -0.156 A  
HETATM   10  N   UNL     1     -10.211   8.488  66.344  1.00  0.00    -0.224 NA 
BRANCH   9  11
HETATM   11  N   UNL     1      -8.820   6.614  66.509  1.00  0.00    -0.134 NA 
HETATM   12  C   UNL     1      -7.472   6.033  66.701  1.00  0.00    -0.090 C  
HETATM   13  N   UNL     1      -8.577   3.787  67.315  1.00  0.00    -0.100 N  
HETATM   14  C   UNL     1      -8.157   2.938  66.138  1.00  0.00    -0.083 C  
HETATM   15  C   UNL     1      -9.840   5.649  66.093  1.00  0.00    -0.079 C  
HETATM   16  C   UNL     1      -7.499   4.831  67.688  1.00  0.00    -0.078 C  
HETATM   17  C   UNL     1      -9.924   4.486  67.096  1.00  0.00    -0.159 C  
BRANCH  13  18
HETATM   18  C   UNL     1      -8.798   2.853  68.515  1.00  0.00    -0.118 C  
BRANCH  18  19
HETATM   19  O   UNL     1      -9.772   3.268  69.423  1.00  0.00    -0.111 OA 
HETATM   20  O   UNL     1      -7.695   3.167  70.899  1.00  0.00    -0.043 OA 
HETATM   21  O   UNL     1     -10.053   3.913  71.857  1.00  0.00    -0.180 OA 
HETATM   22  O   UNL     1      -9.661   1.594  71.165  1.00  0.00    -0.130 OA 
HETATM   23  P   UNL     1      -9.199   3.117  70.928  1.00  0.00    -0.155 P  
ENDBRANCH  18  19
ENDBRANCH  13  18
ENDBRANCH   9  11
BRANCH   8  24
HETATM   24  C   UNL     1      -7.228  10.973  68.332  1.00  0.00    -0.085 A  
HETATM   25  C   UNL     1      -6.478  11.910  67.585  1.00  0.00    -0.089 A  
HETATM   26  C   UNL     1      -5.449  12.687  68.133  1.00  0.00    -0.073 A  
HETATM   27  C   UNL     1      -7.502   9.896  70.687  1.00  0.00     0.047 C  
HETATM   28  C   UNL     1      -6.878  10.868  69.713  1.00  0.00    -0.134 A  
HETATM   29  C   UNL     1      -5.163  12.598  69.481  1.00  0.00    -0.073 A  
HETATM   30  C   UNL     1      -5.881  11.710  70.266  1.00  0.00    -0.161 A  
ENDBRANCH   8  24
ENDBRANCH   2   5
BRANCH   3  31
HETATM   31  C   UNL     1     -10.952  14.295  66.917  1.00  0.00    -0.304 C  
HETATM   32  C   UNL     1     -11.731  14.172  68.264  1.00  0.00    -0.383 C  
HETATM   33  C   UNL     1     -12.070  14.483  65.861  1.00  0.00    -0.288 C  
BRANCH  31  34
HETATM   34  C   UNL     1     -10.004  15.510  67.069  1.00  0.00    -0.240 A  
HETATM   35  F   UNL     1      -5.681  15.451  67.541  1.00  0.00    -0.147 F  
HETATM   36  C   UNL     1      -9.605  17.936  67.013  1.00  0.00    -0.286 A  
HETATM   37  C   UNL     1     -10.115  19.333  66.738  1.00  0.00    -0.389 C  
HETATM   38  F   UNL     1      -6.464  15.629  69.565  1.00  0.00    -0.132 F  
HETATM   39  C   UNL     1     -10.432  16.821  66.796  1.00  0.00    -0.258 A  
HETATM   40  C   UNL     1      -8.311  17.737  67.512  1.00  0.00    -0.227 A  
HETATM   41  F   UNL     1      -9.352  19.990  65.822  1.00  0.00    -0.407 F  
HETATM   42  F   UNL     1     -10.128  20.111  67.851  1.00  0.00    -0.488 F  
HETATM   43  F   UNL     1     -11.384  19.354  66.247  1.00  0.00    -0.243 F  
HETATM   44  F   UNL     1      -5.754  17.393  68.514  1.00  0.00    -0.144 F  
HETATM   45  C   UNL     1      -7.840  16.445  67.785  1.00  0.00    -0.164 A  
HETATM   46  C   UNL     1      -8.689  15.344  67.552  1.00  0.00    -0.186 A  
HETATM   47  C   UNL     1      -6.450  16.233  68.347  1.00  0.00    -0.130 C  
ENDBRANCH  31  34
ENDBRANCH   3  31
TORSDOF 7
ENDMDL
MODEL       64
REMARK 921   NORMALIZED FREE ENERGY PREDICTED BY IDOCK:   -6.19 KCAL/MOL
REMARK 922        TOTAL FREE ENERGY PREDICTED BY IDOCK:   -9.37 KCAL/MOL
REMARK 923 INTER-LIGAND FREE ENERGY PREDICTED BY IDOCK:   -8.06 KCAL/MOL
REMARK 924 INTRA-LIGAND FREE ENERGY PREDICTED BY IDOCK:   -1.32 KCAL/MOL
REMARK 927      BINDING AFFINITY PREDICTED BY RF-SCORE:    0.00 PKD
ROOT
HETATM    1  C   UNL     1      -6.513  11.567  70.281  1.00  0.00     0.102 C  
HETATM    2  N   UNL     1      -6.682  11.336  68.842  1.00  0.00    -0.073 N  
HETATM    3  C   UNL     1      -7.365  12.186  67.961  1.00  0.00    -0.105 C  
HETATM    4  O   UNL     1      -7.661  11.786  66.826  1.00  0.00    -0.141 OA 
ENDROOT
BRANCH   2   5
HETATM    5  C   UNL     1      -6.575   9.945  68.481  1.00  0.00    -0.054 A  
HETATM    6  C   UNL     1      -7.407   7.773  67.943  1.00  0.00    -0.102 A  
HETATM    7  C   UNL     1      -5.422   9.535  67.802  1.00  0.00    -0.037 A  
HETATM    8  C   UNL     1      -7.617   9.008  68.621  1.00  0.00    -0.092 A  
HETATM    9  C   UNL     1      -6.221   7.421  67.278  1.00  0.00    -0.051 A  
HETATM   10  N   UNL     1      -5.225   8.321  67.230  1.00  0.00    -0.032 NA 
BRANCH   9  11
HETATM   11  N   UNL     1      -6.029   6.199  66.661  1.00  0.00    -0.024 NA 
HETATM   12  C   UNL     1      -6.581   4.961  67.258  1.00  0.00    -0.050 C  
HETATM   13  N   UNL     1      -6.837   3.987  64.885  1.00  0.00    -0.048 N  
HETATM   14  C   UNL     1      -5.812   2.877  64.926  1.00  0.00    -0.018 C  
HETATM   15  C   UNL     1      -5.335   5.999  65.387  1.00  0.00    -0.013 C  
HETATM   16  C   UNL     1      -7.507   4.206  66.262  1.00  0.00    -0.084 C  
HETATM   17  C   UNL     1      -6.262   5.312  64.370  1.00  0.00    -0.022 C  
BRANCH  13  18
HETATM   18  C   UNL     1      -7.917   3.594  63.866  1.00  0.00    -0.085 C  
BRANCH  18  19
HETATM   19  O   UNL     1      -9.109   4.313  63.952  1.00  0.00    -0.137 OA 
HETATM   20  O   UNL     1      -9.900   1.938  64.436  1.00  0.00    -0.099 OA 
HETATM   21  O   UNL     1     -11.577   3.992  64.426  1.00  0.00    -0.079 OA 
HETATM   22  O   UNL     1     -10.543   3.212  62.345  1.00  0.00    -0.136 OA 
HETATM   23  P   UNL     1     -10.357   3.284  63.941  1.00  0.00    -0.178 P  
ENDBRANCH  18  19
ENDBRANCH  13  18
ENDBRANCH   9  11
BRANCH   8  24
HETATM   24  C   UNL     1      -8.915   9.232  69.368  1.00  0.00    -0.147 A  
HETATM   25  C   UNL     1      -9.021   8.873  70.730  1.00  0.00    -0.254 A  
HETATM   26  C   UNL     1     -10.186   9.053  71.487  1.00  0.00    -0.414 A  
HETATM   27  C   UNL     1     -10.223  10.224  67.346  1.00  0.00    -0.265 C  
HETATM   28  C   UNL     1     -10.086   9.816  68.794  1.00  0.00    -0.187 A  
HETATM   29  C   UNL     1     -11.289   9.661  70.920  1.00  0.00    -0.431 A  
HETATM   30  C   UNL     1     -11.233  10.054  69.592  1.00  0.00    -0.285 A  
ENDBRANCH   8  24
ENDBRANCH   2   5
BRANCH   3  31
HETATM   31  C   UNL     1      -7.769  13.645  68.387  1.00  0.00    -0.138 C  
HETATM   32  C   UNL     1      -7.121  14.649  67.382  1.00  0.00    -0.157 C  
HETATM   33  C   UNL     1      -7.134  14.025  69.748  1.00  0.00     0.169 C  
BRANCH  31  34
HETATM   34  C   UNL     1      -9.298  13.873  68.308  1.00  0.00    -0.209 A  
HETATM   35  F   UNL     1     -11.975  12.772  65.061  1.00  0.00    -0.361 F  
HETATM   36  C   UNL     1     -11.423  14.531  69.357  1.00  0.00    -0.323 A  
HETATM   37  C   UNL     1     -12.190  14.952  70.590  1.00  0.00    -0.318 C  
HETATM   38  F   UNL     1     -11.501  14.869  64.712  1.00  0.00    -0.361 F  
HETATM   39  C   UNL     1     -10.051  14.239  69.437  1.00  0.00     0.111 A  
HETATM   40  C   UNL     1     -12.065  14.449  68.115  1.00  0.00    -0.258 A  
HETATM   41  F   UNL     1     -13.232  14.119  70.861  1.00  0.00    -0.394 F  
HETATM   42  F   UNL     1     -12.719  16.198  70.474  1.00  0.00    -0.344 F  
HETATM   43  F   UNL     1     -11.427  14.970  71.718  1.00  0.00    -0.392 F  
HETATM   44  F   UNL     1     -13.370  14.321  65.677  1.00  0.00    -0.526 F  
HETATM   45  C   UNL     1     -11.354  14.076  66.965  1.00  0.00    -0.346 A  
HETATM   46  C   UNL     1      -9.979  13.783  67.076  1.00  0.00    -0.251 A  
HETATM   47  C   UNL     1     -12.044  14.012  65.618  1.00  0.00    -0.417 C  
ENDBRANCH  31  34
ENDBRANCH   3  31
TORSDOF 7
ENDMDL
MODEL       65
REMARK 921   NORMALIZED FREE ENERGY PREDICTED BY IDOCK:   -6.13 KCAL/MOL
REMARK 922        TOTAL FREE ENERGY PREDICTED BY IDOCK:   -9.29 KCAL/MOL
REMARK 923 INTER-LIGAND FREE ENERGY PREDICTED BY IDOCK:   -6.61 KCAL/MOL
REMARK 924 INTRA-LIGAND FREE ENERGY PREDICTED BY IDOCK:   -2.68 KCAL/MOL
REMARK 927      BINDING AFFINITY PREDICTED BY RF-SCORE:    0.00 PKD
ROOT
HETATM    1  C   UNL     1      -7.526  13.477  70.283  1.00  0.00     1.710 C  
HETATM    2  N   UNL     1      -7.005  13.232  68.933  1.00  0.00    -0.103 N  
HETATM    3  C   UNL     1      -6.747  14.220  67.974  1.00  0.00    -0.148 C  
HETATM    4  O   UNL     1      -6.544  13.896  66.796  1.00  0.00     0.476 OA 
ENDROOT
BRANCH   2   5
HETATM    5  C   UNL     1      -7.275  11.897  68.462  1.00  0.00    -0.100 A  
HETATM    6  C   UNL     1      -8.371  10.247  67.130  1.00  0.00    -0.122 A  
HETATM    7  C   UNL     1      -6.253  10.948  68.576  1.00  0.00    -0.046 A  
HETATM    8  C   UNL     1      -8.434  11.527  67.752  1.00  0.00    -0.137 A  
HETATM    9  C   UNL     1      -7.313   9.337  67.286  1.00  0.00    -0.091 A  
HETATM   10  N   UNL     1      -6.258   9.705  68.032  1.00  0.00    -0.055 NA 
BRANCH   9  11
HETATM   11  N   UNL     1      -7.296   8.083  66.704  1.00  0.00    -0.087 NA 
HETATM   12  C   UNL     1      -6.072   7.251  66.745  1.00  0.00    -0.042 C  
HETATM   13  N   UNL     1      -7.559   5.145  66.763  1.00  0.00    -0.087 N  
HETATM   14  C   UNL     1      -7.232   4.560  65.410  1.00  0.00    -0.068 C  
HETATM   15  C   UNL     1      -8.441   7.442  66.054  1.00  0.00    -0.148 C  
HETATM   16  C   UNL     1      -6.341   5.863  67.393  1.00  0.00    -0.042 C  
HETATM   17  C   UNL     1      -8.761   6.097  66.728  1.00  0.00    -0.116 C  
BRANCH  13  18
HETATM   18  C   UNL     1      -7.985   3.993  67.686  1.00  0.00    -0.090 C  
BRANCH  18  19
HETATM   19  O   UNL     1      -7.316   3.927  68.908  1.00  0.00    -0.053 OA 
HETATM   20  O   UNL     1      -9.556   2.853  69.483  1.00  0.00    -0.122 OA 
HETATM   21  O   UNL     1      -7.629   3.112  71.287  1.00  0.00    -0.043 OA 
HETATM   22  O   UNL     1      -8.808   5.081  70.424  1.00  0.00    -0.108 OA 
HETATM   23  P   UNL     1      -8.375   3.570  70.078  1.00  0.00    -0.054 P  
ENDBRANCH  18  19
ENDBRANCH  13  18
ENDBRANCH   9  11
BRANCH   8  24
HETATM   24  C   UNL     1      -9.669  12.382  67.567  1.00  0.00    -0.191 A  
HETATM   25  C   UNL     1      -9.730  13.321  66.512  1.00  0.00    -0.273 A  
HETATM   26  C   UNL     1     -10.838  14.145  66.275  1.00  0.00    -0.300 A  
HETATM   27  C   UNL     1     -10.972  11.423  69.606  1.00  0.00    -0.174 C  
HETATM   28  C   UNL     1     -10.833  12.309  68.391  1.00  0.00    -0.257 A  
HETATM   29  C   UNL     1     -11.969  14.020  67.059  1.00  0.00    -0.472 A  
HETATM   30  C   UNL     1     -11.972  13.100  68.096  1.00  0.00    -0.333 A  
ENDBRANCH   8  24
ENDBRANCH   2   5
BRANCH   3  31
HETATM   31  C   UNL     1      -6.711  15.744  68.364  1.00  0.00    -0.116 C  
HETATM   32  C   UNL     1      -5.997  16.530  67.220  1.00  0.00    -0.200 C  
HETATM   33  C   UNL     1      -5.804  15.983  69.597  1.00  0.00    -0.155 C  
BRANCH  31  34
HETATM   34  C   UNL     1      -8.131  16.347  68.489  1.00  0.00    -0.205 A  
HETATM   35  F   UNL     1     -10.073  19.131  65.768  1.00  0.00    -0.398 F  
HETATM   36  C   UNL     1     -10.338  16.428  69.573  1.00  0.00    -0.278 A  
HETATM   37  C   UNL     1     -11.314  15.863  70.580  1.00  0.00    -0.390 C  
HETATM   38  F   UNL     1      -9.251  20.377  67.353  1.00  0.00    -0.430 F  
HETATM   39  C   UNL     1      -9.077  15.834  69.393  1.00  0.00    -0.254 A  
HETATM   40  C   UNL     1     -10.667  17.565  68.824  1.00  0.00    -0.134 A  
HETATM   41  F   UNL     1     -12.493  15.496  70.006  1.00  0.00    -0.363 F  
HETATM   42  F   UNL     1     -11.627  16.753  71.558  1.00  0.00    -0.425 F  
HETATM   43  F   UNL     1     -10.849  14.753  71.215  1.00  0.00    -0.189 F  
HETATM   44  F   UNL     1     -11.353  19.825  67.381  1.00  0.00    -0.481 F  
HETATM   45  C   UNL     1      -9.758  18.103  67.902  1.00  0.00    -0.302 A  
HETATM   46  C   UNL     1      -8.502  17.482  67.738  1.00  0.00    -0.225 A  
HETATM   47  C   UNL     1     -10.105  19.347  67.111  1.00  0.00    -0.384 C  
ENDBRANCH  31  34
ENDBRANCH   3  31
TORSDOF 7
ENDMDL
MODEL       66
REMARK 921   NORMALIZED FREE ENERGY PREDICTED BY IDOCK:   -6.09 KCAL/MOL
REMARK 922        TOTAL FREE ENERGY PREDICTED BY IDOCK:   -9.22 KCAL/MOL
REMARK 923 INTER-LIGAND FREE ENERGY PREDICTED BY IDOCK:   -9.46 KCAL/MOL
REMARK 924 INTRA-LIGAND FREE ENERGY PREDICTED BY IDOCK:    0.24 KCAL/MOL
REMARK 927      BINDING AFFINITY PREDICTED BY RF-SCORE:    0.00 PKD
ROOT
HETATM    1  C   UNL     1     -11.119   9.551  66.847  1.00  0.00     0.346 C  
HETATM    2  N   UNL     1      -9.727   9.732  67.277  1.00  0.00    -0.163 N  
HETATM    3  C   UNL     1      -8.932   8.746  67.876  1.00  0.00    -0.140 C  
HETATM    4  O   UNL     1      -7.865   9.063  68.419  1.00  0.00    -0.100 OA 
ENDROOT
BRANCH   2   5
HETATM    5  C   UNL     1      -9.396  11.109  67.539  1.00  0.00    -0.168 A  
HETATM    6  C   UNL     1      -9.165  13.067  68.886  1.00  0.00     0.297 A  
HETATM    7  C   UNL     1      -8.450  11.720  66.708  1.00  0.00    -0.177 A  
HETATM    8  C   UNL     1      -9.836  11.829  68.667  1.00  0.00    -0.153 A  
HETATM    9  C   UNL     1      -8.222  13.628  68.009  1.00  0.00    -0.162 A  
HETATM   10  N   UNL     1      -7.885  12.938  66.907  1.00  0.00     0.023 NA 
BRANCH   9  11
HETATM   11  N   UNL     1      -7.616  14.851  68.226  1.00  0.00    -0.107 NA 
HETATM   12  C   UNL     1      -6.549  15.333  67.320  1.00  0.00     0.025 C  
HETATM   13  N   UNL     1      -7.304  17.752  67.790  1.00  0.00    -0.199 N  
HETATM   14  C   UNL     1      -6.110  18.274  68.555  1.00  0.00    -0.196 C  
HETATM   15  C   UNL     1      -7.972  15.789  69.292  1.00  0.00    -0.239 C  
HETATM   16  C   UNL     1      -6.894  16.722  66.711  1.00  0.00    -0.230 C  
HETATM   17  C   UNL     1      -8.380  17.149  68.702  1.00  0.00    -0.257 C  
BRANCH  13  18
HETATM   18  C   UNL     1      -7.982  18.946  67.102  1.00  0.00    -0.241 C  
BRANCH  18  19
HETATM   19  O   UNL     1      -8.862  18.620  66.070  1.00  0.00    -0.489 OA 
HETATM   20  O   UNL     1      -9.973  20.687  67.067  1.00  0.00    -0.441 OA 
HETATM   21  O   UNL     1     -11.010  19.413  64.985  1.00  0.00    -0.341 OA 
HETATM   22  O   UNL     1     -10.985  18.370  67.204  1.00  0.00    -0.311 OA 
HETATM   23  P   UNL     1     -10.242  19.444  66.263  1.00  0.00    -0.513 P  
ENDBRANCH  18  19
ENDBRANCH  13  18
ENDBRANCH   9  11
BRANCH   8  24
HETATM   24  C   UNL     1     -10.891  11.372  69.651  1.00  0.00    -0.107 A  
HETATM   25  C   UNL     1     -10.843  10.066  70.188  1.00  0.00    -0.365 A  
HETATM   26  C   UNL     1     -11.781   9.573  71.105  1.00  0.00    -0.438 A  
HETATM   27  C   UNL     1     -12.251  13.593  69.640  1.00  0.00    -0.326 C  
HETATM   28  C   UNL     1     -11.968  12.188  70.117  1.00  0.00    -0.394 A  
HETATM   29  C   UNL     1     -12.785  10.398  71.573  1.00  0.00    -0.564 A  
HETATM   30  C   UNL     1     -12.868  11.697  71.096  1.00  0.00    -0.392 A  
ENDBRANCH   8  24
ENDBRANCH   2   5
BRANCH   3  31
HETATM   31  C   UNL     1      -9.370   7.234  67.874  1.00  0.00    -0.131 C  
HETATM   32  C   UNL     1      -8.363   6.430  66.993  1.00  0.00    -0.112 C  
HETATM   33  C   UNL     1     -10.725   7.047  67.148  1.00  0.00    -0.433 C  
BRANCH  31  34
HETATM   34  C   UNL     1      -9.310   6.609  69.289  1.00  0.00    -0.142 A  
HETATM   35  F   UNL     1      -9.493   8.682  73.109  1.00  0.00    -0.281 F  
HETATM   36  C   UNL     1      -9.321   4.641  70.764  1.00  0.00    -0.215 A  
HETATM   37  C   UNL     1      -9.456   3.145  70.937  1.00  0.00    -0.160 C  
HETATM   38  F   UNL     1      -7.369   8.385  72.733  1.00  0.00    -0.127 F  
HETATM   39  C   UNL     1      -9.458   5.226  69.495  1.00  0.00    -0.192 A  
HETATM   40  C   UNL     1      -9.031   5.460  71.863  1.00  0.00    -0.144 A  
HETATM   41  F   UNL     1     -10.448   2.814  71.809  1.00  0.00    -0.166 F  
HETATM   42  F   UNL     1      -8.321   2.570  71.414  1.00  0.00    -0.058 F  
HETATM   43  F   UNL     1      -9.750   2.495  69.778  1.00  0.00    -0.198 F  
HETATM   44  F   UNL     1      -8.439   7.036  74.060  1.00  0.00    -0.136 F  
HETATM   45  C   UNL     1      -8.886   6.845  71.705  1.00  0.00    -0.128 A  
HETATM   46  C   UNL     1      -9.036   7.407  70.420  1.00  0.00    -0.157 A  
HETATM   47  C   UNL     1      -8.549   7.727  72.890  1.00  0.00    -0.158 C  
ENDBRANCH  31  34
ENDBRANCH   3  31
TORSDOF 7
ENDMDL
MODEL       67
REMARK 921   NORMALIZED FREE ENERGY PREDICTED BY IDOCK:   -6.07 KCAL/MOL
REMARK 922        TOTAL FREE ENERGY PREDICTED BY IDOCK:   -9.19 KCAL/MOL
REMARK 923 INTER-LIGAND FREE ENERGY PREDICTED BY IDOCK:   -9.43 KCAL/MOL
REMARK 924 INTRA-LIGAND FREE ENERGY PREDICTED BY IDOCK:    0.24 KCAL/MOL
REMARK 927      BINDING AFFINITY PREDICTED BY RF-SCORE:    0.00 PKD
ROOT
HETATM    1  C   UNL     1      -8.562  13.916  66.225  1.00  0.00     0.546 C  
HETATM    2  N   UNL     1      -8.308  13.035  67.370  1.00  0.00    -0.185 N  
HETATM    3  C   UNL     1      -7.620  13.401  68.536  1.00  0.00    -0.127 C  
HETATM    4  O   UNL     1      -7.247  12.527  69.330  1.00  0.00     0.005 OA 
ENDROOT
BRANCH   2   5
HETATM    5  C   UNL     1      -8.331  11.637  67.019  1.00  0.00    -0.169 A  
HETATM    6  C   UNL     1      -8.874   9.750  65.661  1.00  0.00    -0.182 A  
HETATM    7  C   UNL     1      -7.316  10.821  67.531  1.00  0.00    -0.092 A  
HETATM    8  C   UNL     1      -9.207  11.073  66.071  1.00  0.00    -0.213 A  
HETATM    9  C   UNL     1      -7.839   8.981  66.218  1.00  0.00    -0.099 A  
HETATM   10  N   UNL     1      -7.073   9.535  67.172  1.00  0.00    -0.085 NA 
BRANCH   9  11
HETATM   11  N   UNL     1      -7.563   7.683  65.829  1.00  0.00    -0.085 NA 
HETATM   12  C   UNL     1      -6.228   7.091  66.079  1.00  0.00    -0.036 C  
HETATM   13  N   UNL     1      -7.347   4.779  66.302  1.00  0.00    -0.077 N  
HETATM   14  C   UNL     1      -6.801   4.085  65.076  1.00  0.00    -0.049 C  
HETATM   15  C   UNL     1      -8.521   6.771  65.202  1.00  0.00    -0.028 C  
HETATM   16  C   UNL     1      -6.328   5.776  66.904  1.00  0.00    -0.038 C  
HETATM   17  C   UNL     1      -8.679   5.492  66.041  1.00  0.00    -0.141 C  
BRANCH  13  18
HETATM   18  C   UNL     1      -7.665   3.703  67.352  1.00  0.00    -0.078 C  
BRANCH  18  19
HETATM   19  O   UNL     1      -7.666   4.142  68.676  1.00  0.00    -0.062 OA 
HETATM   20  O   UNL     1      -9.330   2.212  68.766  1.00  0.00    -0.149 OA 
HETATM   21  O   UNL     1      -8.709   3.620  70.925  1.00  0.00    -0.070 OA 
HETATM   22  O   UNL     1      -9.997   4.632  69.100  1.00  0.00    -0.189 OA 
HETATM   23  P   UNL     1      -8.924   3.486  69.455  1.00  0.00    -0.143 P  
ENDBRANCH  18  19
ENDBRANCH  13  18
ENDBRANCH   9  11
BRANCH   8  24
HETATM   24  C   UNL     1     -10.397  11.766  65.445  1.00  0.00    -0.311 A  
HETATM   25  C   UNL     1     -10.473  11.919  64.042  1.00  0.00    -0.417 A  
HETATM   26  C   UNL     1     -11.542  12.546  63.390  1.00  0.00    -0.547 A  
HETATM   27  C   UNL     1     -11.617  12.289  67.685  1.00  0.00    -0.421 C  
HETATM   28  C   UNL     1     -11.506  12.288  66.179  1.00  0.00    -0.429 A  
HETATM   29  C   UNL     1     -12.623  13.000  64.120  1.00  0.00    -0.301 A  
HETATM   30  C   UNL     1     -12.613  12.858  65.499  1.00  0.00    -0.359 A  
ENDBRANCH   8  24
ENDBRANCH   2   5
BRANCH   3  31
HETATM   31  C   UNL     1      -7.307  14.909  68.856  1.00  0.00    -0.136 C  
HETATM   32  C   UNL     1      -6.579  15.534  67.625  1.00  0.00    -0.195 C  
HETATM   33  C   UNL     1      -6.268  15.032  69.999  1.00  0.00    -0.157 C  
BRANCH  31  34
HETATM   34  C   UNL     1      -8.595  15.739  69.071  1.00  0.00    -0.236 A  
HETATM   35  F   UNL     1     -11.758  15.014  71.968  1.00  0.00    -0.386 F  
HETATM   36  C   UNL     1      -9.956  17.739  68.624  1.00  0.00    -0.379 A  
HETATM   37  C   UNL     1     -10.099  19.096  67.973  1.00  0.00    -0.397 C  
HETATM   38  F   UNL     1     -12.475  14.117  70.118  1.00  0.00    -0.359 F  
HETATM   39  C   UNL     1      -8.757  17.016  68.505  1.00  0.00    -0.253 A  
HETATM   40  C   UNL     1     -11.023  17.175  69.334  1.00  0.00     0.163 A  
HETATM   41  F   UNL     1     -10.392  20.073  68.874  1.00  0.00    -0.527 F  
HETATM   42  F   UNL     1     -11.091  19.125  67.044  1.00  0.00    -0.513 F  
HETATM   43  F   UNL     1      -8.970  19.507  67.333  1.00  0.00    -0.308 F  
HETATM   44  F   UNL     1     -13.166  16.090  70.710  1.00  0.00    -0.438 F  
HETATM   45  C   UNL     1     -10.901  15.909  69.924  1.00  0.00    -0.333 A  
HETATM   46  C   UNL     1      -9.684  15.208  69.795  1.00  0.00    -0.093 A  
HETATM   47  C   UNL     1     -12.064  15.289  70.671  1.00  0.00    -0.354 C  
ENDBRANCH  31  34
ENDBRANCH   3  31
TORSDOF 7
ENDMDL
MODEL       68
REMARK 921   NORMALIZED FREE ENERGY PREDICTED BY IDOCK:   -6.01 KCAL/MOL
REMARK 922        TOTAL FREE ENERGY PREDICTED BY IDOCK:   -9.10 KCAL/MOL
REMARK 923 INTER-LIGAND FREE ENERGY PREDICTED BY IDOCK:   -8.46 KCAL/MOL
REMARK 924 INTRA-LIGAND FREE ENERGY PREDICTED BY IDOCK:   -0.64 KCAL/MOL
REMARK 927      BINDING AFFINITY PREDICTED BY RF-SCORE:    0.00 PKD
ROOT
HETATM    1  C   UNL     1     -10.559   9.151  66.646  1.00  0.00    -0.087 C  
HETATM    2  N   UNL     1      -9.275   9.263  67.347  1.00  0.00    -0.126 N  
HETATM    3  C   UNL     1      -8.715   8.278  68.173  1.00  0.00    -0.136 C  
HETATM    4  O   UNL     1      -7.758   8.562  68.906  1.00  0.00    -0.096 OA 
ENDROOT
BRANCH   2   5
HETATM    5  C   UNL     1      -8.876  10.629  67.571  1.00  0.00    -0.132 A  
HETATM    6  C   UNL     1      -8.690  12.660  68.813  1.00  0.00     0.169 A  
HETATM    7  C   UNL     1      -7.772  11.110  66.857  1.00  0.00    -0.148 A  
HETATM    8  C   UNL     1      -9.418  11.459  68.572  1.00  0.00    -0.183 A  
HETATM    9  C   UNL     1      -7.586  13.087  68.057  1.00  0.00    -0.139 A  
HETATM   10  N   UNL     1      -7.147  12.297  67.064  1.00  0.00    -0.092 NA 
BRANCH   9  11
HETATM   11  N   UNL     1      -6.922  14.278  68.287  1.00  0.00    -0.095 NA 
HETATM   12  C   UNL     1      -6.336  15.042  67.161  1.00  0.00     0.465 C  
HETATM   13  N   UNL     1      -6.772  17.218  68.472  1.00  0.00    -0.177 N  
HETATM   14  C   UNL     1      -5.356  17.656  68.767  1.00  0.00    -0.156 C  
HETATM   15  C   UNL     1      -6.770  14.917  69.595  1.00  0.00    -0.172 C  
HETATM   16  C   UNL     1      -6.882  16.497  67.108  1.00  0.00    -0.195 C  
HETATM   17  C   UNL     1      -7.366  16.335  69.577  1.00  0.00    -0.078 C  
BRANCH  13  18
HETATM   18  C   UNL     1      -7.657  18.474  68.442  1.00  0.00    -0.292 C  
BRANCH  18  19
HETATM   19  O   UNL     1      -8.503  18.581  67.339  1.00  0.00    -0.254 OA 
HETATM   20  O   UNL     1     -10.070  19.187  69.257  1.00  0.00    -0.339 OA 
HETATM   21  O   UNL     1     -10.893  19.170  66.736  1.00  0.00    -0.419 OA 
HETATM   22  O   UNL     1     -10.319  17.078  67.879  1.00  0.00    -0.308 OA 
HETATM   23  P   UNL     1     -10.037  18.661  67.847  1.00  0.00    -0.404 P  
ENDBRANCH  18  19
ENDBRANCH  13  18
ENDBRANCH   9  11
BRANCH   8  24
HETATM   24  C   UNL     1     -10.639  11.151  69.411  1.00  0.00    -0.174 A  
HETATM   25  C   UNL     1     -10.672   9.990  70.218  1.00  0.00    -0.367 A  
HETATM   26  C   UNL     1     -11.764   9.641  71.022  1.00  0.00    -0.433 A  
HETATM   27  C   UNL     1     -12.016  13.229  68.659  1.00  0.00    -0.345 C  
HETATM   28  C   UNL     1     -11.804  11.975  69.474  1.00  0.00    -0.390 A  
HETATM   29  C   UNL     1     -12.859  10.479  71.099  1.00  0.00    -0.513 A  
HETATM   30  C   UNL     1     -12.872  11.642  70.345  1.00  0.00     0.024 A  
ENDBRANCH   8  24
ENDBRANCH   2   5
BRANCH   3  31
HETATM   31  C   UNL     1      -9.284   6.811  68.192  1.00  0.00    -0.121 C  
HETATM   32  C   UNL     1      -8.420   5.936  67.231  1.00  0.00    -0.103 C  
HETATM   33  C   UNL     1     -10.700   6.755  67.567  1.00  0.00    -0.381 C  
BRANCH  31  34
HETATM   34  C   UNL     1      -9.175   6.162  69.592  1.00  0.00    -0.148 A  
HETATM   35  F   UNL     1      -7.682   2.192  70.560  1.00  0.00    -0.041 F  
HETATM   36  C   UNL     1      -9.297   6.321  72.044  1.00  0.00    -0.155 A  
HETATM   37  C   UNL     1      -9.477   7.164  73.286  1.00  0.00    -0.179 C  
HETATM   38  F   UNL     1      -9.846   1.971  70.469  1.00  0.00    -0.192 F  
HETATM   39  C   UNL     1      -9.310   6.916  70.771  1.00  0.00    -0.161 A  
HETATM   40  C   UNL     1      -9.141   4.932  72.144  1.00  0.00    -0.148 A  
HETATM   41  F   UNL     1      -8.424   7.057  74.140  1.00  0.00    -0.137 F  
HETATM   42  F   UNL     1     -10.582   6.816  73.996  1.00  0.00    -0.344 F  
HETATM   43  F   UNL     1      -9.605   8.493  73.019  1.00  0.00    -0.316 F  
HETATM   44  F   UNL     1      -8.854   2.191  72.390  1.00  0.00    -0.063 F  
HETATM   45  C   UNL     1      -8.992   4.144  70.995  1.00  0.00    -0.163 A  
HETATM   46  C   UNL     1      -9.001   4.768  69.730  1.00  0.00    -0.139 A  
HETATM   47  C   UNL     1      -8.847   2.640  71.103  1.00  0.00    -0.076 C  
ENDBRANCH  31  34
ENDBRANCH   3  31
TORSDOF 7
ENDMDL
MODEL       69
REMARK 921   NORMALIZED FREE ENERGY PREDICTED BY IDOCK:   -6.00 KCAL/MOL
REMARK 922        TOTAL FREE ENERGY PREDICTED BY IDOCK:   -9.10 KCAL/MOL
REMARK 923 INTER-LIGAND FREE ENERGY PREDICTED BY IDOCK:   -8.78 KCAL/MOL
REMARK 924 INTRA-LIGAND FREE ENERGY PREDICTED BY IDOCK:   -0.32 KCAL/MOL
REMARK 927      BINDING AFFINITY PREDICTED BY RF-SCORE:    0.00 PKD
ROOT
HETATM    1  C   UNL     1     -10.920  11.925  68.835  1.00  0.00    -0.238 C  
HETATM    2  N   UNL     1     -10.061  12.010  67.648  1.00  0.00    -0.194 N  
HETATM    3  C   UNL     1     -10.153  12.992  66.652  1.00  0.00    -0.251 C  
HETATM    4  O   UNL     1      -9.553  12.838  65.579  1.00  0.00    -0.137 OA 
ENDROOT
BRANCH   2   5
HETATM    5  C   UNL     1      -9.479  10.743  67.285  1.00  0.00    -0.159 A  
HETATM    6  C   UNL     1      -7.990   8.892  67.524  1.00  0.00    -0.101 A  
HETATM    7  C   UNL     1     -10.261   9.858  66.535  1.00  0.00    -0.222 A  
HETATM    8  C   UNL     1      -8.242  10.273  67.769  1.00  0.00    -0.110 A  
HETATM    9  C   UNL     1      -8.818   8.055  66.758  1.00  0.00    -0.140 A  
HETATM   10  N   UNL     1      -9.954   8.566  66.256  1.00  0.00    -0.240 NA 
BRANCH   9  11
HETATM   11  N   UNL     1      -8.529   6.727  66.502  1.00  0.00    -0.119 NA 
HETATM   12  C   UNL     1      -7.186   6.179  66.801  1.00  0.00    -0.074 C  
HETATM   13  N   UNL     1      -8.274   3.890  67.268  1.00  0.00    -0.098 N  
HETATM   14  C   UNL     1      -7.728   3.080  66.116  1.00  0.00    -0.077 C  
HETATM   15  C   UNL     1      -9.480   5.744  65.979  1.00  0.00    -0.086 C  
HETATM   16  C   UNL     1      -7.264   4.955  67.757  1.00  0.00    -0.070 C  
HETATM   17  C   UNL     1      -9.617   4.557  66.947  1.00  0.00    -0.190 C  
BRANCH  13  18
HETATM   18  C   UNL     1      -8.572   2.924  68.425  1.00  0.00    -0.087 C  
BRANCH  18  19
HETATM   19  O   UNL     1      -9.617   3.303  69.267  1.00  0.00    -0.162 OA 
HETATM   20  O   UNL     1      -7.660   3.170  70.896  1.00  0.00    -0.039 OA 
HETATM   21  O   UNL     1     -10.092   3.870  71.691  1.00  0.00    -0.173 OA 
HETATM   22  O   UNL     1      -9.626   1.576  70.961  1.00  0.00    -0.114 OA 
HETATM   23  P   UNL     1      -9.161   3.109  70.807  1.00  0.00    -0.142 P  
ENDBRANCH  18  19
ENDBRANCH  13  18
ENDBRANCH   9  11
BRANCH   8  24
HETATM   24  C   UNL     1      -7.229  11.086  68.545  1.00  0.00    -0.085 A  
HETATM   25  C   UNL     1      -6.573  12.177  67.930  1.00  0.00    -0.085 A  
HETATM   26  C   UNL     1      -5.627  12.976  68.584  1.00  0.00    -0.069 A  
HETATM   27  C   UNL     1      -7.402   9.705  70.746  1.00  0.00    -0.060 C  
HETATM   28  C   UNL     1      -6.874  10.845  69.907  1.00  0.00    -0.126 A  
HETATM   29  C   UNL     1      -5.336  12.750  69.915  1.00  0.00    -0.094 A  
HETATM   30  C   UNL     1      -5.966  11.706  70.575  1.00  0.00    -0.078 A  
ENDBRANCH   8  24
ENDBRANCH   2   5
BRANCH   3  31
HETATM   31  C   UNL     1     -11.009  14.294  66.869  1.00  0.00    -0.304 C  
HETATM   32  C   UNL     1     -11.715  14.195  68.258  1.00  0.00    -0.383 C  
HETATM   33  C   UNL     1     -12.185  14.361  65.863  1.00  0.00    -0.354 C  
BRANCH  31  34
HETATM   34  C   UNL     1     -10.132  15.569  66.914  1.00  0.00    -0.263 A  
HETATM   35  F   UNL     1     -11.461  19.682  67.398  1.00  0.00    -0.437 F  
HETATM   36  C   UNL     1      -7.924  16.647  67.027  1.00  0.00    -0.230 A  
HETATM   37  C   UNL     1      -6.423  16.528  67.168  1.00  0.00    -0.194 C  
HETATM   38  F   UNL     1     -11.220  19.420  65.250  1.00  0.00    -0.375 F  
HETATM   39  C   UNL     1      -8.736  15.502  67.070  1.00  0.00    -0.258 A  
HETATM   40  C   UNL     1      -8.522  17.898  66.826  1.00  0.00    -0.268 A  
HETATM   41  F   UNL     1      -5.945  17.246  68.221  1.00  0.00    -0.137 F  
HETATM   42  F   UNL     1      -5.760  16.975  66.069  1.00  0.00    -0.194 F  
HETATM   43  F   UNL     1      -6.002  15.249  67.369  1.00  0.00    -0.154 F  
HETATM   44  F   UNL     1      -9.658  20.388  66.411  1.00  0.00    -0.467 F  
HETATM   45  C   UNL     1      -9.912  18.011  66.676  1.00  0.00    -0.362 A  
HETATM   46  C   UNL     1     -10.703  16.846  66.731  1.00  0.00    -0.111 A  
HETATM   47  C   UNL     1     -10.555  19.361  66.435  1.00  0.00    -0.463 C  
ENDBRANCH  31  34
ENDBRANCH   3  31
TORSDOF 7
ENDMDL
MODEL       70
REMARK 921   NORMALIZED FREE ENERGY PREDICTED BY IDOCK:   -5.99 KCAL/MOL
REMARK 922        TOTAL FREE ENERGY PREDICTED BY IDOCK:   -9.09 KCAL/MOL
REMARK 923 INTER-LIGAND FREE ENERGY PREDICTED BY IDOCK:   -6.87 KCAL/MOL
REMARK 924 INTRA-LIGAND FREE ENERGY PREDICTED BY IDOCK:   -2.21 KCAL/MOL
REMARK 927      BINDING AFFINITY PREDICTED BY RF-SCORE:    0.00 PKD
ROOT
HETATM    1  C   UNL     1     -11.155   8.800  69.147  1.00  0.00     0.164 C  
HETATM    2  N   UNL     1      -9.908   8.961  68.391  1.00  0.00    -0.168 N  
HETATM    3  C   UNL     1      -9.165   7.916  67.824  1.00  0.00    -0.137 C  
HETATM    4  O   UNL     1      -8.013   8.129  67.421  1.00  0.00    -0.114 OA 
ENDROOT
BRANCH   2   5
HETATM    5  C   UNL     1      -9.209  10.180  68.713  1.00  0.00    -0.164 A  
HETATM    6  C   UNL     1      -7.403  11.483  69.573  1.00  0.00     0.130 A  
HETATM    7  C   UNL     1      -9.513  11.322  67.963  1.00  0.00    -0.173 A  
HETATM    8  C   UNL     1      -8.133  10.260  69.618  1.00  0.00    -0.157 A  
HETATM    9  C   UNL     1      -7.763  12.597  68.796  1.00  0.00     0.007 A  
HETATM   10  N   UNL     1      -8.840  12.499  68.000  1.00  0.00    -0.181 NA 
BRANCH   9  11
HETATM   11  N   UNL     1      -7.059  13.787  68.802  1.00  0.00    -0.103 NA 
HETATM   12  C   UNL     1      -5.998  14.038  67.800  1.00  0.00    -0.104 C  
HETATM   13  N   UNL     1      -6.551  16.553  67.912  1.00  0.00    -0.134 N  
HETATM   14  C   UNL     1      -5.291  17.088  68.550  1.00  0.00    -0.131 C  
HETATM   15  C   UNL     1      -7.299  14.902  69.720  1.00  0.00    -0.100 C  
HETATM   16  C   UNL     1      -6.265  15.341  66.994  1.00  0.00     0.624 C  
HETATM   17  C   UNL     1      -7.630  16.184  68.938  1.00  0.00    -0.201 C  
BRANCH  13  18
HETATM   18  C   UNL     1      -7.168  17.678  67.068  1.00  0.00    -0.183 C  
BRANCH  18  19
HETATM   19  O   UNL     1      -8.203  18.385  67.679  1.00  0.00    -0.249 OA 
HETATM   20  O   UNL     1      -9.368  17.434  65.620  1.00  0.00    -0.496 OA 
HETATM   21  O   UNL     1     -10.662  18.926  67.390  1.00  0.00    -0.444 OA 
HETATM   22  O   UNL     1      -8.938  19.907  65.948  1.00  0.00    -0.339 OA 
HETATM   23  P   UNL     1      -9.432  18.540  66.638  1.00  0.00    -0.315 P  
ENDBRANCH  18  19
ENDBRANCH  13  18
ENDBRANCH   9  11
BRANCH   8  24
HETATM   24  C   UNL     1      -7.684   9.163  70.559  1.00  0.00    -0.142 A  
HETATM   25  C   UNL     1      -8.510   8.769  71.636  1.00  0.00    -0.209 A  
HETATM   26  C   UNL     1      -8.165   7.761  72.545  1.00  0.00    -0.165 A  
HETATM   27  C   UNL     1      -5.392   8.734  69.401  1.00  0.00    -0.035 C  
HETATM   28  C   UNL     1      -6.453   8.449  70.437  1.00  0.00    -0.035 A  
HETATM   29  C   UNL     1      -6.989   7.056  72.377  1.00  0.00    -0.065 A  
HETATM   30  C   UNL     1      -6.150   7.385  71.324  1.00  0.00    -0.036 A  
ENDBRANCH   8  24
ENDBRANCH   2   5
BRANCH   3  31
HETATM   31  C   UNL     1      -9.767   6.469  67.690  1.00  0.00    -0.137 C  
HETATM   32  C   UNL     1      -8.884   5.659  66.689  1.00  0.00    -0.119 C  
HETATM   33  C   UNL     1     -11.158   6.504  67.009  1.00  0.00    -0.411 C  
BRANCH  31  34
HETATM   34  C   UNL     1      -9.730   5.696  69.031  1.00  0.00    -0.187 A  
HETATM   35  F   UNL     1     -12.719   5.732  72.190  1.00  0.00    -0.208 F  
HETATM   36  C   UNL     1      -8.714   4.008  70.504  1.00  0.00    -0.120 A  
HETATM   37  C   UNL     1      -7.691   2.916  70.720  1.00  0.00    -0.042 C  
HETATM   38  F   UNL     1     -11.220   7.180  72.820  1.00  0.00    -0.264 F  
HETATM   39  C   UNL     1      -8.811   4.657  69.261  1.00  0.00    -0.124 A  
HETATM   40  C   UNL     1      -9.561   4.405  71.546  1.00  0.00    -0.228 A  
HETATM   41  F   UNL     1      -8.263   1.737  71.087  1.00  0.00    -0.045 F  
HETATM   42  F   UNL     1      -6.797   3.226  71.696  1.00  0.00    -0.027 F  
HETATM   43  F   UNL     1      -6.955   2.642  69.608  1.00  0.00    -0.033 F  
HETATM   44  F   UNL     1     -11.202   5.168  73.641  1.00  0.00    -0.332 F  
HETATM   45  C   UNL     1     -10.500   5.429  71.356  1.00  0.00    -0.294 A  
HETATM   46  C   UNL     1     -10.581   6.058  70.096  1.00  0.00    -0.341 A  
HETATM   47  C   UNL     1     -11.399   5.873  72.491  1.00  0.00    -0.304 C  
ENDBRANCH  31  34
ENDBRANCH   3  31
TORSDOF 7
ENDMDL
MODEL       71
REMARK 921   NORMALIZED FREE ENERGY PREDICTED BY IDOCK:   -5.98 KCAL/MOL
REMARK 922        TOTAL FREE ENERGY PREDICTED BY IDOCK:   -9.07 KCAL/MOL
REMARK 923 INTER-LIGAND FREE ENERGY PREDICTED BY IDOCK:   -7.19 KCAL/MOL
REMARK 924 INTRA-LIGAND FREE ENERGY PREDICTED BY IDOCK:   -1.88 KCAL/MOL
REMARK 927      BINDING AFFINITY PREDICTED BY RF-SCORE:    0.00 PKD
ROOT
HETATM    1  C   UNL     1      -6.639  12.006  69.854  1.00  0.00     0.048 C  
HETATM    2  N   UNL     1      -6.760  11.772  68.410  1.00  0.00    -0.061 N  
HETATM    3  C   UNL     1      -7.456  12.594  67.513  1.00  0.00    -0.155 C  
HETATM    4  O   UNL     1      -7.704  12.186  66.371  1.00  0.00     0.139 OA 
ENDROOT
BRANCH   2   5
HETATM    5  C   UNL     1      -6.584  10.388  68.049  1.00  0.00    -0.061 A  
HETATM    6  C   UNL     1      -7.305   8.173  67.526  1.00  0.00    -0.093 A  
HETATM    7  C   UNL     1      -5.420  10.041  67.354  1.00  0.00    -0.042 A  
HETATM    8  C   UNL     1      -7.571   9.397  68.206  1.00  0.00    -0.082 A  
HETATM    9  C   UNL     1      -6.111   7.886  66.844  1.00  0.00    -0.053 A  
HETATM   10  N   UNL     1      -5.165   8.837  66.781  1.00  0.00    -0.038 NA 
BRANCH   9  11
HETATM   11  N   UNL     1      -5.862   6.674  66.226  1.00  0.00    -0.024 NA 
HETATM   12  C   UNL     1      -6.319   5.408  66.843  1.00  0.00    -0.039 C  
HETATM   13  N   UNL     1      -6.583   4.408  64.481  1.00  0.00    -0.042 N  
HETATM   14  C   UNL     1      -5.492   3.363  64.496  1.00  0.00    -0.010 C  
HETATM   15  C   UNL     1      -5.194   6.510  64.933  1.00  0.00    -0.021 C  
HETATM   16  C   UNL     1      -7.226   4.593  65.877  1.00  0.00    -0.076 C  
HETATM   17  C   UNL     1      -6.106   5.763  63.946  1.00  0.00    -0.025 C  
BRANCH  13  18
HETATM   18  C   UNL     1      -7.667   3.944  63.496  1.00  0.00    -0.074 C  
BRANCH  18  19
HETATM   19  O   UNL     1      -8.914   4.548  63.652  1.00  0.00    -0.138 OA 
HETATM   20  O   UNL     1      -9.322   2.243  64.662  1.00  0.00    -0.135 OA 
HETATM   21  O   UNL     1     -11.228   4.085  64.576  1.00  0.00    -0.336 OA 
HETATM   22  O   UNL     1     -10.416   3.028  62.518  1.00  0.00    -0.123 OA 
HETATM   23  P   UNL     1     -10.012   3.419  64.025  1.00  0.00    -0.203 P  
ENDBRANCH  18  19
ENDBRANCH  13  18
ENDBRANCH   9  11
BRANCH   8  24
HETATM   24  C   UNL     1      -8.868   9.552  68.972  1.00  0.00    -0.143 A  
HETATM   25  C   UNL     1      -8.934   9.193  70.337  1.00  0.00    -0.263 A  
HETATM   26  C   UNL     1     -10.095   9.311  71.111  1.00  0.00    -0.374 A  
HETATM   27  C   UNL     1     -10.258  10.463  66.967  1.00  0.00    -0.277 C  
HETATM   28  C   UNL     1     -10.078  10.068  68.414  1.00  0.00    -0.186 A  
HETATM   29  C   UNL     1     -11.238   9.856  70.559  1.00  0.00    -0.399 A  
HETATM   30  C   UNL     1     -11.225  10.246  69.229  1.00  0.00    -0.281 A  
ENDBRANCH   8  24
ENDBRANCH   2   5
BRANCH   3  31
HETATM   31  C   UNL     1      -7.934  14.034  67.931  1.00  0.00    -0.158 C  
HETATM   32  C   UNL     1      -7.435  15.051  66.857  1.00  0.00     0.162 C  
HETATM   33  C   UNL     1      -7.233  14.498  69.232  1.00  0.00    -0.131 C  
BRANCH  31  34
HETATM   34  C   UNL     1      -9.477  14.150  67.959  1.00  0.00    -0.213 A  
HETATM   35  F   UNL     1     -11.984  15.303  71.322  1.00  0.00    -0.288 F  
HETATM   36  C   UNL     1     -11.647  14.166  66.800  1.00  0.00    -0.409 A  
HETATM   37  C   UNL     1     -12.432  14.130  65.509  1.00  0.00    -0.476 C  
HETATM   38  F   UNL     1     -12.006  13.126  71.327  1.00  0.00    -0.305 F  
HETATM   39  C   UNL     1     -10.242  14.147  66.780  1.00  0.00    -0.262 A  
HETATM   40  C   UNL     1     -12.309  14.194  68.034  1.00  0.00    -0.016 A  
HETATM   41  F   UNL     1     -13.249  15.210  65.370  1.00  0.00     0.227 F  
HETATM   42  F   UNL     1     -13.230  13.034  65.415  1.00  0.00    -0.417 F  
HETATM   43  F   UNL     1     -11.643  14.117  64.400  1.00  0.00    -0.369 F  
HETATM   44  F   UNL     1     -13.660  14.229  70.449  1.00  0.00    -0.184 F  
HETATM   45  C   UNL     1     -11.585  14.209  69.235  1.00  0.00    -0.350 A  
HETATM   46  C   UNL     1     -10.176  14.197  69.184  1.00  0.00    -0.065 A  
HETATM   47  C   UNL     1     -12.302  14.215  70.569  1.00  0.00    -0.364 C  
ENDBRANCH  31  34
ENDBRANCH   3  31
TORSDOF 7
ENDMDL
MODEL       72
REMARK 921   NORMALIZED FREE ENERGY PREDICTED BY IDOCK:   -5.83 KCAL/MOL
REMARK 922        TOTAL FREE ENERGY PREDICTED BY IDOCK:   -8.86 KCAL/MOL
REMARK 923 INTER-LIGAND FREE ENERGY PREDICTED BY IDOCK:   -7.65 KCAL/MOL
REMARK 924 INTRA-LIGAND FREE ENERGY PREDICTED BY IDOCK:   -1.21 KCAL/MOL
REMARK 927      BINDING AFFINITY PREDICTED BY RF-SCORE:    0.00 PKD
ROOT
HETATM    1  C   UNL     1      -8.991  10.647  69.441  1.00  0.00    -0.029 C  
HETATM    2  N   UNL     1      -7.564  10.740  69.113  1.00  0.00    -0.124 N  
HETATM    3  C   UNL     1      -6.564   9.891  69.605  1.00  0.00    -0.056 C  
HETATM    4  O   UNL     1      -5.372  10.198  69.466  1.00  0.00    -0.038 OA 
ENDROOT
BRANCH   2   5
HETATM    5  C   UNL     1      -7.171  12.060  68.688  1.00  0.00    -0.110 A  
HETATM    6  C   UNL     1      -7.386  14.100  67.467  1.00  0.00    -0.193 A  
HETATM    7  C   UNL     1      -6.358  12.805  69.549  1.00  0.00    -0.108 A  
HETATM    8  C   UNL     1      -7.678  12.707  67.545  1.00  0.00    -0.161 A  
HETATM    9  C   UNL     1      -6.559  14.791  68.367  1.00  0.00    -0.101 A  
HETATM   10  N   UNL     1      -6.038  14.116  69.404  1.00  0.00    -0.097 NA 
BRANCH   9  11
HETATM   11  N   UNL     1      -6.259  16.135  68.245  1.00  0.00    -0.113 NA 
HETATM   12  C   UNL     1      -5.746  16.678  66.965  1.00  0.00    -0.130 C  
HETATM   13  N   UNL     1      -6.894  18.921  67.511  1.00  0.00    -0.201 N  
HETATM   14  C   UNL     1      -5.689  19.809  67.719  1.00  0.00    -0.193 C  
HETATM   15  C   UNL     1      -6.449  17.139  69.294  1.00  0.00    -0.235 C  
HETATM   16  C   UNL     1      -6.636  17.839  66.436  1.00  0.00    -0.241 C  
HETATM   17  C   UNL     1      -7.381  18.261  68.807  1.00  0.00    -0.284 C  
BRANCH  13  18
HETATM   18  C   UNL     1      -8.060  19.809  67.049  1.00  0.00    -0.293 C  
BRANCH  18  19
HETATM   19  O   UNL     1      -8.699  19.396  65.881  1.00  0.00    -0.427 OA 
HETATM   20  O   UNL     1     -10.677  19.823  67.432  1.00  0.00    -0.440 OA 
HETATM   21  O   UNL     1     -11.016  19.010  64.931  1.00  0.00    -0.349 OA 
HETATM   22  O   UNL     1     -10.036  17.516  66.610  1.00  0.00    -0.301 OA 
HETATM   23  P   UNL     1     -10.248  19.060  66.209  1.00  0.00    -0.437 P  
ENDBRANCH  18  19
ENDBRANCH  13  18
ENDBRANCH   9  11
BRANCH   8  24
HETATM   24  C   UNL     1      -8.522  12.065  66.465  1.00  0.00    -0.065 A  
HETATM   25  C   UNL     1      -9.860  12.475  66.272  1.00  0.00    -0.260 A  
HETATM   26  C   UNL     1     -10.701  11.930  65.293  1.00  0.00    -0.331 A  
HETATM   27  C   UNL     1      -6.686  10.416  65.632  1.00  0.00    -0.127 C  
HETATM   28  C   UNL     1      -8.058  11.048  65.576  1.00  0.00     0.053 A  
HETATM   29  C   UNL     1     -10.212  10.980  64.416  1.00  0.00    -0.409 A  
HETATM   30  C   UNL     1      -8.899  10.556  64.546  1.00  0.00    -0.214 A  
ENDBRANCH   8  24
ENDBRANCH   2   5
BRANCH   3  31
HETATM   31  C   UNL     1      -6.925   8.547  70.340  1.00  0.00    -0.038 C  
HETATM   32  C   UNL     1      -8.043   8.844  71.389  1.00  0.00    -0.160 C  
HETATM   33  C   UNL     1      -5.738   8.044  71.199  1.00  0.00    -0.034 C  
BRANCH  31  34
HETATM   34  C   UNL     1      -7.506   7.490  69.369  1.00  0.00    -0.087 A  
HETATM   35  F   UNL     1     -11.025   5.002  69.962  1.00  0.00    -0.256 F  
HETATM   36  C   UNL     1      -7.548   6.398  67.166  1.00  0.00    -0.096 A  
HETATM   37  C   UNL     1      -7.050   6.325  65.740  1.00  0.00    -0.069 C  
HETATM   38  F   UNL     1      -9.345   3.747  70.549  1.00  0.00    -0.163 F  
HETATM   39  C   UNL     1      -7.090   7.407  68.029  1.00  0.00    -0.081 A  
HETATM   40  C   UNL     1      -8.453   5.446  67.652  1.00  0.00    -0.105 A  
HETATM   41  F   UNL     1      -8.063   6.406  64.834  1.00  0.00    -0.107 F  
HETATM   42  F   UNL     1      -6.394   5.165  65.476  1.00  0.00    -0.031 F  
HETATM   43  F   UNL     1      -6.187   7.328  65.420  1.00  0.00    -0.035 F  
HETATM   44  F   UNL     1     -10.227   3.532  68.575  1.00  0.00     0.058 F  
HETATM   45  C   UNL     1      -8.904   5.499  68.979  1.00  0.00    -0.108 A  
HETATM   46  C   UNL     1      -8.432   6.526  69.821  1.00  0.00    -0.131 A  
HETATM   47  C   UNL     1      -9.864   4.454  69.510  1.00  0.00    -0.188 C  
ENDBRANCH  31  34
ENDBRANCH   3  31
TORSDOF 7
ENDMDL
MODEL       73
REMARK 921   NORMALIZED FREE ENERGY PREDICTED BY IDOCK:   -5.81 KCAL/MOL
REMARK 922        TOTAL FREE ENERGY PREDICTED BY IDOCK:   -8.83 KCAL/MOL
REMARK 923 INTER-LIGAND FREE ENERGY PREDICTED BY IDOCK:   -7.64 KCAL/MOL
REMARK 924 INTRA-LIGAND FREE ENERGY PREDICTED BY IDOCK:   -1.18 KCAL/MOL
REMARK 927      BINDING AFFINITY PREDICTED BY RF-SCORE:    0.00 PKD
ROOT
HETATM    1  C   UNL     1     -11.858  11.770  67.961  1.00  0.00    -0.234 C  
HETATM    2  N   UNL     1     -10.486  11.911  68.463  1.00  0.00    -0.219 N  
HETATM    3  C   UNL     1      -9.929  13.091  68.975  1.00  0.00     0.234 C  
HETATM    4  O   UNL     1      -8.705  13.171  69.143  1.00  0.00     0.374 OA 
ENDROOT
BRANCH   2   5
HETATM    5  C   UNL     1      -9.585  10.929  67.915  1.00  0.00    -0.166 A  
HETATM    6  C   UNL     1      -8.660   8.745  67.643  1.00  0.00    -0.128 A  
HETATM    7  C   UNL     1      -9.031  11.185  66.656  1.00  0.00    -0.170 A  
HETATM    8  C   UNL     1      -9.350   9.663  68.486  1.00  0.00    -0.138 A  
HETATM    9  C   UNL     1      -8.127   9.066  66.385  1.00  0.00    -0.110 A  
HETATM   10  N   UNL     1      -8.313  10.308  65.910  1.00  0.00    -0.140 NA 
BRANCH   9  11
HETATM   11  N   UNL     1      -7.426   8.165  65.604  1.00  0.00    -0.079 NA 
HETATM   12  C   UNL     1      -6.221   7.488  66.136  1.00  0.00    -0.041 C  
HETATM   13  N   UNL     1      -6.771   5.450  64.657  1.00  0.00    -0.046 N  
HETATM   14  C   UNL     1      -5.622   5.496  63.677  1.00  0.00    -0.014 C  
HETATM   15  C   UNL     1      -7.799   7.759  64.248  1.00  0.00    -0.138 C  
HETATM   16  C   UNL     1      -6.353   5.940  66.063  1.00  0.00    -0.042 C  
HETATM   17  C   UNL     1      -7.997   6.236  64.176  1.00  0.00    -0.103 C  
BRANCH  13  18
HETATM   18  C   UNL     1      -7.244   3.992  64.761  1.00  0.00    -0.067 C  
BRANCH  18  19
HETATM   19  O   UNL     1      -7.475   3.530  66.056  1.00  0.00    -0.074 OA 
HETATM   20  O   UNL     1      -9.421   2.489  64.778  1.00  0.00    -0.148 OA 
HETATM   21  O   UNL     1      -9.083   2.083  67.377  1.00  0.00    -0.138 OA 
HETATM   22  O   UNL     1      -9.722   4.293  66.529  1.00  0.00    -0.192 OA 
HETATM   23  P   UNL     1      -8.972   2.921  66.148  1.00  0.00    -0.106 P  
ENDBRANCH  18  19
ENDBRANCH  13  18
ENDBRANCH   9  11
BRANCH   8  24
HETATM   24  C   UNL     1      -9.808   9.212  69.857  1.00  0.00    -0.206 A  
HETATM   25  C   UNL     1     -11.184   9.024  70.119  1.00  0.00    -0.191 A  
HETATM   26  C   UNL     1     -11.683   8.606  71.359  1.00  0.00    -0.355 A  
HETATM   27  C   UNL     1      -7.433   9.118  70.919  1.00  0.00    -0.136 C  
HETATM   28  C   UNL     1      -8.932   8.933  70.950  1.00  0.00    -0.273 A  
HETATM   29  C   UNL     1     -10.810   8.299  72.385  1.00  0.00    -0.421 A  
HETATM   30  C   UNL     1      -9.448   8.445  72.177  1.00  0.00    -0.360 A  
ENDBRANCH   8  24
ENDBRANCH   2   5
BRANCH   3  31
HETATM   31  C   UNL     1     -10.833  14.326  69.340  1.00  0.00    -0.197 C  
HETATM   32  C   UNL     1     -10.183  15.072  70.548  1.00  0.00     0.249 C  
HETATM   33  C   UNL     1     -12.208  13.868  69.887  1.00  0.00    -0.393 C  
BRANCH  31  34
HETATM   34  C   UNL     1     -10.913  15.352  68.184  1.00  0.00    -0.297 A  
HETATM   35  F   UNL     1     -12.856  14.843  64.325  1.00  0.00    -0.389 F  
HETATM   36  C   UNL     1     -10.566  17.623  67.306  1.00  0.00    -0.297 A  
HETATM   37  C   UNL     1     -10.167  19.062  67.541  1.00  0.00    -0.394 C  
HETATM   38  F   UNL     1     -10.759  14.385  63.962  1.00  0.00    -0.129 F  
HETATM   39  C   UNL     1     -10.577  16.704  68.369  1.00  0.00    -0.343 A  
HETATM   40  C   UNL     1     -10.904  17.180  66.020  1.00  0.00     0.014 A  
HETATM   41  F   UNL     1     -11.150  19.935  67.189  1.00  0.00    -0.523 F  
HETATM   42  F   UNL     1      -9.066  19.421  66.830  1.00  0.00    -0.293 F  
HETATM   43  F   UNL     1      -9.880  19.334  68.844  1.00  0.00    -0.420 F  
HETATM   44  F   UNL     1     -11.547  16.347  63.461  1.00  0.00     0.161 F  
HETATM   45  C   UNL     1     -11.257  15.843  65.794  1.00  0.00     0.037 A  
HETATM   46  C   UNL     1     -11.267  14.944  66.880  1.00  0.00    -0.343 A  
HETATM   47  C   UNL     1     -11.599  15.360  64.399  1.00  0.00    -0.264 C  
ENDBRANCH  31  34
ENDBRANCH   3  31
TORSDOF 7
ENDMDL
MODEL       74
REMARK 921   NORMALIZED FREE ENERGY PREDICTED BY IDOCK:   -5.72 KCAL/MOL
REMARK 922        TOTAL FREE ENERGY PREDICTED BY IDOCK:   -8.71 KCAL/MOL
REMARK 923 INTER-LIGAND FREE ENERGY PREDICTED BY IDOCK:  -10.20 KCAL/MOL
REMARK 924 INTRA-LIGAND FREE ENERGY PREDICTED BY IDOCK:    1.49 KCAL/MOL
REMARK 927      BINDING AFFINITY PREDICTED BY RF-SCORE:    0.00 PKD
ROOT
HETATM    1  C   UNL     1     -12.447  12.340  69.349  1.00  0.00     0.277 C  
HETATM    2  N   UNL     1     -11.023  12.397  69.001  1.00  0.00    -0.225 N  
HETATM    3  C   UNL     1     -10.290  13.571  68.783  1.00  0.00    -0.158 C  
HETATM    4  O   UNL     1      -9.169  13.509  68.260  1.00  0.00    -0.197 OA 
ENDROOT
BRANCH   2   5
HETATM    5  C   UNL     1     -10.549  11.188  68.377  1.00  0.00    -0.193 A  
HETATM    6  C   UNL     1      -9.674   9.866  66.591  1.00  0.00    -0.252 A  
HETATM    7  C   UNL     1     -10.027  10.189  69.207  1.00  0.00    -0.219 A  
HETATM    8  C   UNL     1     -10.428  11.010  66.985  1.00  0.00    -0.284 A  
HETATM    9  C   UNL     1      -9.177   8.897  67.477  1.00  0.00    -0.136 A  
HETATM   10  N   UNL     1      -9.378   9.071  68.794  1.00  0.00    -0.140 NA 
BRANCH   9  11
HETATM   11  N   UNL     1      -8.483   7.775  67.064  1.00  0.00    -0.123 NA 
HETATM   12  C   UNL     1      -7.226   7.377  67.740  1.00  0.00    -0.091 C  
HETATM   13  N   UNL     1      -7.772   4.915  67.205  1.00  0.00    -0.091 N  
HETATM   14  C   UNL     1      -6.678   4.595  66.214  1.00  0.00    -0.050 C  
HETATM   15  C   UNL     1      -8.910   6.866  65.999  1.00  0.00    -0.136 C  
HETATM   16  C   UNL     1      -7.301   5.921  68.282  1.00  0.00    -0.081 C  
HETATM   17  C   UNL     1      -9.052   5.432  66.536  1.00  0.00    -0.135 C  
BRANCH  13  18
HETATM   18  C   UNL     1      -8.180   3.606  67.897  1.00  0.00    -0.084 C  
BRANCH  18  19
HETATM   19  O   UNL     1      -9.230   3.714  68.809  1.00  0.00    -0.134 OA 
HETATM   20  O   UNL     1      -7.350   2.822  70.283  1.00  0.00    -0.040 OA 
HETATM   21  O   UNL     1      -9.759   3.348  71.260  1.00  0.00    -0.161 OA 
HETATM   22  O   UNL     1      -9.418   1.477  69.712  1.00  0.00    -0.101 OA 
HETATM   23  P   UNL     1      -8.847   2.913  70.162  1.00  0.00    -0.110 P  
ENDBRANCH  18  19
ENDBRANCH  13  18
ENDBRANCH   9  11
BRANCH   8  24
HETATM   24  C   UNL     1     -10.976  11.939  65.923  1.00  0.00    -0.354 A  
HETATM   25  C   UNL     1     -11.876  12.969  66.277  1.00  0.00    -0.466 A  
HETATM   26  C   UNL     1     -12.422  13.869  65.353  1.00  0.00    -0.528 A  
HETATM   27  C   UNL     1      -9.739  10.823  63.922  1.00  0.00    -0.366 C  
HETATM   28  C   UNL     1     -10.634  11.872  64.538  1.00  0.00    -0.358 A  
HETATM   29  C   UNL     1     -12.039  13.811  64.027  1.00  0.00    -0.448 A  
HETATM   30  C   UNL     1     -11.142  12.832  63.626  1.00  0.00    -0.443 A  
ENDBRANCH   8  24
ENDBRANCH   2   5
BRANCH   3  31
HETATM   31  C   UNL     1     -10.866  14.978  69.188  1.00  0.00    -0.251 C  
HETATM   32  C   UNL     1     -10.967  15.040  70.745  1.00  0.00    -0.176 C  
HETATM   33  C   UNL     1     -12.333  15.136  68.717  1.00  0.00     0.027 C  
BRANCH  31  34
HETATM   34  C   UNL     1      -9.930  16.136  68.765  1.00  0.00    -0.231 A  
HETATM   35  F   UNL     1     -11.067  19.971  67.057  1.00  0.00    -0.493 F  
HETATM   36  C   UNL     1      -7.700  17.173  68.696  1.00  0.00    -0.260 A  
HETATM   37  C   UNL     1      -6.244  17.156  69.104  1.00  0.00    -0.212 C  
HETATM   38  F   UNL     1     -10.540  18.730  65.348  1.00  0.00    -0.418 F  
HETATM   39  C   UNL     1      -8.577  16.171  69.146  1.00  0.00    -0.235 A  
HETATM   40  C   UNL     1      -8.188  18.171  67.844  1.00  0.00    -0.253 A  
HETATM   41  F   UNL     1      -5.878  18.293  69.757  1.00  0.00    -0.207 F  
HETATM   42  F   UNL     1      -5.406  17.041  68.040  1.00  0.00    -0.110 F  
HETATM   43  F   UNL     1      -5.933  16.130  69.942  1.00  0.00    -0.152 F  
HETATM   44  F   UNL     1      -9.104  20.154  66.143  1.00  0.00    -0.386 F  
HETATM   45  C   UNL     1      -9.533  18.181  67.448  1.00  0.00    -0.255 A  
HETATM   46  C   UNL     1     -10.392  17.167  67.921  1.00  0.00    -0.350 A  
HETATM   47  C   UNL     1     -10.054  19.247  66.508  1.00  0.00    -0.415 C  
ENDBRANCH  31  34
ENDBRANCH   3  31
TORSDOF 7
ENDMDL
MODEL       75
REMARK 921   NORMALIZED FREE ENERGY PREDICTED BY IDOCK:   -5.72 KCAL/MOL
REMARK 922        TOTAL FREE ENERGY PREDICTED BY IDOCK:   -8.70 KCAL/MOL
REMARK 923 INTER-LIGAND FREE ENERGY PREDICTED BY IDOCK:   -8.92 KCAL/MOL
REMARK 924 INTRA-LIGAND FREE ENERGY PREDICTED BY IDOCK:    0.21 KCAL/MOL
REMARK 927      BINDING AFFINITY PREDICTED BY RF-SCORE:    0.00 PKD
ROOT
HETATM    1  C   UNL     1     -11.634  10.901  67.146  1.00  0.00     0.243 C  
HETATM    2  N   UNL     1     -10.262  11.384  67.339  1.00  0.00    -0.190 N  
HETATM    3  C   UNL     1      -9.189  10.609  67.800  1.00  0.00    -0.146 C  
HETATM    4  O   UNL     1      -8.141  11.163  68.159  1.00  0.00    -0.116 OA 
ENDROOT
BRANCH   2   5
HETATM    5  C   UNL     1     -10.193  12.809  67.539  1.00  0.00    -0.216 A  
HETATM    6  C   UNL     1     -10.262  14.827  68.813  1.00  0.00    -0.239 A  
HETATM    7  C   UNL     1      -9.447  13.560  66.623  1.00  0.00    -0.265 A  
HETATM    8  C   UNL     1     -10.687  13.474  68.678  1.00  0.00    -0.271 A  
HETATM    9  C   UNL     1      -9.512  15.526  67.852  1.00  0.00    -0.201 A  
HETATM   10  N   UNL     1      -9.122  14.871  66.746  1.00  0.00    -0.254 NA 
BRANCH   9  11
HETATM   11  N   UNL     1      -9.147  16.852  67.990  1.00  0.00    -0.229 NA 
HETATM   12  C   UNL     1      -7.985  17.229  68.828  1.00  0.00    -0.250 C  
HETATM   13  N   UNL     1      -7.573  19.241  67.270  1.00  0.00    -0.231 N  
HETATM   14  C   UNL     1      -7.899  20.386  68.201  1.00  0.00    -0.027 C  
HETATM   15  C   UNL     1      -9.800  17.979  67.321  1.00  0.00    -0.306 C  
HETATM   16  C   UNL     1      -6.937  18.048  68.022  1.00  0.00    -0.211 C  
HETATM   17  C   UNL     1      -8.788  18.760  66.467  1.00  0.00    -0.312 C  
BRANCH  13  18
HETATM   18  C   UNL     1      -6.575  19.754  66.222  1.00  0.00    -0.205 C  
BRANCH  18  19
HETATM   19  O   UNL     1      -7.087  20.675  65.309  1.00  0.00    -0.164 OA 
HETATM   20  O   UNL     1      -5.964  18.984  63.765  1.00  0.00    -0.429 OA 
HETATM   21  O   UNL     1      -7.240  21.107  62.817  1.00  0.00     0.280 OA 
HETATM   22  O   UNL     1      -5.137  21.360  64.052  1.00  0.00    -0.197 OA 
HETATM   23  P   UNL     1      -6.424  20.414  63.856  1.00  0.00     0.272 P  
ENDBRANCH  18  19
ENDBRANCH  13  18
ENDBRANCH   9  11
BRANCH   8  24
HETATM   24  C   UNL     1     -11.560  12.861  69.752  1.00  0.00    -0.288 A  
HETATM   25  C   UNL     1     -11.413  11.497  70.093  1.00  0.00    -0.258 A  
HETATM   26  C   UNL     1     -12.181  10.860  71.076  1.00  0.00    -0.464 A  
HETATM   27  C   UNL     1     -12.920  15.021  70.264  1.00  0.00    -0.206 C  
HETATM   28  C   UNL     1     -12.550  13.575  70.493  1.00  0.00    -0.311 A  
HETATM   29  C   UNL     1     -13.099  11.585  71.809  1.00  0.00    -0.503 A  
HETATM   30  C   UNL     1     -13.271  12.932  71.532  1.00  0.00    -0.346 A  
ENDBRANCH   8  24
ENDBRANCH   2   5
BRANCH   3  31
HETATM   31  C   UNL     1      -9.290   9.041  67.875  1.00  0.00    -0.155 C  
HETATM   32  C   UNL     1      -8.011   8.432  67.220  1.00  0.00    -0.105 C  
HETATM   33  C   UNL     1     -10.446   8.514  66.988  1.00  0.00    -0.362 C  
BRANCH  31  34
HETATM   34  C   UNL     1      -9.319   8.528  69.336  1.00  0.00    -0.154 A  
HETATM   35  F   UNL     1      -6.500   9.444  72.519  1.00  0.00     0.060 F  
HETATM   36  C   UNL     1     -10.458   7.352  71.172  1.00  0.00    -0.220 A  
HETATM   37  C   UNL     1     -11.687   6.651  71.703  1.00  0.00    -0.316 C  
HETATM   38  F   UNL     1      -5.834   7.535  71.712  1.00  0.00    -0.036 F  
HETATM   39  C   UNL     1     -10.453   7.896  69.876  1.00  0.00    -0.229 A  
HETATM   40  C   UNL     1      -9.300   7.446  71.954  1.00  0.00    -0.157 A  
HETATM   41  F   UNL     1     -12.159   7.228  72.843  1.00  0.00    -0.128 F  
HETATM   42  F   UNL     1     -11.454   5.347  72.005  1.00  0.00    -0.280 F  
HETATM   43  F   UNL     1     -12.729   6.655  70.827  1.00  0.00    -0.390 F  
HETATM   44  F   UNL     1      -7.028   7.593  73.528  1.00  0.00    -0.072 F  
HETATM   45  C   UNL     1      -8.151   8.080  71.458  1.00  0.00    -0.126 A  
HETATM   46  C   UNL     1      -8.176   8.623  70.157  1.00  0.00    -0.123 A  
HETATM   47  C   UNL     1      -6.891   8.160  72.296  1.00  0.00    -0.083 C  
ENDBRANCH  31  34
ENDBRANCH   3  31
TORSDOF 7
ENDMDL
MODEL       76
REMARK 921   NORMALIZED FREE ENERGY PREDICTED BY IDOCK:   -5.72 KCAL/MOL
REMARK 922        TOTAL FREE ENERGY PREDICTED BY IDOCK:   -8.70 KCAL/MOL
REMARK 923 INTER-LIGAND FREE ENERGY PREDICTED BY IDOCK:   -7.76 KCAL/MOL
REMARK 924 INTRA-LIGAND FREE ENERGY PREDICTED BY IDOCK:   -0.94 KCAL/MOL
REMARK 927      BINDING AFFINITY PREDICTED BY RF-SCORE:    0.00 PKD
ROOT
HETATM    1  C   UNL     1     -10.757   8.370  66.881  1.00  0.00    -0.093 C  
HETATM    2  N   UNL     1     -10.388   8.962  68.172  1.00  0.00    -0.209 N  
HETATM    3  C   UNL     1     -10.617   8.377  69.425  1.00  0.00    -0.197 C  
HETATM    4  O   UNL     1     -10.493   9.057  70.452  1.00  0.00    -0.192 OA 
ENDROOT
BRANCH   2   5
HETATM    5  C   UNL     1     -10.264  10.397  68.116  1.00  0.00    -0.161 A  
HETATM    6  C   UNL     1      -9.267  12.465  67.461  1.00  0.00    -0.183 A  
HETATM    7  C   UNL     1     -11.424  11.158  68.303  1.00  0.00    -0.303 A  
HETATM    8  C   UNL     1      -9.093  11.076  67.728  1.00  0.00    -0.147 A  
HETATM    9  C   UNL     1     -10.462  13.172  67.671  1.00  0.00    -0.221 A  
HETATM   10  N   UNL     1     -11.536  12.496  68.111  1.00  0.00    -0.319 NA 
BRANCH   9  11
HETATM   11  N   UNL     1     -10.593  14.529  67.441  1.00  0.00    -0.268 NA 
HETATM   12  C   UNL     1     -10.701  15.477  68.574  1.00  0.00    -0.259 C  
HETATM   13  N   UNL     1      -9.531  17.264  67.132  1.00  0.00    -0.250 N  
HETATM   14  C   UNL     1     -10.660  18.248  66.935  1.00  0.00    -0.329 C  
HETATM   15  C   UNL     1     -10.590  15.163  66.122  1.00  0.00    -0.313 C  
HETATM   16  C   UNL     1      -9.599  16.573  68.514  1.00  0.00    -0.233 C  
HETATM   17  C   UNL     1      -9.463  16.204  66.025  1.00  0.00    -0.339 C  
BRANCH  13  18
HETATM   18  C   UNL     1      -8.207  18.037  67.030  1.00  0.00    -0.227 C  
BRANCH  18  19
HETATM   19  O   UNL     1      -8.051  18.805  65.877  1.00  0.00    -0.476 OA 
HETATM   20  O   UNL     1      -5.906  19.337  67.150  1.00  0.00    -0.174 OA 
HETATM   21  O   UNL     1      -6.415  20.394  64.771  1.00  0.00    -0.285 OA 
HETATM   22  O   UNL     1      -7.730  21.044  66.735  1.00  0.00    -0.093 OA 
HETATM   23  P   UNL     1      -6.845  19.862  66.097  1.00  0.00    -0.267 P  
ENDBRANCH  18  19
ENDBRANCH  13  18
ENDBRANCH   9  11
BRANCH   8  24
HETATM   24  C   UNL     1      -7.730  10.448  67.533  1.00  0.00    -0.094 A  
HETATM   25  C   UNL     1      -7.257  10.168  66.231  1.00  0.00    -0.111 A  
HETATM   26  C   UNL     1      -6.007   9.592  65.971  1.00  0.00    -0.062 A  
HETATM   27  C   UNL     1      -7.147  10.273  70.065  1.00  0.00    -0.161 C  
HETATM   28  C   UNL     1      -6.834  10.115  68.595  1.00  0.00    -0.057 A  
HETATM   29  C   UNL     1      -5.143   9.322  67.014  1.00  0.00    -0.035 A  
HETATM   30  C   UNL     1      -5.546   9.596  68.311  1.00  0.00    -0.040 A  
ENDBRANCH   8  24
ENDBRANCH   2   5
BRANCH   3  31
HETATM   31  C   UNL     1     -11.034   6.866  69.554  1.00  0.00    -0.289 C  
HETATM   32  C   UNL     1     -11.345   6.316  68.126  1.00  0.00    -0.039 C  
HETATM   33  C   UNL     1     -12.381   6.722  70.305  1.00  0.00     0.032 C  
BRANCH  31  34
HETATM   34  C   UNL     1      -9.889   5.991  70.120  1.00  0.00    -0.217 A  
HETATM   35  F   UNL     1     -10.102   3.161  73.416  1.00  0.00    -0.134 F  
HETATM   36  C   UNL     1      -7.601   5.101  69.975  1.00  0.00    -0.064 A  
HETATM   37  C   UNL     1      -6.301   4.970  69.214  1.00  0.00    -0.031 C  
HETATM   38  F   UNL     1      -9.330   4.995  74.300  1.00  0.00    -0.119 F  
HETATM   39  C   UNL     1      -8.676   5.822  69.430  1.00  0.00    -0.111 A  
HETATM   40  C   UNL     1      -7.742   4.526  71.245  1.00  0.00    -0.077 A  
HETATM   41  F   UNL     1      -5.970   3.671  68.978  1.00  0.00    -0.020 F  
HETATM   42  F   UNL     1      -5.250   5.517  69.880  1.00  0.00    -0.003 F  
HETATM   43  F   UNL     1      -6.330   5.574  67.994  1.00  0.00    -0.034 F  
HETATM   44  F   UNL     1      -7.968   3.390  73.759  1.00  0.00    -0.066 F  
HETATM   45  C   UNL     1      -8.939   4.660  71.963  1.00  0.00    -0.147 A  
HETATM   46  C   UNL     1     -10.004   5.384  71.388  1.00  0.00    -0.241 A  
HETATM   47  C   UNL     1      -9.081   4.059  73.346  1.00  0.00    -0.102 C  
ENDBRANCH  31  34
ENDBRANCH   3  31
TORSDOF 7
ENDMDL
MODEL       77
REMARK 921   NORMALIZED FREE ENERGY PREDICTED BY IDOCK:   -5.71 KCAL/MOL
REMARK 922        TOTAL FREE ENERGY PREDICTED BY IDOCK:   -8.69 KCAL/MOL
REMARK 923 INTER-LIGAND FREE ENERGY PREDICTED BY IDOCK:   -6.93 KCAL/MOL
REMARK 924 INTRA-LIGAND FREE ENERGY PREDICTED BY IDOCK:   -1.76 KCAL/MOL
REMARK 927      BINDING AFFINITY PREDICTED BY RF-SCORE:    0.00 PKD
ROOT
HETATM    1  C   UNL     1      -9.564  11.219  69.357  1.00  0.00     0.313 C  
HETATM    2  N   UNL     1      -8.509  10.887  68.393  1.00  0.00    -0.134 N  
HETATM    3  C   UNL     1      -7.613  11.803  67.826  1.00  0.00    -0.127 C  
HETATM    4  O   UNL     1      -6.928  11.471  66.849  1.00  0.00    -0.131 OA 
ENDROOT
BRANCH   2   5
HETATM    5  C   UNL     1      -8.781   9.677  67.659  1.00  0.00    -0.126 A  
HETATM    6  C   UNL     1      -9.354   8.390  65.731  1.00  0.00    -0.141 A  
HETATM    7  C   UNL     1      -8.209   8.489  68.128  1.00  0.00    -0.120 A  
HETATM    8  C   UNL     1      -9.446   9.635  66.418  1.00  0.00    -0.244 A  
HETATM    9  C   UNL     1      -8.765   7.230  66.260  1.00  0.00    -0.149 A  
HETATM   10  N   UNL     1      -8.204   7.297  67.479  1.00  0.00    -0.113 NA 
BRANCH   9  11
HETATM   11  N   UNL     1      -8.724   6.023  65.587  1.00  0.00    -0.153 NA 
HETATM   12  C   UNL     1      -7.472   5.562  64.946  1.00  0.00    -0.074 C  
HETATM   13  N   UNL     1      -8.192   3.128  65.397  1.00  0.00    -0.093 N  
HETATM   14  C   UNL     1      -8.430   2.640  63.987  1.00  0.00    -0.086 C  
HETATM   15  C   UNL     1      -9.842   5.084  65.476  1.00  0.00    -0.037 C  
HETATM   16  C   UNL     1      -7.042   4.161  65.466  1.00  0.00    -0.063 C  
HETATM   17  C   UNL     1      -9.453   3.711  66.048  1.00  0.00    -0.160 C  
BRANCH  13  18
HETATM   18  C   UNL     1      -7.818   1.913  66.260  1.00  0.00    -0.075 C  
BRANCH  18  19
HETATM   19  O   UNL     1      -6.568   1.979  66.875  1.00  0.00    -0.036 OA 
HETATM   20  O   UNL     1      -8.098   1.493  68.857  1.00  0.00    -0.048 OA 
HETATM   21  O   UNL     1      -5.474   1.753  69.150  1.00  0.00    -0.012 OA 
HETATM   22  O   UNL     1      -6.865   3.685  68.564  1.00  0.00    -0.045 OA 
HETATM   23  P   UNL     1      -6.766   2.082  68.478  1.00  0.00    -0.028 P  
ENDBRANCH  18  19
ENDBRANCH  13  18
ENDBRANCH   9  11
BRANCH   8  24
HETATM   24  C   UNL     1     -10.177  10.789  65.767  1.00  0.00    -0.319 A  
HETATM   25  C   UNL     1     -11.220  11.449  66.457  1.00  0.00    -0.276 A  
HETATM   26  C   UNL     1     -11.939  12.525  65.922  1.00  0.00    -0.472 A  
HETATM   27  C   UNL     1      -8.851  10.722  63.528  1.00  0.00    -0.150 C  
HETATM   28  C   UNL     1      -9.882  11.302  64.467  1.00  0.00    -0.317 A  
HETATM   29  C   UNL     1     -11.602  13.030  64.681  1.00  0.00    -0.389 A  
HETATM   30  C   UNL     1     -10.573  12.435  63.968  1.00  0.00    -0.444 A  
ENDBRANCH   8  24
ENDBRANCH   2   5
BRANCH   3  31
HETATM   31  C   UNL     1      -7.460  13.258  68.406  1.00  0.00    -0.124 C  
HETATM   32  C   UNL     1      -6.347  13.997  67.599  1.00  0.00    -0.134 C  
HETATM   33  C   UNL     1      -6.907  13.226  69.853  1.00  0.00     0.313 C  
BRANCH  31  34
HETATM   34  C   UNL     1      -8.753  14.093  68.234  1.00  0.00    -0.181 A  
HETATM   35  F   UNL     1     -10.427  15.645  64.532  1.00  0.00    -0.359 F  
HETATM   36  C   UNL     1     -10.828  15.042  69.151  1.00  0.00    -0.251 A  
HETATM   37  C   UNL     1     -11.802  15.175  70.299  1.00  0.00    -0.311 C  
HETATM   38  F   UNL     1      -9.298  17.305  65.377  1.00  0.00     0.079 F  
HETATM   39  C   UNL     1      -9.696  14.218  69.269  1.00  0.00     0.140 A  
HETATM   40  C   UNL     1     -11.028  15.758  67.963  1.00  0.00    -0.330 A  
HETATM   41  F   UNL     1     -13.065  14.804  69.951  1.00  0.00    -0.208 F  
HETATM   42  F   UNL     1     -11.893  16.450  70.761  1.00  0.00    -0.368 F  
HETATM   43  F   UNL     1     -11.473  14.407  71.374  1.00  0.00    -0.312 F  
HETATM   44  F   UNL     1     -11.453  17.206  65.643  1.00  0.00     0.237 F  
HETATM   45  C   UNL     1     -10.118  15.652  66.902  1.00  0.00    -0.265 A  
HETATM   46  C   UNL     1      -8.994  14.813  67.045  1.00  0.00    -0.258 A  
HETATM   47  C   UNL     1     -10.322  16.446  65.628  1.00  0.00    -0.350 C  
ENDBRANCH  31  34
ENDBRANCH   3  31
TORSDOF 7
ENDMDL
MODEL       78
REMARK 921   NORMALIZED FREE ENERGY PREDICTED BY IDOCK:   -5.63 KCAL/MOL
REMARK 922        TOTAL FREE ENERGY PREDICTED BY IDOCK:   -8.58 KCAL/MOL
REMARK 923 INTER-LIGAND FREE ENERGY PREDICTED BY IDOCK:   -7.40 KCAL/MOL
REMARK 924 INTRA-LIGAND FREE ENERGY PREDICTED BY IDOCK:   -1.17 KCAL/MOL
REMARK 927      BINDING AFFINITY PREDICTED BY RF-SCORE:    0.00 PKD
ROOT
HETATM    1  C   UNL     1     -12.107  12.157  68.936  1.00  0.00    -0.133 C  
HETATM    2  N   UNL     1     -10.750  11.610  69.052  1.00  0.00    -0.202 N  
HETATM    3  C   UNL     1     -10.392  10.491  69.817  1.00  0.00    -0.166 C  
HETATM    4  O   UNL     1      -9.197  10.259  70.044  1.00  0.00    -0.100 OA 
ENDROOT
BRANCH   2   5
HETATM    5  C   UNL     1      -9.727  12.585  68.773  1.00  0.00     0.057 A  
HETATM    6  C   UNL     1      -8.124  13.721  67.417  1.00  0.00    -0.188 A  
HETATM    7  C   UNL     1      -9.702  13.745  69.556  1.00  0.00     0.804 A  
HETATM    8  C   UNL     1      -8.854  12.524  67.669  1.00  0.00    -0.179 A  
HETATM    9  C   UNL     1      -8.143  14.855  68.245  1.00  0.00    -0.132 A  
HETATM   10  N   UNL     1      -8.936  14.841  69.329  1.00  0.00    -0.087 NA 
BRANCH   9  11
HETATM   11  N   UNL     1      -7.392  15.989  67.998  1.00  0.00    -0.126 NA 
HETATM   12  C   UNL     1      -6.808  16.227  66.658  1.00  0.00     0.038 C  
HETATM   13  N   UNL     1      -7.039  18.763  67.058  1.00  0.00    -0.203 N  
HETATM   14  C   UNL     1      -5.586  19.167  67.142  1.00  0.00    -0.167 C  
HETATM   15  C   UNL     1      -7.139  17.058  68.966  1.00  0.00    -0.233 C  
HETATM   16  C   UNL     1      -7.259  17.594  66.069  1.00  0.00    -0.281 C  
HETATM   17  C   UNL     1      -7.640  18.408  68.424  1.00  0.00    -0.291 C  
BRANCH  13  18
HETATM   18  C   UNL     1      -7.840  19.980  66.572  1.00  0.00    -0.306 C  
BRANCH  18  19
HETATM   19  O   UNL     1      -8.813  19.710  65.609  1.00  0.00    -0.328 OA 
HETATM   20  O   UNL     1     -10.215  20.678  67.507  1.00  0.00    -0.311 OA 
HETATM   21  O   UNL     1     -11.309  19.903  65.219  1.00  0.00    -0.180 OA 
HETATM   22  O   UNL     1     -10.361  18.259  66.771  1.00  0.00    -0.355 OA 
HETATM   23  P   UNL     1     -10.278  19.793  66.291  1.00  0.00    -0.507 P  
ENDBRANCH  18  19
ENDBRANCH  13  18
ENDBRANCH   9  11
BRANCH   8  24
HETATM   24  C   UNL     1      -8.686  11.342  66.739  1.00  0.00    -0.166 A  
HETATM   25  C   UNL     1      -7.635  10.420  66.946  1.00  0.00    -0.107 A  
HETATM   26  C   UNL     1      -7.417   9.302  66.130  1.00  0.00    -0.096 A  
HETATM   27  C   UNL     1     -10.693  11.929  65.188  1.00  0.00    -0.339 C  
HETATM   28  C   UNL     1      -9.543  11.056  65.632  1.00  0.00    -0.265 A  
HETATM   29  C   UNL     1      -8.288   9.024  65.095  1.00  0.00    -0.165 A  
HETATM   30  C   UNL     1      -9.350   9.884  64.859  1.00  0.00    -0.329 A  
ENDBRANCH   8  24
ENDBRANCH   2   5
BRANCH   3  31
HETATM   31  C   UNL     1     -11.484   9.520  70.400  1.00  0.00    -0.297 C  
HETATM   32  C   UNL     1     -12.848   9.843  69.714  1.00  0.00     0.757 C  
HETATM   33  C   UNL     1     -11.747   9.813  71.899  1.00  0.00    -0.119 C  
BRANCH  31  34
HETATM   34  C   UNL     1     -11.174   8.037  70.083  1.00  0.00    -0.145 A  
HETATM   35  F   UNL     1     -11.659   4.609  72.716  1.00  0.00    -0.232 F  
HETATM   36  C   UNL     1     -10.577   6.268  68.482  1.00  0.00    -0.315 A  
HETATM   37  C   UNL     1     -10.304   5.840  67.057  1.00  0.00    -0.250 C  
HETATM   38  F   UNL     1      -9.559   5.158  72.890  1.00  0.00    -0.145 F  
HETATM   39  C   UNL     1     -10.942   7.594  68.769  1.00  0.00     0.078 A  
HETATM   40  C   UNL     1     -10.445   5.355  69.536  1.00  0.00    -0.343 A  
HETATM   41  F   UNL     1     -11.117   4.824  66.659  1.00  0.00    -0.128 F  
HETATM   42  F   UNL     1      -9.030   5.401  66.880  1.00  0.00    -0.113 F  
HETATM   43  F   UNL     1     -10.487   6.840  66.151  1.00  0.00    -0.089 F  
HETATM   44  F   UNL     1     -10.153   3.522  71.588  1.00  0.00    -0.245 F  
HETATM   45  C   UNL     1     -10.679   5.752  70.860  1.00  0.00    -0.333 A  
HETATM   46  C   UNL     1     -11.051   7.087  71.119  1.00  0.00    -0.288 A  
HETATM   47  C   UNL     1     -10.512   4.770  72.001  1.00  0.00    -0.155 C  
ENDBRANCH  31  34
ENDBRANCH   3  31
TORSDOF 7
ENDMDL
MODEL       79
REMARK 921   NORMALIZED FREE ENERGY PREDICTED BY IDOCK:   -5.60 KCAL/MOL
REMARK 922        TOTAL FREE ENERGY PREDICTED BY IDOCK:   -8.53 KCAL/MOL
REMARK 923 INTER-LIGAND FREE ENERGY PREDICTED BY IDOCK:   -9.60 KCAL/MOL
REMARK 924 INTRA-LIGAND FREE ENERGY PREDICTED BY IDOCK:    1.07 KCAL/MOL
REMARK 927      BINDING AFFINITY PREDICTED BY RF-SCORE:    0.00 PKD
ROOT
HETATM    1  C   UNL     1      -8.816  13.309  66.260  1.00  0.00     0.237 C  
HETATM    2  N   UNL     1      -8.552  12.491  67.449  1.00  0.00    -0.178 N  
HETATM    3  C   UNL     1      -7.767  12.882  68.542  1.00  0.00    -0.109 C  
HETATM    4  O   UNL     1      -7.407  12.039  69.374  1.00  0.00     0.045 OA 
ENDROOT
BRANCH   2   5
HETATM    5  C   UNL     1      -8.696  11.078  67.201  1.00  0.00    -0.135 A  
HETATM    6  C   UNL     1      -9.272   9.148  65.920  1.00  0.00    -0.286 A  
HETATM    7  C   UNL     1      -7.870  10.204  67.917  1.00  0.00    -0.101 A  
HETATM    8  C   UNL     1      -9.494  10.531  66.178  1.00  0.00    -0.222 A  
HETATM    9  C   UNL     1      -8.427   8.322  66.680  1.00  0.00    -0.123 A  
HETATM   10  N   UNL     1      -7.738   8.873  67.694  1.00  0.00    -0.100 NA 
BRANCH   9  11
HETATM   11  N   UNL     1      -8.260   6.972  66.433  1.00  0.00    -0.112 NA 
HETATM   12  C   UNL     1      -6.906   6.373  66.418  1.00  0.00    -0.061 C  
HETATM   13  N   UNL     1      -7.926   4.162  67.266  1.00  0.00    -0.095 N  
HETATM   14  C   UNL     1      -7.717   3.277  66.060  1.00  0.00    -0.081 C  
HETATM   15  C   UNL     1      -9.347   6.016  66.217  1.00  0.00    -0.145 C  
HETATM   16  C   UNL     1      -6.787   5.196  67.429  1.00  0.00    -0.057 C  
HETATM   17  C   UNL     1      -9.281   4.880  67.252  1.00  0.00    -0.124 C  
BRANCH  13  18
HETATM   18  C   UNL     1      -7.959   3.263  68.511  1.00  0.00    -0.058 C  
BRANCH  18  19
HETATM   19  O   UNL     1      -7.185   3.701  69.585  1.00  0.00    -0.042 OA 
HETATM   20  O   UNL     1      -9.275   2.842  70.768  1.00  0.00    -0.109 OA 
HETATM   21  O   UNL     1      -7.226   3.854  72.115  1.00  0.00    -0.048 OA 
HETATM   22  O   UNL     1      -8.627   5.289  70.704  1.00  0.00    -0.117 OA 
HETATM   23  P   UNL     1      -8.107   3.781  70.913  1.00  0.00    -0.067 P  
ENDBRANCH  18  19
ENDBRANCH  13  18
ENDBRANCH   9  11
BRANCH   8  24
HETATM   24  C   UNL     1     -10.493  11.292  65.332  1.00  0.00    -0.326 A  
HETATM   25  C   UNL     1     -11.623  11.890  65.933  1.00  0.00    -0.291 A  
HETATM   26  C   UNL     1     -12.587  12.611  65.218  1.00  0.00    -0.388 A  
HETATM   27  C   UNL     1      -9.288  10.885  63.060  1.00  0.00    -0.349 C  
HETATM   28  C   UNL     1     -10.378  11.479  63.920  1.00  0.00    -0.422 A  
HETATM   29  C   UNL     1     -12.428  12.816  63.861  1.00  0.00    -0.454 A  
HETATM   30  C   UNL     1     -11.325  12.269  63.222  1.00  0.00    -0.414 A  
ENDBRANCH   8  24
ENDBRANCH   2   5
BRANCH   3  31
HETATM   31  C   UNL     1      -7.327  14.381  68.733  1.00  0.00    -0.131 C  
HETATM   32  C   UNL     1      -6.539  14.830  67.463  1.00  0.00    -0.123 C  
HETATM   33  C   UNL     1      -6.291  14.516  69.877  1.00  0.00    -0.157 C  
BRANCH  31  34
HETATM   34  C   UNL     1      -8.541  15.334  68.854  1.00  0.00    -0.207 A  
HETATM   35  F   UNL     1      -9.775  18.418  66.045  1.00  0.00    -0.307 F  
HETATM   36  C   UNL     1     -10.624  16.021  69.968  1.00  0.00    -0.297 A  
HETATM   37  C   UNL     1     -11.685  15.766  71.014  1.00  0.00    -0.422 C  
HETATM   38  F   UNL     1      -8.619  19.469  67.561  1.00  0.00    -0.307 F  
HETATM   39  C   UNL     1      -9.563  15.116  69.795  1.00  0.00    -0.066 A  
HETATM   40  C   UNL     1     -10.669  17.175  69.176  1.00  0.00    -0.184 A  
HETATM   41  F   UNL     1     -12.933  15.693  70.476  1.00  0.00    -0.473 F  
HETATM   42  F   UNL     1     -11.733  16.743  71.957  1.00  0.00    -0.519 F  
HETATM   43  F   UNL     1     -11.504  14.598  71.690  1.00  0.00    -0.374 F  
HETATM   44  F   UNL     1     -10.790  19.479  67.646  1.00  0.00    -0.515 F  
HETATM   45  C   UNL     1      -9.677  17.425  68.217  1.00  0.00    -0.299 A  
HETATM   46  C   UNL     1      -8.628  16.496  68.060  1.00  0.00    -0.184 A  
HETATM   47  C   UNL     1      -9.715  18.686  67.378  1.00  0.00    -0.306 C  
ENDBRANCH  31  34
ENDBRANCH   3  31
TORSDOF 7
ENDMDL
MODEL       80
REMARK 921   NORMALIZED FREE ENERGY PREDICTED BY IDOCK:   -5.59 KCAL/MOL
REMARK 922        TOTAL FREE ENERGY PREDICTED BY IDOCK:   -8.52 KCAL/MOL
REMARK 923 INTER-LIGAND FREE ENERGY PREDICTED BY IDOCK:   -7.69 KCAL/MOL
REMARK 924 INTRA-LIGAND FREE ENERGY PREDICTED BY IDOCK:   -0.83 KCAL/MOL
REMARK 927      BINDING AFFINITY PREDICTED BY RF-SCORE:    0.00 PKD
ROOT
HETATM    1  C   UNL     1     -10.006  11.553  68.976  1.00  0.00    -0.019 C  
HETATM    2  N   UNL     1      -8.674  10.977  68.753  1.00  0.00    -0.159 N  
HETATM    3  C   UNL     1      -7.529  11.702  68.397  1.00  0.00    -0.107 C  
HETATM    4  O   UNL     1      -6.522  11.103  67.997  1.00  0.00    -0.056 OA 
ENDROOT
BRANCH   2   5
HETATM    5  C   UNL     1      -8.718   9.581  68.400  1.00  0.00    -0.124 A  
HETATM    6  C   UNL     1      -8.573   7.711  66.923  1.00  0.00    -0.123 A  
HETATM    7  C   UNL     1      -8.462   8.646  69.409  1.00  0.00    -0.126 A  
HETATM    8  C   UNL     1      -8.842   9.101  67.081  1.00  0.00    -0.130 A  
HETATM    9  C   UNL     1      -8.323   6.823  67.982  1.00  0.00    -0.120 A  
HETATM   10  N   UNL     1      -8.285   7.312  69.232  1.00  0.00    -0.130 NA 
BRANCH   9  11
HETATM   11  N   UNL     1      -8.105   5.469  67.803  1.00  0.00    -0.101 NA 
HETATM   12  C   UNL     1      -9.162   4.487  68.137  1.00  0.00    -0.132 C  
HETATM   13  N   UNL     1      -8.263   2.954  66.269  1.00  0.00    -0.086 N  
HETATM   14  C   UNL     1      -7.723   1.804  67.086  1.00  0.00    -0.061 C  
HETATM   15  C   UNL     1      -6.886   4.880  67.245  1.00  0.00    -0.056 C  
HETATM   16  C   UNL     1      -9.516   3.587  66.919  1.00  0.00    -0.171 C  
HETATM   17  C   UNL     1      -7.214   4.040  65.999  1.00  0.00    -0.068 C  
BRANCH  13  18
HETATM   18  C   UNL     1      -8.645   2.411  64.884  1.00  0.00    -0.105 C  
BRANCH  18  19
HETATM   19  O   UNL     1      -9.961   1.965  64.758  1.00  0.00     0.101 OA 
HETATM   20  O   UNL     1      -9.379   2.554  62.346  1.00  0.00    -0.090 OA 
HETATM   21  O   UNL     1     -11.755   1.581  63.011  1.00  0.00    -0.284 OA 
HETATM   22  O   UNL     1     -11.086   3.834  63.711  1.00  0.00    -0.278 OA 
HETATM   23  P   UNL     1     -10.529   2.381  63.301  1.00  0.00    -0.203 P  
ENDBRANCH  18  19
ENDBRANCH  13  18
ENDBRANCH   9  11
BRANCH   8  24
HETATM   24  C   UNL     1      -9.174   9.936  65.864  1.00  0.00    -0.223 A  
HETATM   25  C   UNL     1     -10.505  10.351  65.629  1.00  0.00    -0.185 A  
HETATM   26  C   UNL     1     -10.889  11.127  64.528  1.00  0.00    -0.320 A  
HETATM   27  C   UNL     1      -6.752  10.004  64.912  1.00  0.00    -0.126 C  
HETATM   28  C   UNL     1      -8.217  10.372  64.898  1.00  0.00    -0.145 A  
HETATM   29  C   UNL     1      -9.935  11.574  63.634  1.00  0.00    -0.409 A  
HETATM   30  C   UNL     1      -8.610  11.214  63.826  1.00  0.00     0.229 A  
ENDBRANCH   8  24
ENDBRANCH   2   5
BRANCH   3  31
HETATM   31  C   UNL     1      -7.497  13.273  68.491  1.00  0.00    -0.115 C  
HETATM   32  C   UNL     1      -6.553  13.815  67.373  1.00  0.00     0.032 C  
HETATM   33  C   UNL     1      -6.820  13.739  69.804  1.00  0.00     0.100 C  
BRANCH  31  34
HETATM   34  C   UNL     1      -8.888  13.900  68.231  1.00  0.00    -0.185 A  
HETATM   35  F   UNL     1     -11.370  16.096  71.049  1.00  0.00    -0.355 F  
HETATM   36  C   UNL     1     -10.693  14.547  66.691  1.00  0.00    -0.305 A  
HETATM   37  C   UNL     1     -11.216  14.670  65.277  1.00  0.00    -0.358 C  
HETATM   38  F   UNL     1     -12.139  14.060  71.092  1.00  0.00    -0.377 F  
HETATM   39  C   UNL     1      -9.398  14.057  66.931  1.00  0.00    -0.266 A  
HETATM   40  C   UNL     1     -11.502  14.895  67.780  1.00  0.00    -0.353 A  
HETATM   41  F   UNL     1     -11.576  15.946  64.969  1.00  0.00    -0.235 F  
HETATM   42  F   UNL     1     -12.315  13.901  65.059  1.00  0.00    -0.370 F  
HETATM   43  F   UNL     1     -10.305  14.304  64.334  1.00  0.00    -0.427 F  
HETATM   44  F   UNL     1     -13.142  15.578  69.903  1.00  0.00    -0.212 F  
HETATM   45  C   UNL     1     -11.028  14.766  69.094  1.00  0.00    -0.277 A  
HETATM   46  C   UNL     1      -9.722  14.278  69.305  1.00  0.00     0.140 A  
HETATM   47  C   UNL     1     -11.912  15.120  70.272  1.00  0.00    -0.319 C  
ENDBRANCH  31  34
ENDBRANCH   3  31
TORSDOF 7
ENDMDL
MODEL       81
REMARK 921   NORMALIZED FREE ENERGY PREDICTED BY IDOCK:   -5.47 KCAL/MOL
REMARK 922        TOTAL FREE ENERGY PREDICTED BY IDOCK:   -8.35 KCAL/MOL
REMARK 923 INTER-LIGAND FREE ENERGY PREDICTED BY IDOCK:   -7.53 KCAL/MOL
REMARK 924 INTRA-LIGAND FREE ENERGY PREDICTED BY IDOCK:   -0.82 KCAL/MOL
REMARK 927      BINDING AFFINITY PREDICTED BY RF-SCORE:    0.00 PKD
ROOT
HETATM    1  C   UNL     1     -10.257  11.539  68.775  1.00  0.00    -0.192 C  
HETATM    2  N   UNL     1      -8.993  10.884  68.421  1.00  0.00    -0.147 N  
HETATM    3  C   UNL     1      -7.810  11.547  68.068  1.00  0.00    -0.126 C  
HETATM    4  O   UNL     1      -6.879  10.912  67.554  1.00  0.00    -0.075 OA 
ENDROOT
BRANCH   2   5
HETATM    5  C   UNL     1      -9.174   9.538  67.938  1.00  0.00    -0.125 A  
HETATM    6  C   UNL     1      -9.269   7.821  66.283  1.00  0.00    -0.217 A  
HETATM    7  C   UNL     1      -8.943   8.489  68.835  1.00  0.00    -0.146 A  
HETATM    8  C   UNL     1      -9.410   9.205  66.591  1.00  0.00    -0.228 A  
HETATM    9  C   UNL     1      -9.037   6.813  67.234  1.00  0.00    -0.119 A  
HETATM   10  N   UNL     1      -8.890   7.170  68.520  1.00  0.00    -0.126 NA 
BRANCH   9  11
HETATM   11  N   UNL     1      -8.945   5.472  66.912  1.00  0.00    -0.111 NA 
HETATM   12  C   UNL     1      -7.656   4.892  66.471  1.00  0.00    -0.088 C  
HETATM   13  N   UNL     1      -8.355   2.648  67.530  1.00  0.00    -0.081 N  
HETATM   14  C   UNL     1      -8.517   1.794  66.295  1.00  0.00    -0.102 C  
HETATM   15  C   UNL     1     -10.040   4.505  67.012  1.00  0.00    -0.138 C  
HETATM   16  C   UNL     1      -7.227   3.694  67.366  1.00  0.00    -0.059 C  
HETATM   17  C   UNL     1      -9.654   3.347  67.948  1.00  0.00    -0.105 C  
BRANCH  13  18
HETATM   18  C   UNL     1      -8.002   1.721  68.703  1.00  0.00    -0.049 C  
BRANCH  18  19
HETATM   19  O   UNL     1      -6.924   2.132  69.487  1.00  0.00    -0.033 OA 
HETATM   20  O   UNL     1      -8.668   1.563  71.259  1.00  0.00    -0.049 OA 
HETATM   21  O   UNL     1      -6.246   2.425  71.911  1.00  0.00    -0.013 OA 
HETATM   22  O   UNL     1      -7.855   3.921  70.823  1.00  0.00    -0.050 OA 
HETATM   23  P   UNL     1      -7.430   2.380  71.004  1.00  0.00    -0.032 P  
ENDBRANCH  18  19
ENDBRANCH  13  18
ENDBRANCH   9  11
BRANCH   8  24
HETATM   24  C   UNL     1      -9.737  10.182  65.482  1.00  0.00    -0.344 A  
HETATM   25  C   UNL     1     -11.014  10.784  65.420  1.00  0.00     0.040 A  
HETATM   26  C   UNL     1     -11.389  11.698  64.427  1.00  0.00    -0.334 A  
HETATM   27  C   UNL     1      -7.427  10.024  64.291  1.00  0.00    -0.137 C  
HETATM   28  C   UNL     1      -8.823  10.577  64.458  1.00  0.00    -0.214 A  
HETATM   29  C   UNL     1     -10.471  12.097  63.476  1.00  0.00    -0.490 A  
HETATM   30  C   UNL     1      -9.195  11.554  63.501  1.00  0.00    -0.054 A  
ENDBRANCH   8  24
ENDBRANCH   2   5
BRANCH   3  31
HETATM   31  C   UNL     1      -7.639  13.092  68.310  1.00  0.00    -0.139 C  
HETATM   32  C   UNL     1      -6.674  13.659  67.222  1.00  0.00     0.169 C  
HETATM   33  C   UNL     1      -6.895  13.369  69.641  1.00  0.00     0.132 C  
BRANCH  31  34
HETATM   34  C   UNL     1      -8.975  13.858  68.152  1.00  0.00    -0.185 A  
HETATM   35  F   UNL     1     -11.218  15.934  71.247  1.00  0.00    -0.348 F  
HETATM   36  C   UNL     1     -10.741  14.816  66.733  1.00  0.00    -0.309 A  
HETATM   37  C   UNL     1     -11.271  15.135  65.354  1.00  0.00    -0.338 C  
HETATM   38  F   UNL     1     -12.158  13.976  71.091  1.00  0.00    -0.377 F  
HETATM   39  C   UNL     1      -9.489  14.197  66.888  1.00  0.00    -0.275 A  
HETATM   40  C   UNL     1     -11.500  15.110  67.873  1.00  0.00    -0.344 A  
HETATM   41  F   UNL     1     -11.526  16.463  65.193  1.00  0.00    -0.138 F  
HETATM   42  F   UNL     1     -12.435  14.488  65.081  1.00  0.00    -0.395 F  
HETATM   43  F   UNL     1     -10.409  14.799  64.355  1.00  0.00    -0.318 F  
HETATM   44  F   UNL     1     -13.045  15.692  70.094  1.00  0.00    -0.343 F  
HETATM   45  C   UNL     1     -11.020  14.800  69.153  1.00  0.00    -0.277 A  
HETATM   46  C   UNL     1      -9.757  14.185  69.280  1.00  0.00     0.204 A  
HETATM   47  C   UNL     1     -11.853  15.096  70.383  1.00  0.00    -0.307 C  
ENDBRANCH  31  34
ENDBRANCH   3  31
TORSDOF 7
ENDMDL
MODEL       82
REMARK 921   NORMALIZED FREE ENERGY PREDICTED BY IDOCK:   -5.43 KCAL/MOL
REMARK 922        TOTAL FREE ENERGY PREDICTED BY IDOCK:   -8.29 KCAL/MOL
REMARK 923 INTER-LIGAND FREE ENERGY PREDICTED BY IDOCK:   -7.89 KCAL/MOL
REMARK 924 INTRA-LIGAND FREE ENERGY PREDICTED BY IDOCK:   -0.40 KCAL/MOL
REMARK 927      BINDING AFFINITY PREDICTED BY RF-SCORE:    0.00 PKD
ROOT
HETATM    1  C   UNL     1     -10.190  10.988  68.971  1.00  0.00    -0.200 C  
HETATM    2  N   UNL     1      -8.808  10.595  68.673  1.00  0.00    -0.144 N  
HETATM    3  C   UNL     1      -7.806  11.457  68.207  1.00  0.00    -0.132 C  
HETATM    4  O   UNL     1      -6.752  10.987  67.756  1.00  0.00    -0.063 OA 
ENDROOT
BRANCH   2   5
HETATM    5  C   UNL     1      -8.676   9.192  68.374  1.00  0.00    -0.129 A  
HETATM    6  C   UNL     1      -8.160   7.304  67.007  1.00  0.00    -0.117 A  
HETATM    7  C   UNL     1      -8.476   8.315  69.446  1.00  0.00    -0.123 A  
HETATM    8  C   UNL     1      -8.574   8.665  67.072  1.00  0.00    -0.120 A  
HETATM    9  C   UNL     1      -7.976   6.474  68.125  1.00  0.00    -0.110 A  
HETATM   10  N   UNL     1      -8.155   7.000  69.348  1.00  0.00    -0.128 NA 
BRANCH   9  11
HETATM   11  N   UNL     1      -7.613   5.143  68.033  1.00  0.00    -0.083 NA 
HETATM   12  C   UNL     1      -8.499   4.083  68.566  1.00  0.00    -0.091 C  
HETATM   13  N   UNL     1      -7.621   2.493  66.737  1.00  0.00    -0.070 N  
HETATM   14  C   UNL     1      -6.859   1.494  67.576  1.00  0.00    -0.032 C  
HETATM   15  C   UNL     1      -6.397   4.646  67.387  1.00  0.00    -0.041 C  
HETATM   16  C   UNL     1      -8.867   3.038  67.474  1.00  0.00    -0.139 C  
HETATM   17  C   UNL     1      -6.748   3.660  66.259  1.00  0.00    -0.049 C  
BRANCH  13  18
HETATM   18  C   UNL     1      -8.077   1.781  65.454  1.00  0.00    -0.076 C  
BRANCH  18  19
HETATM   19  O   UNL     1      -9.401   2.011  65.081  1.00  0.00    -0.121 OA 
HETATM   20  O   UNL     1      -8.194   2.184  62.842  1.00  0.00    -0.067 OA 
HETATM   21  O   UNL     1     -10.823   2.476  63.036  1.00  0.00    -0.187 OA 
HETATM   22  O   UNL     1      -9.305   4.159  63.972  1.00  0.00    -0.147 OA 
HETATM   23  P   UNL     1      -9.438   2.605  63.577  1.00  0.00    -0.110 P  
ENDBRANCH  18  19
ENDBRANCH  13  18
ENDBRANCH   9  11
BRANCH   8  24
HETATM   24  C   UNL     1      -8.812   9.430  65.787  1.00  0.00    -0.204 A  
HETATM   25  C   UNL     1     -10.090   9.964  65.505  1.00  0.00    -0.297 A  
HETATM   26  C   UNL     1     -10.385  10.684  64.341  1.00  0.00    -0.347 A  
HETATM   27  C   UNL     1      -6.393   9.163  64.861  1.00  0.00    -0.066 C  
HETATM   28  C   UNL     1      -7.810   9.683  64.800  1.00  0.00    -0.128 A  
HETATM   29  C   UNL     1      -9.387  10.953  63.425  1.00  0.00    -0.308 A  
HETATM   30  C   UNL     1      -8.108  10.472  63.661  1.00  0.00    -0.051 A  
ENDBRANCH   8  24
ENDBRANCH   2   5
BRANCH   3  31
HETATM   31  C   UNL     1      -7.993  13.019  68.242  1.00  0.00    -0.151 C  
HETATM   32  C   UNL     1      -7.294  13.628  66.986  1.00  0.00     0.352 C  
HETATM   33  C   UNL     1      -7.224  13.646  69.432  1.00  0.00     0.149 C  
BRANCH  31  34
HETATM   34  C   UNL     1      -9.483  13.429  68.156  1.00  0.00    -0.218 A  
HETATM   35  F   UNL     1     -12.245  12.695  64.876  1.00  0.00    -0.406 F  
HETATM   36  C   UNL     1     -11.523  14.325  69.198  1.00  0.00    -0.330 A  
HETATM   37  C   UNL     1     -12.244  14.822  70.431  1.00  0.00    -0.336 C  
HETATM   38  F   UNL     1     -11.520  14.723  64.556  1.00  0.00    -0.369 F  
HETATM   39  C   UNL     1     -10.196  13.870  69.284  1.00  0.00     0.119 A  
HETATM   40  C   UNL     1     -12.159  14.336  67.950  1.00  0.00    -0.296 A  
HETATM   41  F   UNL     1     -13.380  14.116  70.684  1.00  0.00    -0.355 F  
HETATM   42  F   UNL     1     -12.619  16.123  70.326  1.00  0.00    -0.311 F  
HETATM   43  F   UNL     1     -11.494  14.735  71.563  1.00  0.00    -0.369 F  
HETATM   44  F   UNL     1     -13.449  14.392  65.502  1.00  0.00    -0.428 F  
HETATM   45  C   UNL     1     -11.488  13.893  66.801  1.00  0.00    -0.369 A  
HETATM   46  C   UNL     1     -10.160  13.435  66.918  1.00  0.00    -0.255 A  
HETATM   47  C   UNL     1     -12.169  13.928  65.448  1.00  0.00    -0.444 C  
ENDBRANCH  31  34
ENDBRANCH   3  31
TORSDOF 7
ENDMDL
MODEL       83
REMARK 921   NORMALIZED FREE ENERGY PREDICTED BY IDOCK:   -5.42 KCAL/MOL
REMARK 922        TOTAL FREE ENERGY PREDICTED BY IDOCK:   -8.28 KCAL/MOL
REMARK 923 INTER-LIGAND FREE ENERGY PREDICTED BY IDOCK:   -7.79 KCAL/MOL
REMARK 924 INTRA-LIGAND FREE ENERGY PREDICTED BY IDOCK:   -0.49 KCAL/MOL
REMARK 927      BINDING AFFINITY PREDICTED BY RF-SCORE:    0.00 PKD
ROOT
HETATM    1  C   UNL     1      -6.168   8.676  68.456  1.00  0.00    -0.053 C  
HETATM    2  N   UNL     1      -6.846   9.338  67.335  1.00  0.00    -0.076 N  
HETATM    3  C   UNL     1      -6.923   8.839  66.028  1.00  0.00    -0.080 C  
HETATM    4  O   UNL     1      -7.299   9.579  65.109  1.00  0.00    -0.101 OA 
ENDROOT
BRANCH   2   5
HETATM    5  C   UNL     1      -6.967  10.762  67.516  1.00  0.00    -0.084 A  
HETATM    6  C   UNL     1      -7.683  12.758  68.614  1.00  0.00    -0.064 A  
HETATM    7  C   UNL     1      -5.977  11.576  66.952  1.00  0.00    -0.136 A  
HETATM    8  C   UNL     1      -7.919  11.377  68.352  1.00  0.00    -0.142 A  
HETATM    9  C   UNL     1      -6.668  13.520  68.012  1.00  0.00    -0.138 A  
HETATM   10  N   UNL     1      -5.825  12.907  67.165  1.00  0.00    -0.317 NA 
BRANCH   9  11
HETATM   11  N   UNL     1      -6.486  14.869  68.254  1.00  0.00    -0.107 NA 
HETATM   12  C   UNL     1      -5.679  15.697  67.329  1.00  0.00     0.158 C  
HETATM   13  N   UNL     1      -7.161  17.721  67.920  1.00  0.00    -0.205 N  
HETATM   14  C   UNL     1      -6.170  18.588  68.661  1.00  0.00    -0.211 C  
HETATM   15  C   UNL     1      -7.079  15.612  69.368  1.00  0.00    -0.198 C  
HETATM   16  C   UNL     1      -6.488  16.910  66.788  1.00  0.00    -0.212 C  
HETATM   17  C   UNL     1      -7.937  16.776  68.846  1.00  0.00    -0.237 C  
BRANCH  13  18
HETATM   18  C   UNL     1      -8.225  18.642  67.303  1.00  0.00    -0.252 C  
BRANCH  18  19
HETATM   19  O   UNL     1      -8.704  18.250  66.054  1.00  0.00    -0.497 OA 
HETATM   20  O   UNL     1     -10.865  18.493  67.385  1.00  0.00    -0.421 OA 
HETATM   21  O   UNL     1     -10.873  17.780  64.830  1.00  0.00    -0.815 OA 
HETATM   22  O   UNL     1      -9.997  16.266  66.549  1.00  0.00    -0.250 OA 
HETATM   23  P   UNL     1     -10.256  17.813  66.189  1.00  0.00    -0.194 P  
ENDBRANCH  18  19
ENDBRANCH  13  18
ENDBRANCH   9  11
BRANCH   8  24
HETATM   24  C   UNL     1      -9.097  10.689  69.006  1.00  0.00    -0.174 A  
HETATM   25  C   UNL     1     -10.386  10.789  68.435  1.00  0.00    -0.199 A  
HETATM   26  C   UNL     1     -11.522  10.178  68.980  1.00  0.00    -0.138 A  
HETATM   27  C   UNL     1      -7.755   9.699  71.006  1.00  0.00     0.217 C  
HETATM   28  C   UNL     1      -9.013   9.899  70.194  1.00  0.00    -0.159 A  
HETATM   29  C   UNL     1     -11.404   9.383  70.104  1.00  0.00    -0.220 A  
HETATM   30  C   UNL     1     -10.159   9.232  70.695  1.00  0.00    -0.339 A  
ENDBRANCH   8  24
ENDBRANCH   2   5
BRANCH   3  31
HETATM   31  C   UNL     1      -6.535   7.350  65.700  1.00  0.00    -0.045 C  
HETATM   32  C   UNL     1      -5.253   6.984  66.513  1.00  0.00    -0.022 C  
HETATM   33  C   UNL     1      -6.088   7.202  64.224  1.00  0.00    -0.037 C  
BRANCH  31  34
HETATM   34  C   UNL     1      -7.632   6.351  66.140  1.00  0.00    -0.090 A  
HETATM   35  F   UNL     1      -9.325   5.860  70.117  1.00  0.00    -0.150 F  
HETATM   36  C   UNL     1      -9.352   4.679  65.593  1.00  0.00    -0.160 A  
HETATM   37  C   UNL     1     -10.149   3.924  64.554  1.00  0.00    -0.218 C  
HETATM   38  F   UNL     1      -7.788   4.325  69.967  1.00  0.00    -0.051 F  
HETATM   39  C   UNL     1      -8.413   5.650  65.205  1.00  0.00    -0.144 A  
HETATM   40  C   UNL     1      -9.521   4.404  66.957  1.00  0.00    -0.194 A  
HETATM   41  F   UNL     1     -11.491   4.086  64.714  1.00  0.00    -0.198 F  
HETATM   42  F   UNL     1      -9.919   2.585  64.593  1.00  0.00    -0.123 F  
HETATM   43  F   UNL     1      -9.877   4.317  63.279  1.00  0.00    -0.153 F  
HETATM   44  F   UNL     1      -9.874   3.813  69.637  1.00  0.00    -0.268 F  
HETATM   45  C   UNL     1      -8.771   5.089  67.923  1.00  0.00    -0.104 A  
HETATM   46  C   UNL     1      -7.841   6.063  67.505  1.00  0.00    -0.098 A  
HETATM   47  C   UNL     1      -8.937   4.773  69.396  1.00  0.00    -0.094 C  
ENDBRANCH  31  34
ENDBRANCH   3  31
TORSDOF 7
ENDMDL
MODEL       84
REMARK 921   NORMALIZED FREE ENERGY PREDICTED BY IDOCK:   -5.42 KCAL/MOL
REMARK 922        TOTAL FREE ENERGY PREDICTED BY IDOCK:   -8.28 KCAL/MOL
REMARK 923 INTER-LIGAND FREE ENERGY PREDICTED BY IDOCK:   -9.31 KCAL/MOL
REMARK 924 INTRA-LIGAND FREE ENERGY PREDICTED BY IDOCK:    1.03 KCAL/MOL
REMARK 927      BINDING AFFINITY PREDICTED BY RF-SCORE:    0.00 PKD
ROOT
HETATM    1  C   UNL     1     -11.609  11.902  66.837  1.00  0.00    -0.285 C  
HETATM    2  N   UNL     1     -10.192  12.106  67.161  1.00  0.00    -0.209 N  
HETATM    3  C   UNL     1      -9.301  11.100  67.560  1.00  0.00    -0.168 C  
HETATM    4  O   UNL     1      -8.203  11.408  68.042  1.00  0.00    -0.127 OA 
ENDROOT
BRANCH   2   5
HETATM    5  C   UNL     1      -9.897  13.458  67.561  1.00  0.00    -0.227 A  
HETATM    6  C   UNL     1      -9.659  15.260  69.109  1.00  0.00    -0.243 A  
HETATM    7  C   UNL     1      -9.027  14.200  66.754  1.00  0.00    -0.208 A  
HETATM    8  C   UNL     1     -10.294  14.026  68.787  1.00  0.00    -0.225 A  
HETATM    9  C   UNL     1      -8.793  15.957  68.251  1.00  0.00    -0.179 A  
HETATM   10  N   UNL     1      -8.497  15.411  67.059  1.00  0.00    -0.213 NA 
BRANCH   9  11
HETATM   11  N   UNL     1      -8.221  17.174  68.572  1.00  0.00    -0.253 NA 
HETATM   12  C   UNL     1      -6.865  17.234  69.165  1.00  0.00    -0.234 C  
HETATM   13  N   UNL     1      -6.513  19.514  68.013  1.00  0.00    -0.226 N  
HETATM   14  C   UNL     1      -6.464  20.429  69.214  1.00  0.00    -0.202 C  
HETATM   15  C   UNL     1      -8.834  18.482  68.333  1.00  0.00    -0.322 C  
HETATM   16  C   UNL     1      -5.908  18.124  68.321  1.00  0.00    -0.170 C  
HETATM   17  C   UNL     1      -7.927  19.349  67.444  1.00  0.00    -0.268 C  
BRANCH  13  18
HETATM   18  C   UNL     1      -5.699  20.169  66.887  1.00  0.00    -0.169 C  
BRANCH  18  19
HETATM   19  O   UNL     1      -6.408  21.056  66.076  1.00  0.00    -0.257 OA 
HETATM   20  O   UNL     1      -6.390  18.945  64.645  1.00  0.00    -0.495 OA 
HETATM   21  O   UNL     1      -7.588  21.169  63.837  1.00  0.00     0.706 OA 
HETATM   22  O   UNL     1      -5.145  21.057  64.013  1.00  0.00    -0.186 OA 
HETATM   23  P   UNL     1      -6.518  20.443  64.583  1.00  0.00    -0.145 P  
ENDBRANCH  18  19
ENDBRANCH  13  18
ENDBRANCH   9  11
BRANCH   8  24
HETATM   24  C   UNL     1     -11.270  13.416  69.770  1.00  0.00    -0.044 A  
HETATM   25  C   UNL     1     -11.457  12.015  69.808  1.00  0.00    -0.284 A  
HETATM   26  C   UNL     1     -12.339  11.378  70.690  1.00  0.00    -0.466 A  
HETATM   27  C   UNL     1     -12.045  15.670  70.818  1.00  0.00    -0.454 C  
HETATM   28  C   UNL     1     -12.039  14.163  70.714  1.00  0.00    -0.419 A  
HETATM   29  C   UNL     1     -13.035  12.120  71.624  1.00  0.00    -0.427 A  
HETATM   30  C   UNL     1     -12.875  13.497  71.646  1.00  0.00    -0.419 A  
ENDBRANCH   8  24
ENDBRANCH   2   5
BRANCH   3  31
HETATM   31  C   UNL     1      -9.671   9.578  67.411  1.00  0.00    -0.201 C  
HETATM   32  C   UNL     1      -8.584   8.890  66.527  1.00  0.00    -0.133 C  
HETATM   33  C   UNL     1     -10.976   9.399  66.596  1.00  0.00     0.244 C  
BRANCH  31  34
HETATM   34  C   UNL     1      -9.660   8.840  68.772  1.00  0.00    -0.160 A  
HETATM   35  F   UNL     1     -12.869   6.494  70.537  1.00  0.00    -0.275 F  
HETATM   36  C   UNL     1      -8.461   8.033  70.762  1.00  0.00    -0.124 A  
HETATM   37  C   UNL     1      -7.161   7.850  71.514  1.00  0.00    -0.067 C  
HETATM   38  F   UNL     1     -13.049   8.464  71.447  1.00  0.00    -0.314 F  
HETATM   39  C   UNL     1      -8.470   8.626  69.489  1.00  0.00    -0.129 A  
HETATM   40  C   UNL     1      -9.676   7.637  71.337  1.00  0.00    -0.183 A  
HETATM   41  F   UNL     1      -6.921   6.546  71.819  1.00  0.00    -0.068 F  
HETATM   42  F   UNL     1      -7.141   8.528  72.691  1.00  0.00    -0.113 F  
HETATM   43  F   UNL     1      -6.073   8.275  70.815  1.00  0.00    -0.032 F  
HETATM   44  F   UNL     1     -12.053   6.856  72.519  1.00  0.00    -0.263 F  
HETATM   45  C   UNL     1     -10.885   7.821  70.652  1.00  0.00    -0.241 A  
HETATM   46  C   UNL     1     -10.863   8.412  69.372  1.00  0.00    -0.094 A  
HETATM   47  C   UNL     1     -12.200   7.414  71.284  1.00  0.00    -0.341 C  
ENDBRANCH  31  34
ENDBRANCH   3  31
TORSDOF 7
ENDMDL
MODEL       85
REMARK 921   NORMALIZED FREE ENERGY PREDICTED BY IDOCK:   -5.36 KCAL/MOL
REMARK 922        TOTAL FREE ENERGY PREDICTED BY IDOCK:   -8.20 KCAL/MOL
REMARK 923 INTER-LIGAND FREE ENERGY PREDICTED BY IDOCK:   -6.66 KCAL/MOL
REMARK 924 INTRA-LIGAND FREE ENERGY PREDICTED BY IDOCK:   -1.54 KCAL/MOL
REMARK 927      BINDING AFFINITY PREDICTED BY RF-SCORE:    0.00 PKD
ROOT
HETATM    1  C   UNL     1      -8.871   9.385  70.339  1.00  0.00    -0.249 C  
HETATM    2  N   UNL     1      -7.489   9.410  69.847  1.00  0.00    -0.086 N  
HETATM    3  C   UNL     1      -6.489   8.491  70.194  1.00  0.00    -0.038 C  
HETATM    4  O   UNL     1      -5.306   8.737  69.922  1.00  0.00    -0.029 OA 
ENDROOT
BRANCH   2   5
HETATM    5  C   UNL     1      -7.072  10.719  69.412  1.00  0.00    -0.122 A  
HETATM    6  C   UNL     1      -7.114  12.660  68.023  1.00  0.00    -0.103 A  
HETATM    7  C   UNL     1      -6.486  11.564  70.362  1.00  0.00     0.238 A  
HETATM    8  C   UNL     1      -7.357  11.262  68.145  1.00  0.00    -0.088 A  
HETATM    9  C   UNL     1      -6.520  13.454  69.018  1.00  0.00    -0.105 A  
HETATM   10  N   UNL     1      -6.198  12.878  70.188  1.00  0.00    -0.084 NA 
BRANCH   9  11
HETATM   11  N   UNL     1      -6.258  14.803  68.859  1.00  0.00    -0.084 NA 
HETATM   12  C   UNL     1      -5.683  15.312  67.592  1.00  0.00    -0.055 C  
HETATM   13  N   UNL     1      -6.937  17.533  67.971  1.00  0.00    -0.190 N  
HETATM   14  C   UNL     1      -5.778  18.470  68.217  1.00  0.00    -0.178 C  
HETATM   15  C   UNL     1      -6.548  15.839  69.851  1.00  0.00    -0.099 C  
HETATM   16  C   UNL     1      -6.575  16.418  66.960  1.00  0.00    -0.190 C  
HETATM   17  C   UNL     1      -7.483  16.907  69.260  1.00  0.00    -0.116 C  
BRANCH  13  18
HETATM   18  C   UNL     1      -8.100  18.359  67.401  1.00  0.00    -0.240 C  
BRANCH  18  19
HETATM   19  O   UNL     1      -8.605  17.916  66.178  1.00  0.00    -0.449 OA 
HETATM   20  O   UNL     1     -10.736  18.200  67.549  1.00  0.00    -0.412 OA 
HETATM   21  O   UNL     1     -10.798  17.390  65.024  1.00  0.00    -0.676 OA 
HETATM   22  O   UNL     1      -9.875  15.947  66.778  1.00  0.00    -0.231 OA 
HETATM   23  P   UNL     1     -10.151  17.477  66.365  1.00  0.00    -0.307 P  
ENDBRANCH  18  19
ENDBRANCH  13  18
ENDBRANCH   9  11
BRANCH   8  24
HETATM   24  C   UNL     1      -7.932  10.504  66.967  1.00  0.00    -0.118 A  
HETATM   25  C   UNL     1      -9.218  10.823  66.477  1.00  0.00    -0.187 A  
HETATM   26  C   UNL     1      -9.815  10.169  65.391  1.00  0.00    -0.375 A  
HETATM   27  C   UNL     1      -5.895   8.914  66.648  1.00  0.00    -0.052 C  
HETATM   28  C   UNL     1      -7.251   9.460  66.269  1.00  0.00    -0.092 A  
HETATM   29  C   UNL     1      -9.115   9.195  64.705  1.00  0.00    -0.157 A  
HETATM   30  C   UNL     1      -7.840   8.856  65.130  1.00  0.00    -0.106 A  
ENDBRANCH   8  24
ENDBRANCH   2   5
BRANCH   3  31
HETATM   31  C   UNL     1      -6.840   7.146  70.932  1.00  0.00    -0.053 C  
HETATM   32  C   UNL     1      -7.880   7.456  72.054  1.00  0.00    -0.093 C  
HETATM   33  C   UNL     1      -5.615   6.599  71.706  1.00  0.00    -0.036 C  
BRANCH  31  34
HETATM   34  C   UNL     1      -7.510   6.121  69.985  1.00  0.00    -0.087 A  
HETATM   35  F   UNL     1      -7.554   1.789  70.381  1.00  0.00    -0.036 F  
HETATM   36  C   UNL     1      -8.981   5.602  68.083  1.00  0.00    -0.111 A  
HETATM   37  C   UNL     1      -9.946   6.072  67.019  1.00  0.00    -0.163 C  
HETATM   38  F   UNL     1      -5.922   2.210  69.002  1.00  0.00    -0.021 F  
HETATM   39  C   UNL     1      -8.433   6.514  69.001  1.00  0.00    -0.125 A  
HETATM   40  C   UNL     1      -8.599   4.256  68.152  1.00  0.00    -0.107 A  
HETATM   41  F   UNL     1     -11.149   5.439  67.096  1.00  0.00    -0.250 F  
HETATM   42  F   UNL     1      -9.481   5.855  65.761  1.00  0.00    -0.165 F  
HETATM   43  F   UNL     1     -10.223   7.403  67.094  1.00  0.00    -0.230 F  
HETATM   44  F   UNL     1      -7.860   1.590  68.239  1.00  0.00    -0.049 F  
HETATM   45  C   UNL     1      -7.690   3.818  69.126  1.00  0.00    -0.052 A  
HETATM   46  C   UNL     1      -7.162   4.754  70.039  1.00  0.00    -0.054 A  
HETATM   47  C   UNL     1      -7.260   2.367  69.184  1.00  0.00    -0.044 C  
ENDBRANCH  31  34
ENDBRANCH   3  31
TORSDOF 7
ENDMDL
MODEL       86
REMARK 921   NORMALIZED FREE ENERGY PREDICTED BY IDOCK:   -5.28 KCAL/MOL
REMARK 922        TOTAL FREE ENERGY PREDICTED BY IDOCK:   -8.08 KCAL/MOL
REMARK 923 INTER-LIGAND FREE ENERGY PREDICTED BY IDOCK:   -6.64 KCAL/MOL
REMARK 924 INTRA-LIGAND FREE ENERGY PREDICTED BY IDOCK:   -1.44 KCAL/MOL
REMARK 927      BINDING AFFINITY PREDICTED BY RF-SCORE:    0.00 PKD
ROOT
HETATM    1  C   UNL     1      -6.642  11.901  70.121  1.00  0.00     0.239 C  
HETATM    2  N   UNL     1      -6.508  11.858  68.660  1.00  0.00    -0.057 N  
HETATM    3  C   UNL     1      -6.872  12.889  67.783  1.00  0.00    -0.138 C  
HETATM    4  O   UNL     1      -6.949  12.664  66.568  1.00  0.00     0.387 OA 
ENDROOT
BRANCH   2   5
HETATM    5  C   UNL     1      -6.483  10.515  68.139  1.00  0.00    -0.062 A  
HETATM    6  C   UNL     1      -7.438   8.506  67.271  1.00  0.00    -0.093 A  
HETATM    7  C   UNL     1      -5.311  10.083  67.508  1.00  0.00    -0.038 A  
HETATM    8  C   UNL     1      -7.606   9.667  68.079  1.00  0.00    -0.083 A  
HETATM    9  C   UNL     1      -6.229   8.127  66.664  1.00  0.00    -0.054 A  
HETATM   10  N   UNL     1      -5.162   8.930  66.808  1.00  0.00    -0.038 NA 
BRANCH   9  11
HETATM   11  N   UNL     1      -6.082   6.972  65.918  1.00  0.00    -0.035 NA 
HETATM   12  C   UNL     1      -5.138   5.915  66.346  1.00  0.00    -0.005 C  
HETATM   13  N   UNL     1      -6.687   4.159  65.269  1.00  0.00    -0.047 N  
HETATM   14  C   UNL     1      -5.820   3.683  64.127  1.00  0.00    -0.014 C  
HETATM   15  C   UNL     1      -6.839   6.652  64.706  1.00  0.00    -0.050 C  
HETATM   16  C   UNL     1      -5.848   4.542  66.511  1.00  0.00    -0.022 C  
HETATM   17  C   UNL     1      -7.601   5.327  64.880  1.00  0.00    -0.083 C  
BRANCH  13  18
HETATM   18  C   UNL     1      -7.638   3.013  65.649  1.00  0.00    -0.074 C  
BRANCH  18  19
HETATM   19  O   UNL     1      -7.731   2.741  67.013  1.00  0.00    -0.069 OA 
HETATM   20  O   UNL     1     -10.143   3.330  66.436  1.00  0.00     0.294 OA 
HETATM   21  O   UNL     1      -9.425   2.641  68.895  1.00  0.00    -0.166 OA 
HETATM   22  O   UNL     1      -8.685   4.768  67.925  1.00  0.00    -0.103 OA 
HETATM   23  P   UNL     1      -9.155   3.271  67.569  1.00  0.00    -0.196 P  
ENDBRANCH  18  19
ENDBRANCH  13  18
ENDBRANCH   9  11
BRANCH   8  24
HETATM   24  C   UNL     1      -8.943   9.922  68.742  1.00  0.00    -0.140 A  
HETATM   25  C   UNL     1      -9.927  10.694  68.084  1.00  0.00    -0.176 A  
HETATM   26  C   UNL     1     -11.186  10.970  68.632  1.00  0.00    -0.322 A  
HETATM   27  C   UNL     1      -8.412   8.614  70.930  1.00  0.00    -0.195 C  
HETATM   28  C   UNL     1      -9.318   9.414  70.023  1.00  0.00    -0.253 A  
HETATM   29  C   UNL     1     -11.539  10.428  69.853  1.00  0.00    -0.358 A  
HETATM   30  C   UNL     1     -10.620   9.644  70.534  1.00  0.00    -0.369 A  
ENDBRANCH   8  24
ENDBRANCH   2   5
BRANCH   3  31
HETATM   31  C   UNL     1      -7.192  14.335  68.315  1.00  0.00    -0.117 C  
HETATM   32  C   UNL     1      -6.397  15.364  67.451  1.00  0.00    -0.070 C  
HETATM   33  C   UNL     1      -6.629  14.540  69.743  1.00  0.00    -0.158 C  
BRANCH  31  34
HETATM   34  C   UNL     1      -8.689  14.696  68.158  1.00  0.00    -0.168 A  
HETATM   35  F   UNL     1     -11.262  16.640  71.077  1.00  0.00    -0.354 F  
HETATM   36  C   UNL     1     -10.708  14.910  66.770  1.00  0.00    -0.312 A  
HETATM   37  C   UNL     1     -11.366  14.838  65.410  1.00  0.00    -0.356 C  
HETATM   38  F   UNL     1     -11.654  14.511  71.314  1.00  0.00    -0.354 F  
HETATM   39  C   UNL     1      -9.331  14.667  66.908  1.00  0.00    -0.258 A  
HETATM   40  C   UNL     1     -11.467  15.195  67.912  1.00  0.00    -0.344 A  
HETATM   41  F   UNL     1     -11.971  16.007  65.066  1.00  0.00     0.060 F  
HETATM   42  F   UNL     1     -12.327  13.879  65.347  1.00  0.00    -0.372 F  
HETATM   43  F   UNL     1     -10.491  14.562  64.404  1.00  0.00    -0.383 F  
HETATM   44  F   UNL     1     -13.009  15.744  70.144  1.00  0.00    -0.375 F  
HETATM   45  C   UNL     1     -10.864  15.246  69.177  1.00  0.00    -0.250 A  
HETATM   46  C   UNL     1      -9.479  15.005  69.286  1.00  0.00    -0.171 A  
HETATM   47  C   UNL     1     -11.690  15.531  70.415  1.00  0.00    -0.339 C  
ENDBRANCH  31  34
ENDBRANCH   3  31
TORSDOF 7
ENDMDL
MODEL       87
REMARK 921   NORMALIZED FREE ENERGY PREDICTED BY IDOCK:   -5.13 KCAL/MOL
REMARK 922        TOTAL FREE ENERGY PREDICTED BY IDOCK:   -7.88 KCAL/MOL
REMARK 923 INTER-LIGAND FREE ENERGY PREDICTED BY IDOCK:  -10.20 KCAL/MOL
REMARK 924 INTRA-LIGAND FREE ENERGY PREDICTED BY IDOCK:    2.33 KCAL/MOL
REMARK 927      BINDING AFFINITY PREDICTED BY RF-SCORE:    0.00 PKD
ROOT
HETATM    1  C   UNL     1      -9.203  13.438  67.090  1.00  0.00    -0.240 C  
HETATM    2  N   UNL     1      -8.489  12.717  68.150  1.00  0.00    -0.172 N  
HETATM    3  C   UNL     1      -7.437  13.238  68.915  1.00  0.00     0.002 C  
HETATM    4  O   UNL     1      -6.745  12.479  69.607  1.00  0.00    -0.049 OA 
ENDROOT
BRANCH   2   5
HETATM    5  C   UNL     1      -8.564  11.285  68.003  1.00  0.00    -0.140 A  
HETATM    6  C   UNL     1      -8.913   9.241  66.821  1.00  0.00    -0.154 A  
HETATM    7  C   UNL     1      -7.820  10.500  68.892  1.00  0.00    -0.124 A  
HETATM    8  C   UNL     1      -9.203  10.631  66.932  1.00  0.00    -0.172 A  
HETATM    9  C   UNL     1      -8.157   8.508  67.751  1.00  0.00    -0.115 A  
HETATM   10  N   UNL     1      -7.626   9.161  68.798  1.00  0.00    -0.082 NA 
BRANCH   9  11
HETATM   11  N   UNL     1      -7.925   7.150  67.641  1.00  0.00    -0.113 NA 
HETATM   12  C   UNL     1      -8.561   6.199  68.581  1.00  0.00    -0.113 C  
HETATM   13  N   UNL     1      -8.584   4.431  66.706  1.00  0.00    -0.108 N  
HETATM   14  C   UNL     1      -7.592   3.431  67.252  1.00  0.00    -0.078 C  
HETATM   15  C   UNL     1      -7.105   6.518  66.606  1.00  0.00    -0.068 C  
HETATM   16  C   UNL     1      -9.392   5.118  67.832  1.00  0.00    -0.120 C  
HETATM   17  C   UNL     1      -7.932   5.493  65.812  1.00  0.00    -0.108 C  
BRANCH  13  18
HETATM   18  C   UNL     1      -9.559   3.676  65.789  1.00  0.00    -0.140 C  
BRANCH  18  19
HETATM   19  O   UNL     1     -10.042   4.405  64.702  1.00  0.00    -0.142 OA 
HETATM   20  O   UNL     1     -10.265   2.008  63.861  1.00  0.00    -0.127 OA 
HETATM   21  O   UNL     1     -11.007   4.080  62.382  1.00  0.00    -0.172 OA 
HETATM   22  O   UNL     1      -8.639   3.677  62.871  1.00  0.00    -0.084 OA 
HETATM   23  P   UNL     1     -10.136   3.437  63.409  1.00  0.00    -0.218 P  
ENDBRANCH  18  19
ENDBRANCH  13  18
ENDBRANCH   9  11
BRANCH   8  24
HETATM   24  C   UNL     1     -10.096  11.287  65.901  1.00  0.00    -0.291 A  
HETATM   25  C   UNL     1      -9.676  11.384  64.555  1.00  0.00    -0.268 A  
HETATM   26  C   UNL     1     -10.448  11.974  63.546  1.00  0.00    -0.505 A  
HETATM   27  C   UNL     1     -12.020  11.884  67.552  1.00  0.00    -0.102 C  
HETATM   28  C   UNL     1     -11.390  11.825  66.180  1.00  0.00    -0.342 A  
HETATM   29  C   UNL     1     -11.714  12.445  63.834  1.00  0.00    -0.529 A  
HETATM   30  C   UNL     1     -12.187  12.356  65.134  1.00  0.00    -0.449 A  
ENDBRANCH   8  24
ENDBRANCH   2   5
BRANCH   3  31
HETATM   31  C   UNL     1      -7.111  14.777  68.911  1.00  0.00    -0.118 C  
HETATM   32  C   UNL     1      -6.375  15.122  67.578  1.00  0.00    -0.109 C  
HETATM   33  C   UNL     1      -6.075  15.131  70.006  1.00  0.00    -0.148 C  
BRANCH  31  34
HETATM   34  C   UNL     1      -8.393  15.644  68.939  1.00  0.00    -0.210 A  
HETATM   35  F   UNL     1      -9.606  18.670  66.058  1.00  0.00    -0.317 F  
HETATM   36  C   UNL     1     -10.600  16.177  69.886  1.00  0.00    -0.302 A  
HETATM   37  C   UNL     1     -11.721  15.838  70.842  1.00  0.00    -0.406 C  
HETATM   38  F   UNL     1      -8.649  19.780  67.669  1.00  0.00    -0.328 F  
HETATM   39  C   UNL     1      -9.469  15.347  69.793  1.00  0.00    -0.156 A  
HETATM   40  C   UNL     1     -10.661  17.334  69.100  1.00  0.00    -0.209 A  
HETATM   41  F   UNL     1     -12.915  15.688  70.205  1.00  0.00    -0.425 F  
HETATM   42  F   UNL     1     -11.911  16.799  71.784  1.00  0.00    -0.426 F  
HETATM   43  F   UNL     1     -11.515  14.678  71.523  1.00  0.00    -0.362 F  
HETATM   44  F   UNL     1     -10.816  19.642  67.580  1.00  0.00    -0.535 F  
HETATM   45  C   UNL     1      -9.615  17.662  68.225  1.00  0.00    -0.306 A  
HETATM   46  C   UNL     1      -8.496  16.808  68.147  1.00  0.00    -0.213 A  
HETATM   47  C   UNL     1      -9.671  18.926  67.394  1.00  0.00    -0.312 C  
ENDBRANCH  31  34
ENDBRANCH   3  31
TORSDOF 7
ENDMDL
MODEL       88
REMARK 921   NORMALIZED FREE ENERGY PREDICTED BY IDOCK:   -5.00 KCAL/MOL
REMARK 922        TOTAL FREE ENERGY PREDICTED BY IDOCK:   -7.68 KCAL/MOL
REMARK 923 INTER-LIGAND FREE ENERGY PREDICTED BY IDOCK:   -7.54 KCAL/MOL
REMARK 924 INTRA-LIGAND FREE ENERGY PREDICTED BY IDOCK:   -0.14 KCAL/MOL
REMARK 927      BINDING AFFINITY PREDICTED BY RF-SCORE:    0.00 PKD
ROOT
HETATM    1  C   UNL     1     -10.099  11.484  68.849  1.00  0.00    -0.127 C  
HETATM    2  N   UNL     1      -8.739  10.935  68.863  1.00  0.00    -0.160 N  
HETATM    3  C   UNL     1      -7.577  11.643  68.529  1.00  0.00    -0.127 C  
HETATM    4  O   UNL     1      -6.517  11.031  68.337  1.00  0.00    -0.056 OA 
ENDROOT
BRANCH   2   5
HETATM    5  C   UNL     1      -8.711   9.501  68.721  1.00  0.00    -0.128 A  
HETATM    6  C   UNL     1      -8.326   7.440  67.579  1.00  0.00    -0.113 A  
HETATM    7  C   UNL     1      -8.593   8.734  69.886  1.00  0.00    -0.133 A  
HETATM    8  C   UNL     1      -8.634   8.828  67.487  1.00  0.00    -0.127 A  
HETATM    9  C   UNL     1      -8.221   6.727  68.784  1.00  0.00    -0.121 A  
HETATM   10  N   UNL     1      -8.374   7.396  69.939  1.00  0.00    -0.132 NA 
BRANCH   9  11
HETATM   11  N   UNL     1      -7.961   5.370  68.844  1.00  0.00    -0.093 NA 
HETATM   12  C   UNL     1      -6.766   4.865  69.557  1.00  0.00    -0.051 C  
HETATM   13  N   UNL     1      -8.073   2.719  70.134  1.00  0.00    -0.042 N  
HETATM   14  C   UNL     1      -7.317   1.702  69.312  1.00  0.00    -0.039 C  
HETATM   15  C   UNL     1      -8.817   4.323  68.282  1.00  0.00    -0.107 C  
HETATM   16  C   UNL     1      -7.146   3.839  70.663  1.00  0.00    -0.034 C  
HETATM   17  C   UNL     1      -9.256   3.338  69.378  1.00  0.00    -0.152 C  
BRANCH  13  18
HETATM   18  C   UNL     1      -8.699   1.989  71.331  1.00  0.00    -0.064 C  
BRANCH  18  19
HETATM   19  O   UNL     1      -8.688   2.694  72.534  1.00  0.00    -0.073 OA 
HETATM   20  O   UNL     1     -11.019   1.659  72.560  1.00  0.00    -0.132 OA 
HETATM   21  O   UNL     1     -10.146   3.180  74.550  1.00  0.00    -0.126 OA 
HETATM   22  O   UNL     1     -10.612   4.149  72.346  1.00  0.00    -0.146 OA 
HETATM   23  P   UNL     1     -10.198   2.794  73.109  1.00  0.00    -0.154 P  
ENDBRANCH  18  19
ENDBRANCH  13  18
ENDBRANCH   9  11
BRANCH   8  24
HETATM   24  C   UNL     1      -8.796   9.463  66.122  1.00  0.00    -0.178 A  
HETATM   25  C   UNL     1     -10.057   9.951  65.711  1.00  0.00    -0.317 A  
HETATM   26  C   UNL     1     -10.284  10.552  64.467  1.00  0.00    -0.355 A  
HETATM   27  C   UNL     1      -6.322   9.140  65.377  1.00  0.00    -0.064 C  
HETATM   28  C   UNL     1      -7.736   9.633  65.179  1.00  0.00    -0.117 A  
HETATM   29  C   UNL     1      -9.232  10.745  63.593  1.00  0.00    -0.268 A  
HETATM   30  C   UNL     1      -7.968  10.305  63.953  1.00  0.00    -0.126 A  
ENDBRANCH   8  24
ENDBRANCH   2   5
BRANCH   3  31
HETATM   31  C   UNL     1      -7.590  13.210  68.389  1.00  0.00    -0.133 C  
HETATM   32  C   UNL     1      -6.720  13.603  67.154  1.00  0.00     0.427 C  
HETATM   33  C   UNL     1      -6.864  13.883  69.580  1.00  0.00     0.011 C  
BRANCH  31  34
HETATM   34  C   UNL     1      -9.012  13.758  68.114  1.00  0.00    -0.190 A  
HETATM   35  F   UNL     1     -11.367  16.396  70.648  1.00  0.00    -0.368 F  
HETATM   36  C   UNL     1     -10.929  14.084  66.608  1.00  0.00    -0.300 A  
HETATM   37  C   UNL     1     -11.544  13.938  65.235  1.00  0.00    -0.327 C  
HETATM   38  F   UNL     1     -12.076  14.390  71.113  1.00  0.00    -0.345 F  
HETATM   39  C   UNL     1      -9.608  13.666  66.845  1.00  0.00    -0.262 A  
HETATM   40  C   UNL     1     -11.675  14.614  67.668  1.00  0.00    -0.389 A  
HETATM   41  F   UNL     1     -11.958  15.130  64.725  1.00  0.00    -0.375 F  
HETATM   42  F   UNL     1     -12.633  13.125  65.235  1.00  0.00    -0.460 F  
HETATM   43  F   UNL     1     -10.686  13.418  64.314  1.00  0.00    -0.366 F  
HETATM   44  F   UNL     1     -13.194  15.648  69.738  1.00  0.00    -0.045 F  
HETATM   45  C   UNL     1     -11.115  14.734  68.948  1.00  0.00    -0.264 A  
HETATM   46  C   UNL     1      -9.785  14.314  69.155  1.00  0.00     0.043 A  
HETATM   47  C   UNL     1     -11.931  15.285  70.099  1.00  0.00    -0.338 C  
ENDBRANCH  31  34
ENDBRANCH   3  31
TORSDOF 7
ENDMDL
MODEL       89
REMARK 921   NORMALIZED FREE ENERGY PREDICTED BY IDOCK:   -4.97 KCAL/MOL
REMARK 922        TOTAL FREE ENERGY PREDICTED BY IDOCK:   -7.65 KCAL/MOL
REMARK 923 INTER-LIGAND FREE ENERGY PREDICTED BY IDOCK:   -6.93 KCAL/MOL
REMARK 924 INTRA-LIGAND FREE ENERGY PREDICTED BY IDOCK:   -0.72 KCAL/MOL
REMARK 927      BINDING AFFINITY PREDICTED BY RF-SCORE:    0.00 PKD
ROOT
HETATM    1  C   UNL     1      -7.474   8.860  67.709  1.00  0.00    -0.093 C  
HETATM    2  N   UNL     1      -8.787   9.466  67.958  1.00  0.00    -0.124 N  
HETATM    3  C   UNL     1     -10.011   8.783  67.931  1.00  0.00    -0.187 C  
HETATM    4  O   UNL     1     -11.072   9.423  67.912  1.00  0.00    -0.136 OA 
ENDROOT
BRANCH   2   5
HETATM    5  C   UNL     1      -8.807  10.884  67.706  1.00  0.00    -0.135 A  
HETATM    6  C   UNL     1      -8.702  12.850  66.355  1.00  0.00     0.141 A  
HETATM    7  C   UNL     1      -9.491  11.697  68.618  1.00  0.00    -0.123 A  
HETATM    8  C   UNL     1      -8.326  11.486  66.527  1.00  0.00    -0.147 A  
HETATM    9  C   UNL     1      -9.390  13.613  67.313  1.00  0.00    -0.233 A  
HETATM   10  N   UNL     1      -9.767  13.016  68.456  1.00  0.00    -0.178 NA 
BRANCH   9  11
HETATM   11  N   UNL     1      -9.707  14.947  67.137  1.00  0.00    -0.224 NA 
HETATM   12  C   UNL     1     -10.446  15.689  68.185  1.00  0.00    -0.259 C  
HETATM   13  N   UNL     1      -9.217  17.838  67.465  1.00  0.00    -0.243 N  
HETATM   14  C   UNL     1     -10.363  18.635  66.887  1.00  0.00    -0.402 C  
HETATM   15  C   UNL     1      -9.327  15.757  65.978  1.00  0.00    -0.349 C  
HETATM   16  C   UNL     1      -9.669  16.953  68.651  1.00  0.00    -0.267 C  
HETATM   17  C   UNL     1      -8.500  16.977  66.418  1.00  0.00    -0.283 C  
BRANCH  13  18
HETATM   18  C   UNL     1      -8.156  18.830  67.964  1.00  0.00    -0.283 C  
BRANCH  18  19
HETATM   19  O   UNL     1      -6.955  18.828  67.256  1.00  0.00    -0.203 OA 
HETATM   20  O   UNL     1      -7.399  21.326  67.518  1.00  0.00    -0.452 OA 
HETATM   21  O   UNL     1      -5.241  20.415  66.273  1.00  0.00    -0.162 OA 
HETATM   22  O   UNL     1      -7.467  20.134  65.284  1.00  0.00    -0.272 OA 
HETATM   23  P   UNL     1      -6.675  20.312  66.674  1.00  0.00    -0.251 P  
ENDBRANCH  18  19
ENDBRANCH  13  18
ENDBRANCH   9  11
BRANCH   8  24
HETATM   24  C   UNL     1      -7.517  10.799  65.449  1.00  0.00     0.053 A  
HETATM   25  C   UNL     1      -6.120  11.001  65.373  1.00  0.00     0.152 A  
HETATM   26  C   UNL     1      -5.304  10.397  64.407  1.00  0.00    -0.143 A  
HETATM   27  C   UNL     1      -9.532   9.593  64.324  1.00  0.00    -0.089 C  
HETATM   28  C   UNL     1      -8.063   9.913  64.471  1.00  0.00    -0.149 A  
HETATM   29  C   UNL     1      -5.851   9.509  63.501  1.00  0.00    -0.092 A  
HETATM   30  C   UNL     1      -7.214   9.257  63.543  1.00  0.00    -0.094 A  
ENDBRANCH   8  24
ENDBRANCH   2   5
BRANCH   3  31
HETATM   31  C   UNL     1     -10.067   7.211  67.922  1.00  0.00    -0.211 C  
HETATM   32  C   UNL     1      -9.389   6.701  66.611  1.00  0.00    -0.192 C  
HETATM   33  C   UNL     1     -11.526   6.705  67.803  1.00  0.00     0.172 C  
BRANCH  31  34
HETATM   34  C   UNL     1      -9.269   6.592  69.096  1.00  0.00    -0.136 A  
HETATM   35  F   UNL     1     -10.174   6.857  73.342  1.00  0.00    -0.199 F  
HETATM   36  C   UNL     1      -7.487   5.119  69.934  1.00  0.00    -0.061 A  
HETATM   37  C   UNL     1      -6.404   4.100  69.660  1.00  0.00    -0.028 C  
HETATM   38  F   UNL     1      -8.706   8.424  72.983  1.00  0.00    -0.252 F  
HETATM   39  C   UNL     1      -8.273   5.622  68.885  1.00  0.00    -0.100 A  
HETATM   40  C   UNL     1      -7.703   5.594  71.234  1.00  0.00    -0.109 A  
HETATM   41  F   UNL     1      -6.592   2.946  70.357  1.00  0.00    -0.029 F  
HETATM   42  F   UNL     1      -5.167   4.551  69.995  1.00  0.00     0.000 F  
HETATM   43  F   UNL     1      -6.330   3.734  68.350  1.00  0.00    -0.032 F  
HETATM   44  F   UNL     1      -8.081   6.517  73.816  1.00  0.00    -0.103 F  
HETATM   45  C   UNL     1      -8.693   6.552  71.491  1.00  0.00    -0.132 A  
HETATM   46  C   UNL     1      -9.473   7.035  70.420  1.00  0.00    -0.162 A  
HETATM   47  C   UNL     1      -8.909   7.083  72.894  1.00  0.00    -0.125 C  
ENDBRANCH  31  34
ENDBRANCH   3  31
TORSDOF 7
ENDMDL
MODEL       90
REMARK 921   NORMALIZED FREE ENERGY PREDICTED BY IDOCK:   -4.95 KCAL/MOL
REMARK 922        TOTAL FREE ENERGY PREDICTED BY IDOCK:   -7.62 KCAL/MOL
REMARK 923 INTER-LIGAND FREE ENERGY PREDICTED BY IDOCK:   -7.53 KCAL/MOL
REMARK 924 INTRA-LIGAND FREE ENERGY PREDICTED BY IDOCK:   -0.09 KCAL/MOL
REMARK 927      BINDING AFFINITY PREDICTED BY RF-SCORE:    0.00 PKD
ROOT
HETATM    1  C   UNL     1     -10.097  11.062  69.117  1.00  0.00    -0.146 C  
HETATM    2  N   UNL     1      -8.695  10.684  68.901  1.00  0.00    -0.157 N  
HETATM    3  C   UNL     1      -7.690  11.541  68.433  1.00  0.00    -0.129 C  
HETATM    4  O   UNL     1      -6.608  11.070  68.055  1.00  0.00    -0.061 OA 
ENDROOT
BRANCH   2   5
HETATM    5  C   UNL     1      -8.522   9.270  68.687  1.00  0.00    -0.123 A  
HETATM    6  C   UNL     1      -7.918   7.321  67.448  1.00  0.00    -0.112 A  
HETATM    7  C   UNL     1      -8.341   8.459  69.813  1.00  0.00    -0.125 A  
HETATM    8  C   UNL     1      -8.363   8.674  67.421  1.00  0.00    -0.116 A  
HETATM    9  C   UNL     1      -7.756   6.559  68.617  1.00  0.00    -0.102 A  
HETATM   10  N   UNL     1      -7.989   7.148  69.801  1.00  0.00    -0.121 NA 
BRANCH   9  11
HETATM   11  N   UNL     1      -7.361   5.234  68.612  1.00  0.00    -0.069 NA 
HETATM   12  C   UNL     1      -6.177   4.799  69.388  1.00  0.00    -0.027 C  
HETATM   13  N   UNL     1      -7.294   2.500  69.718  1.00  0.00    -0.043 N  
HETATM   14  C   UNL     1      -6.376   1.623  68.899  1.00  0.00    -0.025 C  
HETATM   15  C   UNL     1      -8.058   4.151  67.916  1.00  0.00    -0.090 C  
HETATM   16  C   UNL     1      -6.532   3.665  70.391  1.00  0.00    -0.032 C  
HETATM   17  C   UNL     1      -8.474   3.051  68.907  1.00  0.00    -0.067 C  
BRANCH  13  18
HETATM   18  C   UNL     1      -7.930   1.627  70.810  1.00  0.00    -0.038 C  
BRANCH  18  19
HETATM   19  O   UNL     1      -7.842   2.134  72.107  1.00  0.00    -0.047 OA 
HETATM   20  O   UNL     1     -10.347   1.712  71.883  1.00  0.00    -0.159 OA 
HETATM   21  O   UNL     1      -9.288   2.678  74.115  1.00  0.00    -0.080 OA 
HETATM   22  O   UNL     1      -9.344   4.029  72.069  1.00  0.00    -0.119 OA 
HETATM   23  P   UNL     1      -9.322   2.522  72.631  1.00  0.00    -0.094 P  
ENDBRANCH  18  19
ENDBRANCH  13  18
ENDBRANCH   9  11
BRANCH   8  24
HETATM   24  C   UNL     1      -8.573   9.359  66.088  1.00  0.00    -0.147 A  
HETATM   25  C   UNL     1      -9.842   9.883  65.751  1.00  0.00    -0.356 A  
HETATM   26  C   UNL     1     -10.111  10.532  64.539  1.00  0.00    -0.402 A  
HETATM   27  C   UNL     1      -6.140   9.021  65.224  1.00  0.00    -0.059 C  
HETATM   28  C   UNL     1      -7.552   9.545  65.106  1.00  0.00    -0.112 A  
HETATM   29  C   UNL     1      -9.095  10.738  63.627  1.00  0.00    -0.224 A  
HETATM   30  C   UNL     1      -7.824  10.264  63.915  1.00  0.00    -0.115 A  
ENDBRANCH   8  24
ENDBRANCH   2   5
BRANCH   3  31
HETATM   31  C   UNL     1      -7.909  13.098  68.373  1.00  0.00    -0.135 C  
HETATM   32  C   UNL     1      -7.188  13.648  67.102  1.00  0.00     0.187 C  
HETATM   33  C   UNL     1      -7.185  13.808  69.544  1.00  0.00     0.194 C  
BRANCH  31  34
HETATM   34  C   UNL     1      -9.404  13.471  68.224  1.00  0.00    -0.205 A  
HETATM   35  F   UNL     1     -12.007  12.672  64.832  1.00  0.00    -0.362 F  
HETATM   36  C   UNL     1     -11.507  14.313  69.181  1.00  0.00    -0.330 A  
HETATM   37  C   UNL     1     -12.292  14.790  70.382  1.00  0.00    -0.344 C  
HETATM   38  F   UNL     1     -11.321  14.718  64.543  1.00  0.00    -0.370 F  
HETATM   39  C   UNL     1     -10.174  13.892  69.322  1.00  0.00     0.119 A  
HETATM   40  C   UNL     1     -12.091  14.310  67.907  1.00  0.00    -0.296 A  
HETATM   41  F   UNL     1     -13.419  14.056  70.587  1.00  0.00    -0.280 F  
HETATM   42  F   UNL     1     -12.694  16.082  70.262  1.00  0.00    -0.369 F  
HETATM   43  F   UNL     1     -11.587  14.721  71.545  1.00  0.00    -0.360 F  
HETATM   44  F   UNL     1     -13.278  14.338  65.407  1.00  0.00    -0.505 F  
HETATM   45  C   UNL     1     -11.362  13.886  66.787  1.00  0.00    -0.347 A  
HETATM   46  C   UNL     1     -10.028  13.462  66.959  1.00  0.00    -0.246 A  
HETATM   47  C   UNL     1     -11.986  13.905  65.407  1.00  0.00    -0.381 C  
ENDBRANCH  31  34
ENDBRANCH   3  31
TORSDOF 7
ENDMDL
MODEL       91
REMARK 921   NORMALIZED FREE ENERGY PREDICTED BY IDOCK:   -4.75 KCAL/MOL
REMARK 922        TOTAL FREE ENERGY PREDICTED BY IDOCK:   -7.34 KCAL/MOL
REMARK 923 INTER-LIGAND FREE ENERGY PREDICTED BY IDOCK:   -7.37 KCAL/MOL
REMARK 924 INTRA-LIGAND FREE ENERGY PREDICTED BY IDOCK:    0.03 KCAL/MOL
REMARK 927      BINDING AFFINITY PREDICTED BY RF-SCORE:    0.00 PKD
ROOT
HETATM    1  C   UNL     1      -5.192   9.779  70.147  1.00  0.00    -0.036 C  
HETATM    2  N   UNL     1      -6.618  10.093  70.286  1.00  0.00    -0.123 N  
HETATM    3  C   UNL     1      -7.614   9.182  70.664  1.00  0.00    -0.133 C  
HETATM    4  O   UNL     1      -8.807   9.479  70.516  1.00  0.00    -0.233 OA 
ENDROOT
BRANCH   2   5
HETATM    5  C   UNL     1      -7.020  11.237  69.507  1.00  0.00    -0.089 A  
HETATM    6  C   UNL     1      -8.267  12.390  67.830  1.00  0.00    -0.163 A  
HETATM    7  C   UNL     1      -6.852  12.504  70.077  1.00  0.00     0.534 A  
HETATM    8  C   UNL     1      -7.714  11.158  68.285  1.00  0.00    -0.116 A  
HETATM    9  C   UNL     1      -8.059  13.633  68.450  1.00  0.00    -0.146 A  
HETATM   10  N   UNL     1      -7.329  13.671  69.576  1.00  0.00     0.215 NA 
BRANCH   9  11
HETATM   11  N   UNL     1      -8.574  14.821  67.964  1.00  0.00    -0.160 NA 
HETATM   12  C   UNL     1      -8.055  15.408  66.707  1.00  0.00    -0.177 C  
HETATM   13  N   UNL     1     -10.390  16.405  66.262  1.00  0.00    -0.323 N  
HETATM   14  C   UNL     1     -10.097  17.880  66.410  1.00  0.00    -0.369 C  
HETATM   15  C   UNL     1      -9.671  15.575  68.575  1.00  0.00    -0.203 C  
HETATM   16  C   UNL     1      -9.189  15.634  65.667  1.00  0.00    -0.078 C  
HETATM   17  C   UNL     1     -10.828  15.749  67.577  1.00  0.00    -0.315 C  
BRANCH  13  18
HETATM   18  C   UNL     1     -11.592  16.255  65.317  1.00  0.00     0.439 C  
BRANCH  18  19
HETATM   19  O   UNL     1     -11.400  15.392  64.239  1.00  0.00    -0.265 OA 
HETATM   20  O   UNL     1     -13.507  14.431  65.306  1.00  0.00    -0.483 OA 
HETATM   21  O   UNL     1     -12.440  13.368  63.123  1.00  0.00    -0.710 OA 
HETATM   22  O   UNL     1     -11.288  13.211  65.282  1.00  0.00    -0.291 OA 
HETATM   23  P   UNL     1     -12.336  14.085  64.428  1.00  0.00    -0.222 P  
ENDBRANCH  18  19
ENDBRANCH  13  18
ENDBRANCH   9  11
BRANCH   8  24
HETATM   24  C   UNL     1      -7.950   9.898  67.480  1.00  0.00    -0.106 A  
HETATM   25  C   UNL     1      -6.856   9.191  66.932  1.00  0.00    -0.080 A  
HETATM   26  C   UNL     1      -6.994   8.018  66.180  1.00  0.00    -0.058 A  
HETATM   27  C   UNL     1     -10.547   9.938  67.669  1.00  0.00    -0.325 C  
HETATM   28  C   UNL     1      -9.236   9.328  67.231  1.00  0.00    -0.149 A  
HETATM   29  C   UNL     1      -8.245   7.463  65.992  1.00  0.00    -0.130 A  
HETATM   30  C   UNL     1      -9.353   8.103  66.526  1.00  0.00    -0.262 A  
ENDBRANCH   8  24
ENDBRANCH   2   5
BRANCH   3  31
HETATM   31  C   UNL     1      -7.245   7.779  71.273  1.00  0.00    -0.062 C  
HETATM   32  C   UNL     1      -6.688   7.998  72.715  1.00  0.00    -0.090 C  
HETATM   33  C   UNL     1      -6.058   7.136  70.513  1.00  0.00    -0.027 C  
BRANCH  31  34
HETATM   34  C   UNL     1      -8.484   6.862  71.417  1.00  0.00    -0.119 A  
HETATM   35  F   UNL     1     -12.668   7.986  71.027  1.00  0.00    -0.285 F  
HETATM   36  C   UNL     1      -9.479   4.624  71.647  1.00  0.00    -0.210 A  
HETATM   37  C   UNL     1      -9.308   3.122  71.687  1.00  0.00    -0.131 C  
HETATM   38  F   UNL     1     -12.273   8.028  73.168  1.00  0.00    -0.246 F  
HETATM   39  C   UNL     1      -8.371   5.461  71.431  1.00  0.00    -0.122 A  
HETATM   40  C   UNL     1     -10.738   5.202  71.850  1.00  0.00    -0.219 A  
HETATM   41  F   UNL     1     -10.066   2.491  70.749  1.00  0.00    -0.144 F  
HETATM   42  F   UNL     1      -9.664   2.590  72.886  1.00  0.00    -0.124 F  
HETATM   43  F   UNL     1      -8.027   2.721  71.461  1.00  0.00    -0.051 F  
HETATM   44  F   UNL     1     -13.243   6.301  72.273  1.00  0.00    -0.268 F  
HETATM   45  C   UNL     1     -10.898   6.595  71.831  1.00  0.00    -0.267 A  
HETATM   46  C   UNL     1      -9.770   7.410  71.606  1.00  0.00    -0.169 A  
HETATM   47  C   UNL     1     -12.257   7.220  72.074  1.00  0.00    -0.277 C  
ENDBRANCH  31  34
ENDBRANCH   3  31
TORSDOF 7
ENDMDL
MODEL       92
REMARK 921   NORMALIZED FREE ENERGY PREDICTED BY IDOCK:   -4.64 KCAL/MOL
REMARK 922        TOTAL FREE ENERGY PREDICTED BY IDOCK:   -7.18 KCAL/MOL
REMARK 923 INTER-LIGAND FREE ENERGY PREDICTED BY IDOCK:   -7.18 KCAL/MOL
REMARK 924 INTRA-LIGAND FREE ENERGY PREDICTED BY IDOCK:   -0.00 KCAL/MOL
REMARK 927      BINDING AFFINITY PREDICTED BY RF-SCORE:    0.00 PKD
ROOT
HETATM    1  C   UNL     1      -7.376   8.487  68.475  1.00  0.00    -0.092 C  
HETATM    2  N   UNL     1      -8.736   9.025  68.359  1.00  0.00    -0.130 N  
HETATM    3  C   UNL     1      -9.888   8.267  68.108  1.00  0.00    -0.172 C  
HETATM    4  O   UNL     1     -10.941   8.835  67.787  1.00  0.00    -0.093 OA 
ENDROOT
BRANCH   2   5
HETATM    5  C   UNL     1      -8.758  10.417  67.987  1.00  0.00    -0.123 A  
HETATM    6  C   UNL     1      -8.843  12.256  66.466  1.00  0.00    -0.128 A  
HETATM    7  C   UNL     1      -9.236  11.335  68.929  1.00  0.00    -0.064 A  
HETATM    8  C   UNL     1      -8.485  10.895  66.691  1.00  0.00    -0.151 A  
HETATM    9  C   UNL     1      -9.318  13.128  67.460  1.00  0.00    -0.207 A  
HETATM   10  N   UNL     1      -9.496  12.647  68.701  1.00  0.00    -0.070 NA 
BRANCH   9  11
HETATM   11  N   UNL     1      -9.620  14.457  67.224  1.00  0.00    -0.222 NA 
HETATM   12  C   UNL     1     -10.329  15.260  68.246  1.00  0.00    -0.234 C  
HETATM   13  N   UNL     1      -9.086  17.353  67.398  1.00  0.00    -0.234 N  
HETATM   14  C   UNL     1     -10.231  18.137  66.802  1.00  0.00    -0.372 C  
HETATM   15  C   UNL     1      -9.252  15.202  66.018  1.00  0.00    -0.238 C  
HETATM   16  C   UNL     1      -9.526  16.534  68.634  1.00  0.00    -0.243 C  
HETATM   17  C   UNL     1      -8.401  16.430  66.381  1.00  0.00    -0.328 C  
BRANCH  13  18
HETATM   18  C   UNL     1      -8.002  18.353  67.827  1.00  0.00    -0.249 C  
BRANCH  18  19
HETATM   19  O   UNL     1      -6.889  18.425  66.989  1.00  0.00    -0.187 OA 
HETATM   20  O   UNL     1      -7.549  20.880  67.189  1.00  0.00    -0.327 OA 
HETATM   21  O   UNL     1      -5.456  20.110  65.753  1.00  0.00    -0.164 OA 
HETATM   22  O   UNL     1      -7.736  19.568  65.032  1.00  0.00    -0.057 OA 
HETATM   23  P   UNL     1      -6.822  19.894  66.315  1.00  0.00    -0.254 P  
ENDBRANCH  18  19
ENDBRANCH  13  18
ENDBRANCH   9  11
BRANCH   8  24
HETATM   24  C   UNL     1      -7.910  10.082  65.551  1.00  0.00    -0.134 A  
HETATM   25  C   UNL     1      -8.769   9.372  64.681  1.00  0.00    -0.229 A  
HETATM   26  C   UNL     1      -8.312   8.602  63.605  1.00  0.00    -0.115 A  
HETATM   27  C   UNL     1      -5.414  10.603  66.079  1.00  0.00    -0.106 C  
HETATM   28  C   UNL     1      -6.516   9.979  65.256  1.00  0.00    -0.112 A  
HETATM   29  C   UNL     1      -6.962   8.556  63.314  1.00  0.00    -0.089 A  
HETATM   30  C   UNL     1      -6.075   9.251  64.122  1.00  0.00    -0.077 A  
ENDBRANCH   8  24
ENDBRANCH   2   5
BRANCH   3  31
HETATM   31  C   UNL     1      -9.871   6.698  68.223  1.00  0.00    -0.137 C  
HETATM   32  C   UNL     1      -8.865   6.137  67.169  1.00  0.00    -0.108 C  
HETATM   33  C   UNL     1     -11.230   6.093  67.793  1.00  0.00    -0.131 C  
BRANCH  31  34
HETATM   34  C   UNL     1      -9.367   6.220  69.606  1.00  0.00    -0.150 A  
HETATM   35  F   UNL     1     -11.049   3.074  72.095  1.00  0.00     0.173 F  
HETATM   36  C   UNL     1      -7.676   6.234  71.393  1.00  0.00    -0.100 A  
HETATM   37  C   UNL     1      -6.325   6.682  71.902  1.00  0.00    -0.046 C  
HETATM   38  F   UNL     1     -11.891   4.921  72.881  1.00  0.00    -0.323 F  
HETATM   39  C   UNL     1      -8.106   6.593  70.104  1.00  0.00    -0.124 A  
HETATM   40  C   UNL     1      -8.527   5.477  72.208  1.00  0.00    -0.122 A  
HETATM   41  F   UNL     1      -5.530   5.633  72.249  1.00  0.00    -0.018 F  
HETATM   42  F   UNL     1      -6.419   7.470  73.005  1.00  0.00    -0.058 F  
HETATM   43  F   UNL     1      -5.616   7.398  70.986  1.00  0.00    -0.029 F  
HETATM   44  F   UNL     1     -10.184   3.999  73.861  1.00  0.00    -0.149 F  
HETATM   45  C   UNL     1      -9.789   5.075  71.747  1.00  0.00    -0.234 A  
HETATM   46  C   UNL     1     -10.192   5.443  70.446  1.00  0.00    -0.332 A  
HETATM   47  C   UNL     1     -10.718   4.277  72.638  1.00  0.00    -0.093 C  
ENDBRANCH  31  34
ENDBRANCH   3  31
TORSDOF 7
ENDMDL
MODEL       93
REMARK 921   NORMALIZED FREE ENERGY PREDICTED BY IDOCK:   -4.55 KCAL/MOL
REMARK 922        TOTAL FREE ENERGY PREDICTED BY IDOCK:   -7.06 KCAL/MOL
REMARK 923 INTER-LIGAND FREE ENERGY PREDICTED BY IDOCK:   -7.18 KCAL/MOL
REMARK 924 INTRA-LIGAND FREE ENERGY PREDICTED BY IDOCK:    0.12 KCAL/MOL
REMARK 927      BINDING AFFINITY PREDICTED BY RF-SCORE:    0.00 PKD
ROOT
HETATM    1  C   UNL     1     -10.234  11.468  68.025  1.00  0.00    -0.191 C  
HETATM    2  N   UNL     1      -9.233  10.929  68.953  1.00  0.00    -0.181 N  
HETATM    3  C   UNL     1      -7.866  11.238  68.937  1.00  0.00    -0.114 C  
HETATM    4  O   UNL     1      -7.072  10.552  69.595  1.00  0.00    -0.111 OA 
ENDROOT
BRANCH   2   5
HETATM    5  C   UNL     1      -9.627   9.671  69.535  1.00  0.00    -0.198 A  
HETATM    6  C   UNL     1      -9.504   7.314  69.897  1.00  0.00    -0.157 A  
HETATM    7  C   UNL     1     -10.276   9.702  70.774  1.00  0.00    -0.260 A  
HETATM    8  C   UNL     1      -9.262   8.411  69.021  1.00  0.00    -0.147 A  
HETATM    9  C   UNL     1     -10.164   7.413  71.133  1.00  0.00    -0.193 A  
HETATM   10  N   UNL     1     -10.559   8.627  71.551  1.00  0.00    -0.256 NA 
BRANCH   9  11
HETATM   11  N   UNL     1     -10.422   6.325  71.946  1.00  0.00    -0.205 NA 
HETATM   12  C   UNL     1     -10.848   5.033  71.360  1.00  0.00     0.060 C  
HETATM   13  N   UNL     1      -9.675   3.817  73.307  1.00  0.00    -0.112 N  
HETATM   14  C   UNL     1     -10.867   3.236  74.033  1.00  0.00    -0.189 C  
HETATM   15  C   UNL     1     -10.265   6.306  73.401  1.00  0.00    -0.222 C  
HETATM   16  C   UNL     1      -9.901   3.872  71.778  1.00  0.00    -0.179 C  
HETATM   17  C   UNL     1      -9.279   5.205  73.825  1.00  0.00    -0.125 C  
BRANCH  13  18
HETATM   18  C   UNL     1      -8.463   2.918  73.596  1.00  0.00    -0.073 C  
BRANCH  18  19
HETATM   19  O   UNL     1      -7.719   2.541  72.479  1.00  0.00    -0.050 OA 
HETATM   20  O   UNL     1      -5.990   2.350  74.344  1.00  0.00    -0.004 OA 
HETATM   21  O   UNL     1      -5.395   1.772  71.824  1.00  0.00    -0.003 OA 
HETATM   22  O   UNL     1      -5.855   4.083  72.502  1.00  0.00    -0.007 OA 
HETATM   23  P   UNL     1      -6.146   2.541  72.859  1.00  0.00    -0.009 P  
ENDBRANCH  18  19
ENDBRANCH  13  18
ENDBRANCH   9  11
BRANCH   8  24
HETATM   24  C   UNL     1      -8.609   8.159  67.679  1.00  0.00    -0.130 A  
HETATM   25  C   UNL     1      -9.352   8.317  66.487  1.00  0.00    -0.263 A  
HETATM   26  C   UNL     1      -8.817   8.104  65.210  1.00  0.00    -0.035 A  
HETATM   27  C   UNL     1      -6.279   7.493  68.632  1.00  0.00    -0.032 C  
HETATM   28  C   UNL     1      -7.245   7.774  67.504  1.00  0.00    -0.091 A  
HETATM   29  C   UNL     1      -7.483   7.777  65.068  1.00  0.00    -0.089 A  
HETATM   30  C   UNL     1      -6.700   7.630  66.203  1.00  0.00    -0.053 A  
ENDBRANCH   8  24
ENDBRANCH   2   5
BRANCH   3  31
HETATM   31  C   UNL     1      -7.313  12.444  68.091  1.00  0.00    -0.111 C  
HETATM   32  C   UNL     1      -6.722  11.883  66.759  1.00  0.00    -0.009 C  
HETATM   33  C   UNL     1      -6.095  13.101  68.786  1.00  0.00    -0.079 C  
BRANCH  31  34
HETATM   34  C   UNL     1      -8.433  13.435  67.689  1.00  0.00    -0.187 A  
HETATM   35  F   UNL     1      -9.357  17.269  69.525  1.00  0.00    -0.053 F  
HETATM   36  C   UNL     1     -10.202  14.156  66.140  1.00  0.00    -0.313 A  
HETATM   37  C   UNL     1     -10.945  13.971  64.836  1.00  0.00    -0.392 C  
HETATM   38  F   UNL     1     -10.740  15.859  70.443  1.00  0.00    -0.282 F  
HETATM   39  C   UNL     1      -9.128  13.313  66.474  1.00  0.00    -0.130 A  
HETATM   40  C   UNL     1     -10.590  15.154  67.044  1.00  0.00    -0.300 A  
HETATM   41  F   UNL     1     -10.911  15.088  64.059  1.00  0.00    -0.068 F  
HETATM   42  F   UNL     1     -12.258  13.675  65.022  1.00  0.00    -0.360 F  
HETATM   43  F   UNL     1     -10.438  12.969  64.066  1.00  0.00    -0.389 F  
HETATM   44  F   UNL     1     -11.404  17.126  68.807  1.00  0.00    -0.193 F  
HETATM   45  C   UNL     1      -9.916  15.318  68.262  1.00  0.00    -0.222 A  
HETATM   46  C   UNL     1      -8.837  14.462  68.568  1.00  0.00    -0.182 A  
HETATM   47  C   UNL     1     -10.352  16.381  69.249  1.00  0.00    -0.292 C  
ENDBRANCH  31  34
ENDBRANCH   3  31
TORSDOF 7
ENDMDL
MODEL       94
REMARK 921   NORMALIZED FREE ENERGY PREDICTED BY IDOCK:   -4.54 KCAL/MOL
REMARK 922        TOTAL FREE ENERGY PREDICTED BY IDOCK:   -7.04 KCAL/MOL
REMARK 923 INTER-LIGAND FREE ENERGY PREDICTED BY IDOCK:   -7.11 KCAL/MOL
REMARK 924 INTRA-LIGAND FREE ENERGY PREDICTED BY IDOCK:    0.08 KCAL/MOL
REMARK 927      BINDING AFFINITY PREDICTED BY RF-SCORE:    0.00 PKD
ROOT
HETATM    1  C   UNL     1      -5.844   9.256  69.482  1.00  0.00    -0.033 C  
HETATM    2  N   UNL     1      -6.495   9.649  68.227  1.00  0.00    -0.056 N  
HETATM    3  C   UNL     1      -6.519   8.883  67.054  1.00  0.00    -0.061 C  
HETATM    4  O   UNL     1      -6.878   9.401  65.988  1.00  0.00    -0.085 OA 
ENDROOT
BRANCH   2   5
HETATM    5  C   UNL     1      -6.647  11.076  68.097  1.00  0.00    -0.058 A  
HETATM    6  C   UNL     1      -7.684  13.192  68.483  1.00  0.00    -0.117 A  
HETATM    7  C   UNL     1      -5.503  11.828  67.809  1.00  0.00    -0.057 A  
HETATM    8  C   UNL     1      -7.831  11.777  68.398  1.00  0.00    -0.141 A  
HETATM    9  C   UNL     1      -6.503  13.889  68.178  1.00  0.00    -0.125 A  
HETATM   10  N   UNL     1      -5.417  13.182  67.825  1.00  0.00    -0.175 NA 
BRANCH   9  11
HETATM   11  N   UNL     1      -6.399  15.267  68.229  1.00  0.00    -0.105 NA 
HETATM   12  C   UNL     1      -5.757  16.014  67.124  1.00  0.00     0.075 C  
HETATM   13  N   UNL     1      -7.318  18.004  67.623  1.00  0.00    -0.206 N  
HETATM   14  C   UNL     1      -6.323  19.019  68.135  1.00  0.00    -0.218 C  
HETATM   15  C   UNL     1      -6.928  16.111  69.303  1.00  0.00    -0.210 C  
HETATM   16  C   UNL     1      -6.707  17.094  66.532  1.00  0.00    -0.255 C  
HETATM   17  C   UNL     1      -7.920  17.142  68.740  1.00  0.00    -0.255 C  
BRANCH  13  18
HETATM   18  C   UNL     1      -8.506  18.769  67.021  1.00  0.00    -0.281 C  
BRANCH  18  19
HETATM   19  O   UNL     1      -9.062  18.203  65.875  1.00  0.00    -0.509 OA 
HETATM   20  O   UNL     1     -11.144  18.872  67.187  1.00  0.00    -0.321 OA 
HETATM   21  O   UNL     1     -11.307  17.717  64.805  1.00  0.00    -0.670 OA 
HETATM   22  O   UNL     1     -10.497  16.463  66.750  1.00  0.00    -0.292 OA 
HETATM   23  P   UNL     1     -10.639  17.937  66.121  1.00  0.00     0.036 P  
ENDBRANCH  18  19
ENDBRANCH  13  18
ENDBRANCH   9  11
BRANCH   8  24
HETATM   24  C   UNL     1      -9.181  11.154  68.678  1.00  0.00    -0.173 A  
HETATM   25  C   UNL     1      -9.293  10.080  69.591  1.00  0.00    -0.242 A  
HETATM   26  C   UNL     1     -10.506   9.455  69.903  1.00  0.00    -0.257 A  
HETATM   27  C   UNL     1     -10.525  12.673  67.045  1.00  0.00    -0.244 C  
HETATM   28  C   UNL     1     -10.408  11.585  68.086  1.00  0.00    -0.211 A  
HETATM   29  C   UNL     1     -11.684   9.923  69.352  1.00  0.00     0.073 A  
HETATM   30  C   UNL     1     -11.637  10.987  68.465  1.00  0.00    -0.380 A  
ENDBRANCH   8  24
ENDBRANCH   2   5
BRANCH   3  31
HETATM   31  C   UNL     1      -6.094   7.368  67.062  1.00  0.00    -0.046 C  
HETATM   32  C   UNL     1      -5.228   7.105  68.334  1.00  0.00    -0.020 C  
HETATM   33  C   UNL     1      -5.131   7.053  65.889  1.00  0.00    -0.023 C  
BRANCH  31  34
HETATM   34  C   UNL     1      -7.314   6.420  67.160  1.00  0.00    -0.083 A  
HETATM   35  F   UNL     1      -7.276   2.090  67.571  1.00  0.00    -0.050 F  
HETATM   36  C   UNL     1      -9.735   6.063  67.405  1.00  0.00    -0.124 A  
HETATM   37  C   UNL     1     -11.118   6.630  67.634  1.00  0.00    -0.271 C  
HETATM   38  F   UNL     1      -7.547   2.449  65.441  1.00  0.00    -0.066 F  
HETATM   39  C   UNL     1      -8.611   6.906  67.399  1.00  0.00    -0.121 A  
HETATM   40  C   UNL     1      -9.559   4.693  67.171  1.00  0.00    -0.197 A  
HETATM   41  F   UNL     1     -11.731   6.075  68.715  1.00  0.00    -0.280 F  
HETATM   42  F   UNL     1     -11.947   6.425  66.577  1.00  0.00     0.262 F  
HETATM   43  F   UNL     1     -11.117   7.973  67.858  1.00  0.00    -0.147 F  
HETATM   44  F   UNL     1      -9.261   1.983  66.693  1.00  0.00    -0.137 F  
HETATM   45  C   UNL     1      -8.281   4.165  66.940  1.00  0.00    -0.101 A  
HETATM   46  C   UNL     1      -7.170   5.033  66.946  1.00  0.00    -0.077 A  
HETATM   47  C   UNL     1      -8.095   2.687  66.662  1.00  0.00    -0.082 C  
ENDBRANCH  31  34
ENDBRANCH   3  31
TORSDOF 7
ENDMDL
MODEL       95
REMARK 921   NORMALIZED FREE ENERGY PREDICTED BY IDOCK:   -4.48 KCAL/MOL
REMARK 922        TOTAL FREE ENERGY PREDICTED BY IDOCK:   -6.96 KCAL/MOL
REMARK 923 INTER-LIGAND FREE ENERGY PREDICTED BY IDOCK:   -5.57 KCAL/MOL
REMARK 924 INTRA-LIGAND FREE ENERGY PREDICTED BY IDOCK:   -1.39 KCAL/MOL
REMARK 927      BINDING AFFINITY PREDICTED BY RF-SCORE:    0.00 PKD
ROOT
HETATM    1  C   UNL     1     -10.893  11.737  68.790  1.00  0.00    -0.227 C  
HETATM    2  N   UNL     1     -10.015  12.212  67.715  1.00  0.00    -0.193 N  
HETATM    3  C   UNL     1     -10.292  13.286  66.859  1.00  0.00    -0.255 C  
HETATM    4  O   UNL     1      -9.609  13.452  65.839  1.00  0.00    -0.221 OA 
ENDROOT
BRANCH   2   5
HETATM    5  C   UNL     1      -9.109  11.196  67.241  1.00  0.00    -0.150 A  
HETATM    6  C   UNL     1      -7.143   9.843  67.300  1.00  0.00    -0.085 A  
HETATM    7  C   UNL     1      -9.636  10.177  66.439  1.00  0.00    -0.191 A  
HETATM    8  C   UNL     1      -7.770  11.071  67.659  1.00  0.00    -0.112 A  
HETATM    9  C   UNL     1      -7.729   8.857  66.488  1.00  0.00    -0.099 A  
HETATM   10  N   UNL     1      -8.984   9.052  66.052  1.00  0.00    -0.172 NA 
BRANCH   9  11
HETATM   11  N   UNL     1      -7.082   7.692  66.121  1.00  0.00    -0.068 NA 
HETATM   12  C   UNL     1      -5.763   7.350  66.701  1.00  0.00    -0.024 C  
HETATM   13  N   UNL     1      -6.363   4.853  66.476  1.00  0.00    -0.039 N  
HETATM   14  C   UNL     1      -5.377   4.423  65.415  1.00  0.00    -0.009 C  
HETATM   15  C   UNL     1      -7.617   6.686  65.202  1.00  0.00    -0.090 C  
HETATM   16  C   UNL     1      -5.782   5.956  67.392  1.00  0.00    -0.016 C  
HETATM   17  C   UNL     1      -7.704   5.315  65.893  1.00  0.00    -0.091 C  
BRANCH  13  18
HETATM   18  C   UNL     1      -6.700   3.624  67.334  1.00  0.00    -0.042 C  
BRANCH  18  19
HETATM   19  O   UNL     1      -6.067   3.571  68.576  1.00  0.00    -0.026 OA 
HETATM   20  O   UNL     1      -7.885   1.803  68.843  1.00  0.00    -0.046 OA 
HETATM   21  O   UNL     1      -6.164   2.339  70.788  1.00  0.00    -0.018 OA 
HETATM   22  O   UNL     1      -7.868   3.978  70.139  1.00  0.00    -0.048 OA 
HETATM   23  P   UNL     1      -6.990   2.737  69.611  1.00  0.00    -0.033 P  
ENDBRANCH  18  19
ENDBRANCH  13  18
ENDBRANCH   9  11
BRANCH   8  24
HETATM   24  C   UNL     1      -7.000  12.086  68.475  1.00  0.00    -0.090 A  
HETATM   25  C   UNL     1      -6.530  13.275  67.871  1.00  0.00    -0.147 A  
HETATM   26  C   UNL     1      -5.814  14.261  68.561  1.00  0.00    -0.094 A  
HETATM   27  C   UNL     1      -7.059  10.742  70.705  1.00  0.00     0.890 C  
HETATM   28  C   UNL     1      -6.707  11.949  69.867  1.00  0.00     0.119 A  
HETATM   29  C   UNL     1      -5.585  14.124  69.916  1.00  0.00    -0.105 A  
HETATM   30  C   UNL     1      -6.041  12.987  70.566  1.00  0.00     0.000 A  
ENDBRANCH   8  24
ENDBRANCH   2   5
BRANCH   3  31
HETATM   31  C   UNL     1     -11.462  14.292  67.168  1.00  0.00    -0.377 C  
HETATM   32  C   UNL     1     -12.660  13.487  67.764  1.00  0.00     0.556 C  
HETATM   33  C   UNL     1     -12.037  14.896  65.863  1.00  0.00     0.017 C  
BRANCH  31  34
HETATM   34  C   UNL     1     -11.064  15.339  68.236  1.00  0.00    -0.301 A  
HETATM   35  F   UNL     1     -11.494  15.012  72.553  1.00  0.00    -0.471 F  
HETATM   36  C   UNL     1      -9.953  17.441  68.867  1.00  0.00    -0.308 A  
HETATM   37  C   UNL     1      -9.099  18.628  68.483  1.00  0.00    -0.329 C  
HETATM   38  F   UNL     1     -13.241  16.134  71.898  1.00  0.00    -0.489 F  
HETATM   39  C   UNL     1     -10.249  16.442  67.925  1.00  0.00    -0.268 A  
HETATM   40  C   UNL     1     -10.482  17.336  70.160  1.00  0.00     0.578 A  
HETATM   41  F   UNL     1      -7.984  18.734  69.257  1.00  0.00    -0.257 F  
HETATM   42  F   UNL     1      -9.761  19.808  68.605  1.00  0.00    -0.404 F  
HETATM   43  F   UNL     1      -8.654  18.575  67.197  1.00  0.00    -0.253 F  
HETATM   44  F   UNL     1     -11.522  17.178  72.721  1.00  0.00    -0.393 F  
HETATM   45  C   UNL     1     -11.290  16.246  70.516  1.00  0.00    -0.318 A  
HETATM   46  C   UNL     1     -11.565  15.254  69.553  1.00  0.00    -0.339 A  
HETATM   47  C   UNL     1     -11.881  16.146  71.907  1.00  0.00    -0.525 C  
ENDBRANCH  31  34
ENDBRANCH   3  31
TORSDOF 7
ENDMDL
MODEL       96
REMARK 921   NORMALIZED FREE ENERGY PREDICTED BY IDOCK:   -4.45 KCAL/MOL
REMARK 922        TOTAL FREE ENERGY PREDICTED BY IDOCK:   -6.92 KCAL/MOL
REMARK 923 INTER-LIGAND FREE ENERGY PREDICTED BY IDOCK:   -6.95 KCAL/MOL
REMARK 924 INTRA-LIGAND FREE ENERGY PREDICTED BY IDOCK:    0.04 KCAL/MOL
REMARK 927      BINDING AFFINITY PREDICTED BY RF-SCORE:    0.00 PKD
ROOT
HETATM    1  C   UNL     1      -9.895  11.599  69.099  1.00  0.00     0.169 C  
HETATM    2  N   UNL     1      -8.600  10.927  69.256  1.00  0.00    -0.050 N  
HETATM    3  C   UNL     1      -7.356  11.483  68.926  1.00  0.00    -0.116 C  
HETATM    4  O   UNL     1      -6.355  10.756  68.865  1.00  0.00    -0.043 OA 
ENDROOT
BRANCH   2   5
HETATM    5  C   UNL     1      -8.710   9.491  69.263  1.00  0.00    -0.151 A  
HETATM    6  C   UNL     1      -8.334   7.282  68.439  1.00  0.00    -0.125 A  
HETATM    7  C   UNL     1      -8.929   8.861  70.494  1.00  0.00    -0.192 A  
HETATM    8  C   UNL     1      -8.453   8.671  68.147  1.00  0.00    -0.131 A  
HETATM    9  C   UNL     1      -8.569   6.711  69.701  1.00  0.00    -0.133 A  
HETATM   10  N   UNL     1      -8.882   7.524  70.722  1.00  0.00    -0.147 NA 
BRANCH   9  11
HETATM   11  N   UNL     1      -8.486   5.353  69.948  1.00  0.00    -0.102 NA 
HETATM   12  C   UNL     1      -9.664   4.479  69.747  1.00  0.00    -0.215 C  
HETATM   13  N   UNL     1      -8.070   2.547  69.137  1.00  0.00    -0.051 N  
HETATM   14  C   UNL     1      -8.290   1.622  70.311  1.00  0.00    -0.041 C  
HETATM   15  C   UNL     1      -7.274   4.646  70.368  1.00  0.00    -0.049 C  
HETATM   16  C   UNL     1      -9.357   3.317  68.759  1.00  0.00    -0.168 C  
HETATM   17  C   UNL     1      -6.920   3.536  69.364  1.00  0.00    -0.042 C  
BRANCH  13  18
HETATM   18  C   UNL     1      -7.634   1.692  67.937  1.00  0.00    -0.054 C  
BRANCH  18  19
HETATM   19  O   UNL     1      -8.334   1.924  66.753  1.00  0.00    -0.079 OA 
HETATM   20  O   UNL     1      -5.930   1.774  65.916  1.00  0.00    -0.020 OA 
HETATM   21  O   UNL     1      -7.961   2.185  64.261  1.00  0.00    -0.072 OA 
HETATM   22  O   UNL     1      -7.284   3.913  65.863  1.00  0.00    -0.069 OA 
HETATM   23  P   UNL     1      -7.289   2.328  65.585  1.00  0.00    -0.068 P  
ENDBRANCH  18  19
ENDBRANCH  13  18
ENDBRANCH   9  11
BRANCH   8  24
HETATM   24  C   UNL     1      -8.250   9.150  66.726  1.00  0.00    -0.119 A  
HETATM   25  C   UNL     1      -6.955   9.170  66.161  1.00  0.00    -0.086 A  
HETATM   26  C   UNL     1      -6.689   9.596  64.854  1.00  0.00    -0.104 A  
HETATM   27  C   UNL     1     -10.753   9.704  66.267  1.00  0.00     0.086 C  
HETATM   28  C   UNL     1      -9.302   9.587  65.863  1.00  0.00    -0.285 A  
HETATM   29  C   UNL     1      -7.730   9.970  64.026  1.00  0.00    -0.143 A  
HETATM   30  C   UNL     1      -9.025   9.950  64.521  1.00  0.00    -0.272 A  
ENDBRANCH   8  24
ENDBRANCH   2   5
BRANCH   3  31
HETATM   31  C   UNL     1      -7.204  13.020  68.626  1.00  0.00    -0.101 C  
HETATM   32  C   UNL     1      -6.081  13.205  67.559  1.00  0.00    -0.112 C  
HETATM   33  C   UNL     1      -6.665  13.779  69.864  1.00  0.00     0.078 C  
BRANCH  31  34
HETATM   34  C   UNL     1      -8.492  13.625  68.016  1.00  0.00    -0.174 A  
HETATM   35  F   UNL     1     -11.128  11.813  65.069  1.00  0.00    -0.340 F  
HETATM   36  C   UNL     1     -10.229  15.365  67.972  1.00  0.00    -0.235 A  
HETATM   37  C   UNL     1     -10.845  16.605  68.580  1.00  0.00    -0.356 C  
HETATM   38  F   UNL     1      -9.806  13.106  63.920  1.00  0.00    -0.290 F  
HETATM   39  C   UNL     1      -9.110  14.760  68.568  1.00  0.00    -0.187 A  
HETATM   40  C   UNL     1     -10.750  14.819  66.792  1.00  0.00    -0.309 A  
HETATM   41  F   UNL     1     -12.155  16.426  68.902  1.00  0.00    -0.251 F  
HETATM   42  F   UNL     1     -10.802  17.673  67.741  1.00  0.00    -0.370 F  
HETATM   43  F   UNL     1     -10.231  17.002  69.728  1.00  0.00    -0.198 F  
HETATM   44  F   UNL     1     -11.802  13.784  64.450  1.00  0.00    -0.369 F  
HETATM   45  C   UNL     1     -10.172  13.680  66.214  1.00  0.00    -0.296 A  
HETATM   46  C   UNL     1      -9.054  13.089  66.838  1.00  0.00    -0.227 A  
HETATM   47  C   UNL     1     -10.721  13.103  64.926  1.00  0.00    -0.346 C  
ENDBRANCH  31  34
ENDBRANCH   3  31
TORSDOF 7
ENDMDL
MODEL       97
REMARK 921   NORMALIZED FREE ENERGY PREDICTED BY IDOCK:   -4.45 KCAL/MOL
REMARK 922        TOTAL FREE ENERGY PREDICTED BY IDOCK:   -6.91 KCAL/MOL
REMARK 923 INTER-LIGAND FREE ENERGY PREDICTED BY IDOCK:   -8.33 KCAL/MOL
REMARK 924 INTRA-LIGAND FREE ENERGY PREDICTED BY IDOCK:    1.42 KCAL/MOL
REMARK 927      BINDING AFFINITY PREDICTED BY RF-SCORE:    0.00 PKD
ROOT
HETATM    1  C   UNL     1     -10.692  11.925  67.926  1.00  0.00    -0.204 C  
HETATM    2  N   UNL     1      -9.666  11.276  68.750  1.00  0.00    -0.199 N  
HETATM    3  C   UNL     1      -8.292  11.546  68.692  1.00  0.00    -0.123 C  
HETATM    4  O   UNL     1      -7.491  10.781  69.246  1.00  0.00    -0.118 OA 
ENDROOT
BRANCH   2   5
HETATM    5  C   UNL     1     -10.073   9.982  69.237  1.00  0.00    -0.213 A  
HETATM    6  C   UNL     1      -9.976   7.604  69.422  1.00  0.00    -0.180 A  
HETATM    7  C   UNL     1     -10.719   9.928  70.478  1.00  0.00    -0.317 A  
HETATM    8  C   UNL     1      -9.724   8.761  68.629  1.00  0.00    -0.170 A  
HETATM    9  C   UNL     1     -10.632   7.617  70.664  1.00  0.00    -0.221 A  
HETATM   10  N   UNL     1     -11.012   8.801  71.173  1.00  0.00    -0.249 NA 
BRANCH   9  11
HETATM   11  N   UNL     1     -10.900   6.475  71.394  1.00  0.00    -0.238 NA 
HETATM   12  C   UNL     1     -10.888   5.145  70.742  1.00  0.00     0.041 C  
HETATM   13  N   UNL     1     -10.112   4.109  72.971  1.00  0.00    -0.147 N  
HETATM   14  C   UNL     1     -11.328   3.292  73.338  1.00  0.00    -0.095 C  
HETATM   15  C   UNL     1     -11.165   6.439  72.834  1.00  0.00    -0.186 C  
HETATM   16  C   UNL     1      -9.897   4.171  71.440  1.00  0.00    -0.184 C  
HETATM   17  C   UNL     1     -10.150   5.530  73.548  1.00  0.00    -0.190 C  
BRANCH  13  18
HETATM   18  C   UNL     1      -8.885   3.446  73.616  1.00  0.00    -0.084 C  
BRANCH  18  19
HETATM   19  O   UNL     1      -7.940   2.941  72.724  1.00  0.00    -0.060 OA 
HETATM   20  O   UNL     1      -6.457   3.920  74.553  1.00  0.00    -0.036 OA 
HETATM   21  O   UNL     1      -5.434   2.708  72.427  1.00  0.00    -0.003 OA 
HETATM   22  O   UNL     1      -6.572   4.869  72.208  1.00  0.00    -0.040 OA 
HETATM   23  P   UNL     1      -6.481   3.532  73.099  1.00  0.00    -0.027 P  
ENDBRANCH  18  19
ENDBRANCH  13  18
ENDBRANCH   9  11
BRANCH   8  24
HETATM   24  C   UNL     1      -9.077   8.602  67.270  1.00  0.00    -0.152 A  
HETATM   25  C   UNL     1      -9.609   9.276  66.148  1.00  0.00    -0.327 A  
HETATM   26  C   UNL     1      -9.065   9.181  64.861  1.00  0.00    -0.190 A  
HETATM   27  C   UNL     1      -7.213   6.958  68.047  1.00  0.00    -0.091 C  
HETATM   28  C   UNL     1      -7.917   7.809  67.016  1.00  0.00    -0.116 A  
HETATM   29  C   UNL     1      -7.915   8.444  64.652  1.00  0.00    -0.147 A  
HETATM   30  C   UNL     1      -7.338   7.778  65.722  1.00  0.00    -0.076 A  
ENDBRANCH   8  24
ENDBRANCH   2   5
BRANCH   3  31
HETATM   31  C   UNL     1      -7.741  12.807  67.929  1.00  0.00    -0.143 C  
HETATM   32  C   UNL     1      -6.714  12.325  66.857  1.00  0.00     0.055 C  
HETATM   33  C   UNL     1      -6.899  13.704  68.870  1.00  0.00    -0.110 C  
BRANCH  31  34
HETATM   34  C   UNL     1      -8.857  13.556  67.160  1.00  0.00    -0.231 A  
HETATM   35  F   UNL     1     -11.854  11.845  64.512  1.00  0.00    -0.392 F  
HETATM   36  C   UNL     1     -10.144  15.602  66.707  1.00  0.00    -0.277 A  
HETATM   37  C   UNL     1     -10.454  17.045  67.037  1.00  0.00    -0.279 C  
HETATM   38  F   UNL     1     -10.273  12.550  63.190  1.00  0.00    -0.360 F  
HETATM   39  C   UNL     1      -9.193  14.889  67.455  1.00  0.00    -0.194 A  
HETATM   40  C   UNL     1     -10.783  14.966  65.635  1.00  0.00    -0.352 A  
HETATM   41  F   UNL     1     -11.768  17.236  67.334  1.00  0.00     0.304 F  
HETATM   42  F   UNL     1     -10.168  17.887  66.010  1.00  0.00    -0.333 F  
HETATM   43  F   UNL     1      -9.759  17.511  68.112  1.00  0.00    -0.262 F  
HETATM   44  F   UNL     1     -12.055  13.756  63.495  1.00  0.00    -0.490 F  
HETATM   45  C   UNL     1     -10.486  13.634  65.313  1.00  0.00    -0.362 A  
HETATM   46  C   UNL     1      -9.532  12.940  66.086  1.00  0.00    -0.161 A  
HETATM   47  C   UNL     1     -11.160  12.955  64.138  1.00  0.00    -0.399 C  
ENDBRANCH  31  34
ENDBRANCH   3  31
TORSDOF 7
ENDMDL
MODEL       98
REMARK 921   NORMALIZED FREE ENERGY PREDICTED BY IDOCK:   -4.42 KCAL/MOL
REMARK 922        TOTAL FREE ENERGY PREDICTED BY IDOCK:   -6.88 KCAL/MOL
REMARK 923 INTER-LIGAND FREE ENERGY PREDICTED BY IDOCK:   -6.23 KCAL/MOL
REMARK 924 INTRA-LIGAND FREE ENERGY PREDICTED BY IDOCK:   -0.65 KCAL/MOL
REMARK 927      BINDING AFFINITY PREDICTED BY RF-SCORE:    0.00 PKD
ROOT
HETATM    1  C   UNL     1      -9.710  11.475  69.162  1.00  0.00     0.148 C  
HETATM    2  N   UNL     1      -8.361  10.960  69.423  1.00  0.00    -0.015 N  
HETATM    3  C   UNL     1      -7.167  11.605  69.072  1.00  0.00    -0.094 C  
HETATM    4  O   UNL     1      -6.097  10.983  69.115  1.00  0.00    -0.041 OA 
ENDROOT
BRANCH   2   5
HETATM    5  C   UNL     1      -8.328   9.527  69.576  1.00  0.00    -0.145 A  
HETATM    6  C   UNL     1      -7.791   7.289  68.941  1.00  0.00    -0.118 A  
HETATM    7  C   UNL     1      -8.400   9.010  70.875  1.00  0.00    -0.197 A  
HETATM    8  C   UNL     1      -8.066   8.625  68.527  1.00  0.00    -0.117 A  
HETATM    9  C   UNL     1      -7.883   6.832  70.266  1.00  0.00    -0.110 A  
HETATM   10  N   UNL     1      -8.206   7.714  71.226  1.00  0.00    -0.098 NA 
BRANCH   9  11
HETATM   11  N   UNL     1      -7.650   5.520  70.634  1.00  0.00    -0.087 NA 
HETATM   12  C   UNL     1      -8.780   4.610  70.933  1.00  0.00    -0.110 C  
HETATM   13  N   UNL     1      -7.359   2.637  70.077  1.00  0.00    -0.043 N  
HETATM   14  C   UNL     1      -7.140   1.872  71.362  1.00  0.00    -0.032 C  
HETATM   15  C   UNL     1      -6.330   4.892  70.721  1.00  0.00    -0.019 C  
HETATM   16  C   UNL     1      -8.740   3.333  70.047  1.00  0.00    -0.073 C  
HETATM   17  C   UNL     1      -6.254   3.664  69.798  1.00  0.00    -0.028 C  
BRANCH  13  18
HETATM   18  C   UNL     1      -7.282   1.638  68.913  1.00  0.00    -0.039 C  
BRANCH  18  19
HETATM   19  O   UNL     1      -8.321   1.720  67.986  1.00  0.00    -0.058 OA 
HETATM   20  O   UNL     1      -6.273   1.671  66.469  1.00  0.00    -0.019 OA 
HETATM   21  O   UNL     1      -8.733   1.798  65.487  1.00  0.00    -0.108 OA 
HETATM   22  O   UNL     1      -7.773   3.697  66.705  1.00  0.00    -0.079 OA 
HETATM   23  P   UNL     1      -7.714   2.098  66.535  1.00  0.00    -0.073 P  
ENDBRANCH  18  19
ENDBRANCH  13  18
ENDBRANCH   9  11
BRANCH   8  24
HETATM   24  C   UNL     1      -8.007   8.972  67.055  1.00  0.00    -0.102 A  
HETATM   25  C   UNL     1      -6.761   9.198  66.428  1.00  0.00    -0.071 A  
HETATM   26  C   UNL     1      -6.626   9.520  65.072  1.00  0.00    -0.088 A  
HETATM   27  C   UNL     1     -10.582   8.938  66.666  1.00  0.00    -0.150 C  
HETATM   28  C   UNL     1      -9.150   9.081  66.205  1.00  0.00    -0.224 A  
HETATM   29  C   UNL     1      -7.744   9.573  64.262  1.00  0.00    -0.124 A  
HETATM   30  C   UNL     1      -8.992   9.340  64.820  1.00  0.00    -0.217 A  
ENDBRANCH   8  24
ENDBRANCH   2   5
BRANCH   3  31
HETATM   31  C   UNL     1      -7.158  13.111  68.620  1.00  0.00    -0.103 C  
HETATM   32  C   UNL     1      -6.138  13.268  67.448  1.00  0.00     0.014 C  
HETATM   33  C   UNL     1      -6.585  14.024  69.732  1.00  0.00    -0.081 C  
BRANCH  31  34
HETATM   34  C   UNL     1      -8.532  13.562  68.066  1.00  0.00    -0.176 A  
HETATM   35  F   UNL     1     -10.976  16.888  69.439  1.00  0.00    -0.304 F  
HETATM   36  C   UNL     1     -10.312  13.421  66.374  1.00  0.00    -0.288 A  
HETATM   37  C   UNL     1     -10.823  12.858  65.067  1.00  0.00    -0.299 C  
HETATM   38  F   UNL     1     -11.795  15.138  70.443  1.00  0.00    -0.253 F  
HETATM   39  C   UNL     1      -9.030  13.083  66.842  1.00  0.00    -0.210 A  
HETATM   40  C   UNL     1     -11.118  14.265  67.148  1.00  0.00    -0.318 A  
HETATM   41  F   UNL     1     -11.150  13.835  64.177  1.00  0.00    -0.374 F  
HETATM   42  F   UNL     1     -11.938  12.099  65.227  1.00  0.00    -0.415 F  
HETATM   43  F   UNL     1      -9.916  12.066  64.432  1.00  0.00    -0.271 F  
HETATM   44  F   UNL     1     -12.754  15.914  68.653  1.00  0.00     0.133 F  
HETATM   45  C   UNL     1     -10.655  14.774  68.370  1.00  0.00    -0.242 A  
HETATM   46  C   UNL     1      -9.363  14.425  68.812  1.00  0.00    -0.150 A  
HETATM   47  C   UNL     1     -11.537  15.668  69.217  1.00  0.00    -0.366 C  
ENDBRANCH  31  34
ENDBRANCH   3  31
TORSDOF 7
ENDMDL
MODEL       99
REMARK 921   NORMALIZED FREE ENERGY PREDICTED BY IDOCK:   -4.37 KCAL/MOL
REMARK 922        TOTAL FREE ENERGY PREDICTED BY IDOCK:   -6.80 KCAL/MOL
REMARK 923 INTER-LIGAND FREE ENERGY PREDICTED BY IDOCK:   -6.81 KCAL/MOL
REMARK 924 INTRA-LIGAND FREE ENERGY PREDICTED BY IDOCK:    0.01 KCAL/MOL
REMARK 927      BINDING AFFINITY PREDICTED BY RF-SCORE:    0.00 PKD
ROOT
HETATM    1  C   UNL     1      -5.194   9.778  70.148  1.00  0.00    -0.036 C  
HETATM    2  N   UNL     1      -6.623  10.088  70.276  1.00  0.00    -0.112 N  
HETATM    3  C   UNL     1      -7.617   9.177  70.656  1.00  0.00    -0.133 C  
HETATM    4  O   UNL     1      -8.811   9.468  70.498  1.00  0.00    -0.233 OA 
ENDROOT
BRANCH   2   5
HETATM    5  C   UNL     1      -7.023  11.224  69.484  1.00  0.00    -0.089 A  
HETATM    6  C   UNL     1      -8.259  12.356  67.784  1.00  0.00    -0.163 A  
HETATM    7  C   UNL     1      -6.871  12.496  70.047  1.00  0.00     0.534 A  
HETATM    8  C   UNL     1      -7.703  11.132  68.254  1.00  0.00    -0.116 A  
HETATM    9  C   UNL     1      -8.068  13.605  68.398  1.00  0.00    -0.146 A  
HETATM   10  N   UNL     1      -7.351  13.656  69.533  1.00  0.00     0.215 NA 
BRANCH   9  11
HETATM   11  N   UNL     1      -8.586  14.785  67.898  1.00  0.00    -0.160 NA 
HETATM   12  C   UNL     1      -8.051  15.371  66.648  1.00  0.00    -0.098 C  
HETATM   13  N   UNL     1     -10.388  16.345  66.159  1.00  0.00    -0.335 N  
HETATM   14  C   UNL     1     -10.111  17.823  66.304  1.00  0.00    -0.344 C  
HETATM   15  C   UNL     1      -9.700  15.531  68.487  1.00  0.00    -0.203 C  
HETATM   16  C   UNL     1      -9.169  15.582  65.587  1.00  0.00    -0.050 C  
HETATM   17  C   UNL     1     -10.842  15.690  67.469  1.00  0.00    -0.316 C  
BRANCH  13  18
HETATM   18  C   UNL     1     -11.572  16.178  65.195  1.00  0.00     0.263 C  
BRANCH  18  19
HETATM   19  O   UNL     1     -11.353  15.314  64.122  1.00  0.00    -0.146 OA 
HETATM   20  O   UNL     1     -13.471  14.337  65.153  1.00  0.00    -0.459 OA 
HETATM   21  O   UNL     1     -12.354  13.279  62.992  1.00  0.00    -0.589 OA 
HETATM   22  O   UNL     1     -11.241  13.138  65.172  1.00  0.00    -0.288 OA 
HETATM   23  P   UNL     1     -12.280  14.000  64.296  1.00  0.00    -0.257 P  
ENDBRANCH  18  19
ENDBRANCH  13  18
ENDBRANCH   9  11
BRANCH   8  24
HETATM   24  C   UNL     1      -7.919   9.864  67.456  1.00  0.00    -0.106 A  
HETATM   25  C   UNL     1      -6.814   9.162  66.925  1.00  0.00    -0.080 A  
HETATM   26  C   UNL     1      -6.935   7.982  66.179  1.00  0.00    -0.058 A  
HETATM   27  C   UNL     1     -10.519   9.885  67.614  1.00  0.00    -0.296 C  
HETATM   28  C   UNL     1      -9.198   9.283  67.195  1.00  0.00    -0.157 A  
HETATM   29  C   UNL     1      -8.180   7.417  65.982  1.00  0.00    -0.130 A  
HETATM   30  C   UNL     1      -9.298   8.052  66.498  1.00  0.00    -0.261 A  
ENDBRANCH   8  24
ENDBRANCH   2   5
BRANCH   3  31
HETATM   31  C   UNL     1      -7.247   7.781  71.279  1.00  0.00    -0.062 C  
HETATM   32  C   UNL     1      -6.691   8.015  72.719  1.00  0.00    -0.090 C  
HETATM   33  C   UNL     1      -6.058   7.132  70.527  1.00  0.00    -0.027 C  
BRANCH  31  34
HETATM   34  C   UNL     1      -8.485   6.864  71.431  1.00  0.00    -0.119 A  
HETATM   35  F   UNL     1      -8.549   2.677  72.610  1.00  0.00    -0.067 F  
HETATM   36  C   UNL     1     -10.923   6.551  71.511  1.00  0.00    -0.298 A  
HETATM   37  C   UNL     1     -12.312   7.148  71.506  1.00  0.00    -0.370 C  
HETATM   38  F   UNL     1      -8.618   2.649  70.434  1.00  0.00    -0.071 F  
HETATM   39  C   UNL     1      -9.791   7.382  71.458  1.00  0.00    -0.185 A  
HETATM   40  C   UNL     1     -10.747   5.162  71.542  1.00  0.00    -0.165 A  
HETATM   41  F   UNL     1     -13.031   6.794  72.606  1.00  0.00     0.106 F  
HETATM   42  F   UNL     1     -13.044   6.755  70.430  1.00  0.00    -0.204 F  
HETATM   43  F   UNL     1     -12.312   8.509  71.486  1.00  0.00    -0.296 F  
HETATM   44  F   UNL     1     -10.446   2.411  71.585  1.00  0.00    -0.154 F  
HETATM   45  C   UNL     1      -9.461   4.603  71.528  1.00  0.00    -0.214 A  
HETATM   46  C   UNL     1      -8.342   5.461  71.482  1.00  0.00    -0.122 A  
HETATM   47  C   UNL     1      -9.272   3.100  71.537  1.00  0.00    -0.118 C  
ENDBRANCH  31  34
ENDBRANCH   3  31
TORSDOF 7
ENDMDL
MODEL      100
REMARK 921   NORMALIZED FREE ENERGY PREDICTED BY IDOCK:   -4.36 KCAL/MOL
REMARK 922        TOTAL FREE ENERGY PREDICTED BY IDOCK:   -6.79 KCAL/MOL
REMARK 923 INTER-LIGAND FREE ENERGY PREDICTED BY IDOCK:  -10.06 KCAL/MOL
REMARK 924 INTRA-LIGAND FREE ENERGY PREDICTED BY IDOCK:    3.27 KCAL/MOL
REMARK 927      BINDING AFFINITY PREDICTED BY RF-SCORE:    0.00 PKD
ROOT
HETATM    1  C   UNL     1      -9.938   9.553  68.066  1.00  0.00    -0.167 C  
HETATM    2  N   UNL     1      -9.039  10.634  68.486  1.00  0.00    -0.152 N  
HETATM    3  C   UNL     1      -8.001  10.507  69.419  1.00  0.00    -0.140 C  
HETATM    4  O   UNL     1      -7.464  11.522  69.883  1.00  0.00     0.305 OA 
ENDROOT
BRANCH   2   5
HETATM    5  C   UNL     1      -9.610  11.944  68.295  1.00  0.00    -0.201 A  
HETATM    6  C   UNL     1     -10.911  13.852  68.898  1.00  0.00    -0.290 A  
HETATM    7  C   UNL     1      -8.948  12.823  67.431  1.00  0.00    -0.195 A  
HETATM    8  C   UNL     1     -10.694  12.451  69.038  1.00  0.00    -0.140 A  
HETATM    9  C   UNL     1     -10.209  14.682  68.009  1.00  0.00    -0.231 A  
HETATM   10  N   UNL     1      -9.230  14.140  67.266  1.00  0.00    -0.210 NA 
BRANCH   9  11
HETATM   11  N   UNL     1     -10.468  16.032  67.864  1.00  0.00    -0.283 NA 
HETATM   12  C   UNL     1      -9.997  17.002  68.879  1.00  0.00    -0.285 C  
HETATM   13  N   UNL     1      -9.777  18.773  67.019  1.00  0.00    -0.300 N  
HETATM   14  C   UNL     1     -10.866  19.739  67.423  1.00  0.00    -0.310 C  
HETATM   15  C   UNL     1     -11.160  16.639  66.725  1.00  0.00     0.218 C  
HETATM   16  C   UNL     1      -9.108  18.110  68.247  1.00  0.00    -0.300 C  
HETATM   17  C   UNL     1     -10.267  17.692  66.048  1.00  0.00    -0.297 C  
BRANCH  13  18
HETATM   18  C   UNL     1      -8.712  19.560  66.241  1.00  0.00    -0.359 C  
BRANCH  18  19
HETATM   19  O   UNL     1      -7.841  18.789  65.472  1.00  0.00    -0.409 OA 
HETATM   20  O   UNL     1      -6.237  19.908  67.108  1.00  0.00    -0.183 OA 
HETATM   21  O   UNL     1      -5.384  18.207  65.260  1.00  0.00    -0.165 OA 
HETATM   22  O   UNL     1      -6.257  20.409  64.626  1.00  0.00    -0.254 OA 
HETATM   23  P   UNL     1      -6.319  19.261  65.752  1.00  0.00    -0.258 P  
ENDBRANCH  18  19
ENDBRANCH  13  18
ENDBRANCH   9  11
BRANCH   8  24
HETATM   24  C   UNL     1     -11.573  11.654  69.977  1.00  0.00    -0.338 A  
HETATM   25  C   UNL     1     -11.607  10.244  69.893  1.00  0.00    -0.326 A  
HETATM   26  C   UNL     1     -12.392   9.439  70.728  1.00  0.00    -0.185 A  
HETATM   27  C   UNL     1     -12.562  13.710  71.233  1.00  0.00    -0.435 C  
HETATM   28  C   UNL     1     -12.395  12.227  70.995  1.00  0.00    -0.320 A  
HETATM   29  C   UNL     1     -13.142  10.016  71.734  1.00  0.00    -0.562 A  
HETATM   30  C   UNL     1     -13.131  11.395  71.877  1.00  0.00    -0.505 A  
ENDBRANCH   8  24
ENDBRANCH   2   5
BRANCH   3  31
HETATM   31  C   UNL     1      -7.502   9.093  69.895  1.00  0.00    -0.070 C  
HETATM   32  C   UNL     1      -7.195   9.167  71.424  1.00  0.00    -0.019 C  
HETATM   33  C   UNL     1      -6.133   8.743  69.261  1.00  0.00    -0.042 C  
BRANCH  31  34
HETATM   34  C   UNL     1      -8.587   8.003  69.718  1.00  0.00    -0.131 A  
HETATM   35  F   UNL     1      -9.132   5.336  66.325  1.00  0.00    -0.125 F  
HETATM   36  C   UNL     1     -10.424   6.641  70.625  1.00  0.00    -0.253 A  
HETATM   37  C   UNL     1     -11.275   6.223  71.802  1.00  0.00    -0.284 C  
HETATM   38  F   UNL     1     -10.522   6.976  65.979  1.00  0.00     0.051 F  
HETATM   39  C   UNL     1      -9.381   7.567  70.793  1.00  0.00    -0.162 A  
HETATM   40  C   UNL     1     -10.679   6.130  69.346  1.00  0.00    -0.385 A  
HETATM   41  F   UNL     1     -11.234   4.880  72.018  1.00  0.00    -0.183 F  
HETATM   42  F   UNL     1     -12.586   6.542  71.636  1.00  0.00    -0.381 F  
HETATM   43  F   UNL     1     -10.891   6.799  72.974  1.00  0.00    -0.235 F  
HETATM   44  F   UNL     1     -11.232   5.108  66.833  1.00  0.00    -0.097 F  
HETATM   45  C   UNL     1      -9.904   6.528  68.247  1.00  0.00    -0.132 A  
HETATM   46  C   UNL     1      -8.859   7.454  68.447  1.00  0.00    -0.121 A  
HETATM   47  C   UNL     1     -10.196   5.993  66.861  1.00  0.00    -0.210 C  
ENDBRANCH  31  34
ENDBRANCH   3  31
TORSDOF 7
ENDMDL
MODEL      101
REMARK 921   NORMALIZED FREE ENERGY PREDICTED BY IDOCK:   -4.34 KCAL/MOL
REMARK 922        TOTAL FREE ENERGY PREDICTED BY IDOCK:   -6.76 KCAL/MOL
REMARK 923 INTER-LIGAND FREE ENERGY PREDICTED BY IDOCK:   -6.79 KCAL/MOL
REMARK 924 INTRA-LIGAND FREE ENERGY PREDICTED BY IDOCK:    0.03 KCAL/MOL
REMARK 927      BINDING AFFINITY PREDICTED BY RF-SCORE:    0.00 PKD
ROOT
HETATM    1  C   UNL     1      -5.125  10.687  68.778  1.00  0.00    -0.041 C  
HETATM    2  N   UNL     1      -6.524  10.830  69.197  1.00  0.00    -0.054 N  
HETATM    3  C   UNL     1      -7.360   9.779  69.598  1.00  0.00    -0.103 C  
HETATM    4  O   UNL     1      -8.580   9.967  69.697  1.00  0.00    -0.166 OA 
ENDROOT
BRANCH   2   5
HETATM    5  C   UNL     1      -7.149  12.018  68.671  1.00  0.00    -0.103 A  
HETATM    6  C   UNL     1      -8.716  13.241  67.350  1.00  0.00    -0.206 A  
HETATM    7  C   UNL     1      -7.065  13.189  69.433  1.00  0.00     0.166 A  
HETATM    8  C   UNL     1      -7.970  12.040  67.528  1.00  0.00    -0.159 A  
HETATM    9  C   UNL     1      -8.584  14.386  68.152  1.00  0.00    -0.166 A  
HETATM   10  N   UNL     1      -7.735  14.344  69.192  1.00  0.00    -0.093 NA 
BRANCH   9  11
HETATM   11  N   UNL     1      -9.292  15.554  67.933  1.00  0.00    -0.192 NA 
HETATM   12  C   UNL     1      -9.296  16.632  68.948  1.00  0.00    -0.244 C  
HETATM   13  N   UNL     1      -9.543  18.356  67.047  1.00  0.00    -0.289 N  
HETATM   14  C   UNL     1     -10.938  18.870  67.315  1.00  0.00    -0.235 C  
HETATM   15  C   UNL     1     -10.041  15.867  66.715  1.00  0.00    -0.271 C  
HETATM   16  C   UNL     1      -8.803  17.983  68.354  1.00  0.00    -0.292 C  
HETATM   17  C   UNL     1      -9.520  17.167  66.079  1.00  0.00    -0.137 C  
BRANCH  13  18
HETATM   18  C   UNL     1      -8.758  19.469  66.336  1.00  0.00    -0.361 C  
BRANCH  18  19
HETATM   19  O   UNL     1      -7.591  19.882  66.978  1.00  0.00    -0.249 OA 
HETATM   20  O   UNL     1      -7.217  20.753  64.611  1.00  0.00     0.036 OA 
HETATM   21  O   UNL     1      -5.436  21.141  66.538  1.00  0.00    -0.195 OA 
HETATM   22  O   UNL     1      -5.835  18.895  65.638  1.00  0.00    -0.157 OA 
HETATM   23  P   UNL     1      -6.504  20.340  65.871  1.00  0.00    -0.246 P  
ENDBRANCH  18  19
ENDBRANCH  13  18
ENDBRANCH   9  11
BRANCH   8  24
HETATM   24  C   UNL     1      -8.148  10.904  66.544  1.00  0.00    -0.154 A  
HETATM   25  C   UNL     1      -9.414  10.296  66.383  1.00  0.00    -0.218 A  
HETATM   26  C   UNL     1      -9.657   9.243  65.492  1.00  0.00    -0.291 A  
HETATM   27  C   UNL     1      -5.667  10.835  65.757  1.00  0.00    -0.144 C  
HETATM   28  C   UNL     1      -7.107  10.381  65.717  1.00  0.00    -0.139 A  
HETATM   29  C   UNL     1      -8.643   8.787  64.672  1.00  0.00    -0.140 A  
HETATM   30  C   UNL     1      -7.386   9.362  64.772  1.00  0.00    -0.107 A  
ENDBRANCH   8  24
ENDBRANCH   2   5
BRANCH   3  31
HETATM   31  C   UNL     1      -6.776   8.355  69.925  1.00  0.00    -0.042 C  
HETATM   32  C   UNL     1      -5.548   8.530  70.873  1.00  0.00    -0.032 C  
HETATM   33  C   UNL     1      -6.174   7.695  68.660  1.00  0.00    -0.035 C  
BRANCH  31  34
HETATM   34  C   UNL     1      -7.793   7.469  70.686  1.00  0.00    -0.095 A  
HETATM   35  F   UNL     1      -7.502   3.206  71.499  1.00  0.00    -0.038 F  
HETATM   36  C   UNL     1      -9.810   7.231  72.074  1.00  0.00    -0.183 A  
HETATM   37  C   UNL     1     -10.931   7.871  72.861  1.00  0.00    -0.388 C  
HETATM   38  F   UNL     1      -8.747   3.354  69.719  1.00  0.00    -0.088 F  
HETATM   39  C   UNL     1      -8.833   8.026  71.451  1.00  0.00    -0.170 A  
HETATM   40  C   UNL     1      -9.744   5.839  71.935  1.00  0.00    -0.184 A  
HETATM   41  F   UNL     1     -10.957   7.453  74.156  1.00  0.00    -0.155 F  
HETATM   42  F   UNL     1     -12.156   7.590  72.345  1.00  0.00    -0.301 F  
HETATM   43  F   UNL     1     -10.846   9.229  72.910  1.00  0.00     0.374 F  
HETATM   44  F   UNL     1      -9.665   3.085  71.671  1.00  0.00    -0.192 F  
HETATM   45  C   UNL     1      -8.717   5.241  71.191  1.00  0.00    -0.136 A  
HETATM   46  C   UNL     1      -7.746   6.063  70.582  1.00  0.00    -0.101 A  
HETATM   47  C   UNL     1      -8.660   3.737  71.021  1.00  0.00    -0.072 C  
ENDBRANCH  31  34
ENDBRANCH   3  31
TORSDOF 7
ENDMDL
MODEL      102
REMARK 921   NORMALIZED FREE ENERGY PREDICTED BY IDOCK:   -4.30 KCAL/MOL
REMARK 922        TOTAL FREE ENERGY PREDICTED BY IDOCK:   -6.70 KCAL/MOL
REMARK 923 INTER-LIGAND FREE ENERGY PREDICTED BY IDOCK:   -6.51 KCAL/MOL
REMARK 924 INTRA-LIGAND FREE ENERGY PREDICTED BY IDOCK:   -0.19 KCAL/MOL
REMARK 927      BINDING AFFINITY PREDICTED BY RF-SCORE:    0.00 PKD
ROOT
HETATM    1  C   UNL     1     -11.205  12.238  67.797  1.00  0.00    -0.276 C  
HETATM    2  N   UNL     1      -9.906  11.838  68.350  1.00  0.00    -0.198 N  
HETATM    3  C   UNL     1      -9.701  10.784  69.250  1.00  0.00    -0.120 C  
HETATM    4  O   UNL     1      -8.617  10.682  69.841  1.00  0.00     0.116 OA 
ENDROOT
BRANCH   2   5
HETATM    5  C   UNL     1      -8.939  12.907  68.339  1.00  0.00    -0.124 A  
HETATM    6  C   UNL     1      -7.081  14.143  67.492  1.00  0.00    -0.184 A  
HETATM    7  C   UNL     1      -9.283  14.102  68.982  1.00  0.00     0.098 A  
HETATM    8  C   UNL     1      -7.745  12.886  67.594  1.00  0.00    -0.162 A  
HETATM    9  C   UNL     1      -7.478  15.310  68.166  1.00  0.00    -0.112 A  
HETATM   10  N   UNL     1      -8.586  15.264  68.925  1.00  0.00    -0.192 NA 
BRANCH   9  11
HETATM   11  N   UNL     1      -6.792  16.507  68.082  1.00  0.00    -0.133 NA 
HETATM   12  C   UNL     1      -6.138  16.911  66.816  1.00  0.00    -0.181 C  
HETATM   13  N   UNL     1      -6.568  19.376  67.434  1.00  0.00    -0.193 N  
HETATM   14  C   UNL     1      -5.154  19.859  67.661  1.00  0.00    -0.178 C  
HETATM   15  C   UNL     1      -6.678  17.489  69.161  1.00  0.00    -0.243 C  
HETATM   16  C   UNL     1      -6.641  18.299  66.327  1.00  0.00    -0.228 C  
HETATM   17  C   UNL     1      -7.233  18.852  68.713  1.00  0.00    -0.318 C  
BRANCH  13  18
HETATM   18  C   UNL     1      -7.416  20.584  67.007  1.00  0.00    -0.312 C  
BRANCH  18  19
HETATM   19  O   UNL     1      -8.184  20.398  65.858  1.00  0.00    -0.106 OA 
HETATM   20  O   UNL     1      -9.980  20.598  67.657  1.00  0.00    -0.402 OA 
HETATM   21  O   UNL     1     -10.597  20.243  65.102  1.00  0.00    -0.135 OA 
HETATM   22  O   UNL     1      -9.523  18.454  66.388  1.00  0.00    -0.311 OA 
HETATM   23  P   UNL     1      -9.706  20.049  66.282  1.00  0.00    -0.331 P  
ENDBRANCH  18  19
ENDBRANCH  13  18
ENDBRANCH   9  11
BRANCH   8  24
HETATM   24  C   UNL     1      -7.169  11.684  66.878  1.00  0.00    -0.125 A  
HETATM   25  C   UNL     1      -7.821  11.153  65.742  1.00  0.00     0.090 A  
HETATM   26  C   UNL     1      -7.348  10.046  65.027  1.00  0.00    -0.140 A  
HETATM   27  C   UNL     1      -5.130  11.373  68.468  1.00  0.00    -0.039 C  
HETATM   28  C   UNL     1      -5.963  11.019  67.259  1.00  0.00    -0.058 A  
HETATM   29  C   UNL     1      -6.155   9.451  65.389  1.00  0.00    -0.064 A  
HETATM   30  C   UNL     1      -5.461   9.943  66.483  1.00  0.00    -0.045 A  
ENDBRANCH   8  24
ENDBRANCH   2   5
BRANCH   3  31
HETATM   31  C   UNL     1     -10.826   9.720  69.529  1.00  0.00    -0.264 C  
HETATM   32  C   UNL     1     -11.984   9.947  68.506  1.00  0.00     1.007 C  
HETATM   33  C   UNL     1     -11.497   9.966  70.904  1.00  0.00    -0.456 C  
BRANCH  31  34
HETATM   34  C   UNL     1     -10.327   8.272  69.310  1.00  0.00    -0.223 A  
HETATM   35  F   UNL     1      -9.351   6.350  65.532  1.00  0.00    -0.063 F  
HETATM   36  C   UNL     1      -9.494   6.135  70.200  1.00  0.00    -0.177 A  
HETATM   37  C   UNL     1      -9.037   5.306  71.378  1.00  0.00    -0.145 C  
HETATM   38  F   UNL     1     -11.393   5.732  65.965  1.00  0.00    -0.094 F  
HETATM   39  C   UNL     1      -9.868   7.478  70.376  1.00  0.00    -0.183 A  
HETATM   40  C   UNL     1      -9.574   5.569  68.921  1.00  0.00    -0.178 A  
HETATM   41  F   UNL     1      -7.781   4.811  71.206  1.00  0.00    -0.072 F  
HETATM   42  F   UNL     1      -9.841   4.234  71.604  1.00  0.00    -0.210 F  
HETATM   43  F   UNL     1      -9.004   6.005  72.546  1.00  0.00    -0.132 F  
HETATM   44  F   UNL     1      -9.734   4.402  66.416  1.00  0.00    -0.152 F  
HETATM   45  C   UNL     1     -10.014   6.328  67.828  1.00  0.00    -0.143 A  
HETATM   46  C   UNL     1     -10.377   7.676  68.033  1.00  0.00    -0.257 A  
HETATM   47  C   UNL     1     -10.123   5.708  66.450  1.00  0.00    -0.156 C  
ENDBRANCH  31  34
ENDBRANCH   3  31
TORSDOF 7
ENDMDL
MODEL      103
REMARK 921   NORMALIZED FREE ENERGY PREDICTED BY IDOCK:   -4.28 KCAL/MOL
REMARK 922        TOTAL FREE ENERGY PREDICTED BY IDOCK:   -6.67 KCAL/MOL
REMARK 923 INTER-LIGAND FREE ENERGY PREDICTED BY IDOCK:   -4.43 KCAL/MOL
REMARK 924 INTRA-LIGAND FREE ENERGY PREDICTED BY IDOCK:   -2.24 KCAL/MOL
REMARK 927      BINDING AFFINITY PREDICTED BY RF-SCORE:    0.00 PKD
ROOT
HETATM    1  C   UNL     1      -6.640  12.660  70.551  1.00  0.00     0.926 C  
HETATM    2  N   UNL     1      -6.336  12.390  69.141  1.00  0.00    -0.089 N  
HETATM    3  C   UNL     1      -6.402  13.331  68.105  1.00  0.00    -0.110 C  
HETATM    4  O   UNL     1      -6.366  12.952  66.926  1.00  0.00    -0.109 OA 
ENDROOT
BRANCH   2   5
HETATM    5  C   UNL     1      -6.484  11.000  68.792  1.00  0.00    -0.051 A  
HETATM    6  C   UNL     1      -7.549   9.118  67.780  1.00  0.00    -0.085 A  
HETATM    7  C   UNL     1      -5.326  10.215  68.741  1.00  0.00    -0.038 A  
HETATM    8  C   UNL     1      -7.687  10.419  68.345  1.00  0.00    -0.098 A  
HETATM    9  C   UNL     1      -6.354   8.380  67.761  1.00  0.00    -0.053 A  
HETATM   10  N   UNL     1      -5.245   8.947  68.264  1.00  0.00    -0.034 NA 
BRANCH   9  11
HETATM   11  N   UNL     1      -6.258   7.103  67.242  1.00  0.00    -0.043 NA 
HETATM   12  C   UNL     1      -7.234   6.058  67.629  1.00  0.00    -0.076 C  
HETATM   13  N   UNL     1      -6.940   4.986  65.304  1.00  0.00    -0.060 N  
HETATM   14  C   UNL     1      -6.259   3.691  65.676  1.00  0.00    -0.031 C  
HETATM   15  C   UNL     1      -5.262   6.665  66.262  1.00  0.00    -0.017 C  
HETATM   16  C   UNL     1      -7.943   5.446  66.388  1.00  0.00    -0.104 C  
HETATM   17  C   UNL     1      -5.949   6.117  65.000  1.00  0.00    -0.026 C  
BRANCH  13  18
HETATM   18  C   UNL     1      -7.703   4.758  63.990  1.00  0.00    -0.079 C  
BRANCH  18  19
HETATM   19  O   UNL     1      -9.056   5.095  64.018  1.00  0.00    -0.004 OA 
HETATM   20  O   UNL     1      -9.124   2.622  64.636  1.00  0.00    -0.119 OA 
HETATM   21  O   UNL     1     -11.332   4.083  64.482  1.00  0.00    -0.295 OA 
HETATM   22  O   UNL     1     -10.054   3.532  62.464  1.00  0.00    -0.116 OA 
HETATM   23  P   UNL     1      -9.944   3.742  64.055  1.00  0.00    -0.193 P  
ENDBRANCH  18  19
ENDBRANCH  13  18
ENDBRANCH   9  11
BRANCH   8  24
HETATM   24  C   UNL     1      -9.050  11.075  68.373  1.00  0.00    -0.161 A  
HETATM   25  C   UNL     1      -9.873  10.953  69.516  1.00  0.00     0.033 A  
HETATM   26  C   UNL     1     -11.144  11.533  69.617  1.00  0.00    -0.211 A  
HETATM   27  C   UNL     1      -8.921  12.071  65.971  1.00  0.00    -0.021 C  
HETATM   28  C   UNL     1      -9.594  11.853  67.306  1.00  0.00    -0.181 A  
HETATM   29  C   UNL     1     -11.626  12.319  68.588  1.00  0.00    -0.372 A  
HETATM   30  C   UNL     1     -10.852  12.490  67.451  1.00  0.00    -0.272 A  
ENDBRANCH   8  24
ENDBRANCH   2   5
BRANCH   3  31
HETATM   31  C   UNL     1      -6.525  14.870  68.409  1.00  0.00    -0.106 C  
HETATM   32  C   UNL     1      -5.741  15.654  67.310  1.00  0.00     0.123 C  
HETATM   33  C   UNL     1      -5.789  15.239  69.721  1.00  0.00    -0.128 C  
BRANCH  31  34
HETATM   34  C   UNL     1      -7.990  15.363  68.336  1.00  0.00    -0.131 A  
HETATM   35  F   UNL     1     -10.110  16.856  64.843  1.00  0.00     0.094 F  
HETATM   36  C   UNL     1     -10.211  15.641  69.356  1.00  0.00    -0.261 A  
HETATM   37  C   UNL     1     -11.153  15.388  70.512  1.00  0.00    -0.335 C  
HETATM   38  F   UNL     1      -9.413  18.639  65.881  1.00  0.00    -0.270 F  
HETATM   39  C   UNL     1      -8.905  15.124  69.377  1.00  0.00    -0.172 A  
HETATM   40  C   UNL     1     -10.620  16.415  68.263  1.00  0.00    -0.318 A  
HETATM   41  F   UNL     1     -12.291  14.751  70.121  1.00  0.00    -0.321 F  
HETATM   42  F   UNL     1     -11.549  16.536  71.122  1.00  0.00    -0.427 F  
HETATM   43  F   UNL     1     -10.610  14.610  71.488  1.00  0.00     0.164 F  
HETATM   44  F   UNL     1     -11.464  17.966  66.131  1.00  0.00     0.503 F  
HETATM   45  C   UNL     1      -9.744  16.668  67.197  1.00  0.00    -0.250 A  
HETATM   46  C   UNL     1      -8.441  16.131  67.241  1.00  0.00    -0.203 A  
HETATM   47  C   UNL     1     -10.179  17.525  66.027  1.00  0.00    -0.299 C  
ENDBRANCH  31  34
ENDBRANCH   3  31
TORSDOF 7
ENDMDL
MODEL      104
REMARK 921   NORMALIZED FREE ENERGY PREDICTED BY IDOCK:   -3.82 KCAL/MOL
REMARK 922        TOTAL FREE ENERGY PREDICTED BY IDOCK:   -6.02 KCAL/MOL
REMARK 923 INTER-LIGAND FREE ENERGY PREDICTED BY IDOCK:   -5.29 KCAL/MOL
REMARK 924 INTRA-LIGAND FREE ENERGY PREDICTED BY IDOCK:   -0.73 KCAL/MOL
REMARK 927      BINDING AFFINITY PREDICTED BY RF-SCORE:    0.00 PKD
ROOT
HETATM    1  C   UNL     1      -5.143  10.187  70.224  1.00  0.00    -0.039 C  
HETATM    2  N   UNL     1      -6.572  10.507  70.137  1.00  0.00    -0.141 N  
HETATM    3  C   UNL     1      -7.616   9.574  70.212  1.00  0.00    -0.155 C  
HETATM    4  O   UNL     1      -8.763   9.908  69.886  1.00  0.00    -0.205 OA 
ENDROOT
BRANCH   2   5
HETATM    5  C   UNL     1      -6.829  11.743  69.443  1.00  0.00    -0.067 A  
HETATM    6  C   UNL     1      -7.702  13.105  67.687  1.00  0.00    -0.168 A  
HETATM    7  C   UNL     1      -6.846  12.922  70.198  1.00  0.00     0.687 A  
HETATM    8  C   UNL     1      -7.220  11.827  68.093  1.00  0.00    -0.086 A  
HETATM    9  C   UNL     1      -7.691  14.253  68.496  1.00  0.00    -0.137 A  
HETATM   10  N   UNL     1      -7.242  14.142  69.757  1.00  0.00     0.087 NA 
BRANCH   9  11
HETATM   11  N   UNL     1      -8.128  15.492  68.064  1.00  0.00    -0.134 NA 
HETATM   12  C   UNL     1      -7.573  16.096  66.831  1.00  0.00    -0.240 C  
HETATM   13  N   UNL     1      -9.838  17.264  66.440  1.00  0.00    -0.289 N  
HETATM   14  C   UNL     1      -9.448  18.708  66.648  1.00  0.00    -0.319 C  
HETATM   15  C   UNL     1      -9.171  16.289  68.711  1.00  0.00    -0.240 C  
HETATM   16  C   UNL     1      -8.691  16.440  65.806  1.00  0.00     0.111 C  
HETATM   17  C   UNL     1     -10.316  16.582  67.728  1.00  0.00    -0.291 C  
BRANCH  13  18
HETATM   18  C   UNL     1     -11.049  17.234  65.495  1.00  0.00     0.266 C  
BRANCH  18  19
HETATM   19  O   UNL     1     -10.922  16.396  64.387  1.00  0.00    -0.798 OA 
HETATM   20  O   UNL     1     -12.780  15.243  65.699  1.00  0.00     0.575 OA 
HETATM   21  O   UNL     1     -11.913  14.293  63.379  1.00  0.00    -0.176 OA 
HETATM   22  O   UNL     1     -10.483  14.230  65.370  1.00  0.00    -0.321 OA 
HETATM   23  P   UNL     1     -11.705  15.009  64.672  1.00  0.00    -0.230 P  
ENDBRANCH  18  19
ENDBRANCH  13  18
ENDBRANCH   9  11
BRANCH   8  24
HETATM   24  C   UNL     1      -7.214  10.687  67.098  1.00  0.00    -0.097 A  
HETATM   25  C   UNL     1      -6.007  10.019  66.790  1.00  0.00    -0.055 A  
HETATM   26  C   UNL     1      -5.923   8.955  65.883  1.00  0.00    -0.051 A  
HETATM   27  C   UNL     1      -9.759  10.787  66.555  1.00  0.00    -0.236 C  
HETATM   28  C   UNL     1      -8.375  10.195  66.426  1.00  0.00    -0.125 A  
HETATM   29  C   UNL     1      -7.068   8.470  65.282  1.00  0.00    -0.082 A  
HETATM   30  C   UNL     1      -8.284   9.073  65.563  1.00  0.00    -0.124 A  
ENDBRANCH   8  24
ENDBRANCH   2   5
BRANCH   3  31
HETATM   31  C   UNL     1      -7.359   8.102  70.703  1.00  0.00    -0.053 C  
HETATM   32  C   UNL     1      -8.273   7.826  71.938  1.00  0.00    -0.128 C  
HETATM   33  C   UNL     1      -5.924   7.944  71.265  1.00  0.00    -0.034 C  
BRANCH  31  34
HETATM   34  C   UNL     1      -7.744   7.054  69.630  1.00  0.00    -0.110 A  
HETATM   35  F   UNL     1     -10.961   7.315  66.713  1.00  0.00    -0.425 F  
HETATM   36  C   UNL     1      -7.275   4.981  68.394  1.00  0.00    -0.062 A  
HETATM   37  C   UNL     1      -6.345   3.826  68.094  1.00  0.00    -0.037 C  
HETATM   38  F   UNL     1     -11.785   6.146  68.355  1.00  0.00    -0.251 F  
HETATM   39  C   UNL     1      -6.896   5.982  69.303  1.00  0.00    -0.062 A  
HETATM   40  C   UNL     1      -8.536   5.053  67.788  1.00  0.00    -0.104 A  
HETATM   41  F   UNL     1      -6.032   3.746  66.772  1.00  0.00    -0.021 F  
HETATM   42  F   UNL     1      -6.881   2.624  68.433  1.00  0.00    -0.043 F  
HETATM   43  F   UNL     1      -5.157   3.909  68.753  1.00  0.00    -0.005 F  
HETATM   44  F   UNL     1     -11.025   5.146  66.582  1.00  0.00    -0.303 F  
HETATM   45  C   UNL     1      -9.408   6.112  68.076  1.00  0.00    -0.114 A  
HETATM   46  C   UNL     1      -8.999   7.107  68.988  1.00  0.00    -0.134 A  
HETATM   47  C   UNL     1     -10.781   6.177  67.439  1.00  0.00    -0.322 C  
ENDBRANCH  31  34
ENDBRANCH   3  31
TORSDOF 7
ENDMDL
MODEL      105
REMARK 921   NORMALIZED FREE ENERGY PREDICTED BY IDOCK:   -3.79 KCAL/MOL
REMARK 922        TOTAL FREE ENERGY PREDICTED BY IDOCK:   -5.98 KCAL/MOL
REMARK 923 INTER-LIGAND FREE ENERGY PREDICTED BY IDOCK:   -6.93 KCAL/MOL
REMARK 924 INTRA-LIGAND FREE ENERGY PREDICTED BY IDOCK:    0.95 KCAL/MOL
REMARK 927      BINDING AFFINITY PREDICTED BY RF-SCORE:    0.00 PKD
ROOT
HETATM    1  C   UNL     1      -7.875   8.523  69.673  1.00  0.00    -0.095 C  
HETATM    2  N   UNL     1      -9.191   9.163  69.560  1.00  0.00    -0.154 N  
HETATM    3  C   UNL     1     -10.422   8.495  69.603  1.00  0.00    -0.221 C  
HETATM    4  O   UNL     1     -11.454   9.085  69.257  1.00  0.00     0.201 OA 
ENDROOT
BRANCH   2   5
HETATM    5  C   UNL     1      -9.141  10.429  68.875  1.00  0.00    -0.173 A  
HETATM    6  C   UNL     1      -8.858  11.867  66.989  1.00  0.00    -0.190 A  
HETATM    7  C   UNL     1      -9.868  11.494  69.420  1.00  0.00     0.391 A  
HETATM    8  C   UNL     1      -8.545  10.625  67.614  1.00  0.00    -0.118 A  
HETATM    9  C   UNL     1      -9.595  12.898  67.594  1.00  0.00    -0.196 A  
HETATM   10  N   UNL     1     -10.084  12.695  68.828  1.00  0.00    -0.113 NA 
BRANCH   9  11
HETATM   11  N   UNL     1      -9.850  14.111  66.981  1.00  0.00    -0.252 NA 
HETATM   12  C   UNL     1     -11.217  14.680  66.981  1.00  0.00    -0.344 C  
HETATM   13  N   UNL     1     -10.183  17.042  66.972  1.00  0.00    -0.297 N  
HETATM   14  C   UNL     1     -10.592  17.521  65.599  1.00  0.00    -0.140 C  
HETATM   15  C   UNL     1      -8.843  14.955  66.335  1.00  0.00    -0.161 C  
HETATM   16  C   UNL     1     -11.245  16.107  67.598  1.00  0.00    -0.147 C  
HETATM   17  C   UNL     1      -8.814  16.351  66.980  1.00  0.00    -0.199 C  
BRANCH  13  18
HETATM   18  C   UNL     1     -10.017  18.275  67.873  1.00  0.00    -0.345 C  
BRANCH  18  19
HETATM   19  O   UNL     1      -8.699  18.649  68.137  1.00  0.00    -0.294 OA 
HETATM   20  O   UNL     1      -9.683  20.818  67.225  1.00  0.00    -0.479 OA 
HETATM   21  O   UNL     1      -7.156  20.655  68.015  1.00  0.00    -0.274 OA 
HETATM   22  O   UNL     1      -7.916  19.478  66.003  1.00  0.00    -0.326 OA 
HETATM   23  P   UNL     1      -8.393  20.068  67.422  1.00  0.00    -0.335 P  
ENDBRANCH  18  19
ENDBRANCH  13  18
ENDBRANCH   9  11
BRANCH   8  24
HETATM   24  C   UNL     1      -7.674   9.626  66.882  1.00  0.00    -0.098 A  
HETATM   25  C   UNL     1      -6.286   9.857  66.751  1.00  0.00    -0.064 A  
HETATM   26  C   UNL     1      -5.416   8.978  66.092  1.00  0.00    -0.041 A  
HETATM   27  C   UNL     1      -9.600   7.984  66.271  1.00  0.00    -0.223 C  
HETATM   28  C   UNL     1      -8.151   8.411  66.302  1.00  0.00    -0.105 A  
HETATM   29  C   UNL     1      -5.897   7.788  65.580  1.00  0.00    -0.038 A  
HETATM   30  C   UNL     1      -7.248   7.500  65.699  1.00  0.00    -0.066 A  
ENDBRANCH   8  24
ENDBRANCH   2   5
BRANCH   3  31
HETATM   31  C   UNL     1     -10.520   6.999  70.082  1.00  0.00    -0.232 C  
HETATM   32  C   UNL     1     -10.984   6.124  68.875  1.00  0.00    -0.424 C  
HETATM   33  C   UNL     1     -11.654   6.821  71.123  1.00  0.00    -0.377 C  
BRANCH  31  34
HETATM   34  C   UNL     1      -9.148   6.438  70.527  1.00  0.00    -0.155 A  
HETATM   35  F   UNL     1      -5.974   4.885  67.991  1.00  0.00    -0.022 F  
HETATM   36  C   UNL     1      -7.458   6.044  72.270  1.00  0.00    -0.095 A  
HETATM   37  C   UNL     1      -6.986   6.240  73.693  1.00  0.00    -0.083 C  
HETATM   38  F   UNL     1      -7.069   3.126  68.659  1.00  0.00    -0.046 F  
HETATM   39  C   UNL     1      -8.662   6.622  71.833  1.00  0.00    -0.128 A  
HETATM   40  C   UNL     1      -6.714   5.264  71.376  1.00  0.00    -0.048 A  
HETATM   41  F   UNL     1      -5.759   6.826  73.755  1.00  0.00    -0.051 F  
HETATM   42  F   UNL     1      -6.882   5.068  74.373  1.00  0.00    -0.066 F  
HETATM   43  F   UNL     1      -7.813   7.032  74.430  1.00  0.00    -0.113 F  
HETATM   44  F   UNL     1      -5.221   3.699  69.649  1.00  0.00    -0.006 F  
HETATM   45  C   UNL     1      -7.156   5.065  70.060  1.00  0.00    -0.054 A  
HETATM   46  C   UNL     1      -8.365   5.662  69.647  1.00  0.00    -0.107 A  
HETATM   47  C   UNL     1      -6.363   4.201  69.101  1.00  0.00    -0.029 C  
ENDBRANCH  31  34
ENDBRANCH   3  31
TORSDOF 7
ENDMDL
MODEL      106
REMARK 921   NORMALIZED FREE ENERGY PREDICTED BY IDOCK:   -3.70 KCAL/MOL
REMARK 922        TOTAL FREE ENERGY PREDICTED BY IDOCK:   -5.86 KCAL/MOL
REMARK 923 INTER-LIGAND FREE ENERGY PREDICTED BY IDOCK:   -5.73 KCAL/MOL
REMARK 924 INTRA-LIGAND FREE ENERGY PREDICTED BY IDOCK:   -0.13 KCAL/MOL
REMARK 927      BINDING AFFINITY PREDICTED BY RF-SCORE:    0.00 PKD
ROOT
HETATM    1  C   UNL     1      -7.635  14.129  70.367  1.00  0.00     1.324 C  
HETATM    2  N   UNL     1      -7.355  13.493  69.074  1.00  0.00    -0.050 N  
HETATM    3  C   UNL     1      -7.200  14.170  67.857  1.00  0.00    -0.158 C  
HETATM    4  O   UNL     1      -7.211  13.534  66.794  1.00  0.00     0.330 OA 
ENDROOT
BRANCH   2   5
HETATM    5  C   UNL     1      -7.773  12.115  69.025  1.00  0.00     0.128 A  
HETATM    6  C   UNL     1      -8.950  10.235  68.142  1.00  0.00    -0.130 A  
HETATM    7  C   UNL     1      -6.932  11.159  69.605  1.00  0.00    -0.088 A  
HETATM    8  C   UNL     1      -8.884  11.650  68.295  1.00  0.00    -0.167 A  
HETATM    9  C   UNL     1      -8.071   9.326  68.755  1.00  0.00    -0.104 A  
HETATM   10  N   UNL     1      -7.067   9.813  69.502  1.00  0.00    -0.066 NA 
BRANCH   9  11
HETATM   11  N   UNL     1      -8.183   7.954  68.622  1.00  0.00    -0.126 NA 
HETATM   12  C   UNL     1      -7.298   7.050  69.392  1.00  0.00    -0.091 C  
HETATM   13  N   UNL     1      -9.191   5.302  69.426  1.00  0.00    -0.110 N  
HETATM   14  C   UNL     1      -8.593   4.223  68.553  1.00  0.00    -0.093 C  
HETATM   15  C   UNL     1      -9.169   7.267  67.786  1.00  0.00    -0.126 C  
HETATM   16  C   UNL     1      -8.113   6.043  70.252  1.00  0.00    -0.111 C  
HETATM   17  C   UNL     1     -10.028   6.315  68.635  1.00  0.00    -0.145 C  
BRANCH  13  18
HETATM   18  C   UNL     1     -10.180   4.632  70.393  1.00  0.00    -0.138 C  
BRANCH  18  19
HETATM   19  O   UNL     1      -9.676   4.346  71.661  1.00  0.00    -0.153 OA 
HETATM   20  O   UNL     1     -11.999   5.240  72.215  1.00  0.00     0.063 OA 
HETATM   21  O   UNL     1     -10.331   4.419  74.108  1.00  0.00    -0.187 OA 
HETATM   22  O   UNL     1      -9.864   6.457  72.827  1.00  0.00    -0.168 OA 
HETATM   23  P   UNL     1     -10.619   5.037  72.780  1.00  0.00    -0.243 P  
ENDBRANCH  18  19
ENDBRANCH  13  18
ENDBRANCH   9  11
BRANCH   8  24
HETATM   24  C   UNL     1      -9.940  12.516  67.644  1.00  0.00    -0.201 A  
HETATM   25  C   UNL     1     -10.802  13.304  68.440  1.00  0.00    -0.279 A  
HETATM   26  C   UNL     1     -11.800  14.132  67.911  1.00  0.00    -0.405 A  
HETATM   27  C   UNL     1      -9.378  11.834  65.194  1.00  0.00    -0.030 C  
HETATM   28  C   UNL     1     -10.140  12.623  66.233  1.00  0.00    -0.264 A  
HETATM   29  C   UNL     1     -11.941  14.252  66.542  1.00  0.00    -0.448 A  
HETATM   30  C   UNL     1     -11.109  13.517  65.711  1.00  0.00    -0.295 A  
ENDBRANCH   8  24
ENDBRANCH   2   5
BRANCH   3  31
HETATM   31  C   UNL     1      -7.016  15.732  67.811  1.00  0.00    -0.173 C  
HETATM   32  C   UNL     1      -6.661  16.144  66.348  1.00  0.00     0.819 C  
HETATM   33  C   UNL     1      -5.777  16.171  68.629  1.00  0.00    -0.105 C  
BRANCH  31  34
HETATM   34  C   UNL     1      -8.321  16.483  68.172  1.00  0.00    -0.186 A  
HETATM   35  F   UNL     1     -10.339  19.552  65.842  1.00  0.00    -0.469 F  
HETATM   36  C   UNL     1     -10.303  16.771  69.599  1.00  0.00    -0.151 A  
HETATM   37  C   UNL     1     -11.165  16.285  70.742  1.00  0.00    -0.266 C  
HETATM   38  F   UNL     1      -9.139  20.647  67.292  1.00  0.00    -0.451 F  
HETATM   39  C   UNL     1      -9.163  16.048  69.210  1.00  0.00    -0.243 A  
HETATM   40  C   UNL     1     -10.615  17.962  68.931  1.00  0.00    -0.020 A  
HETATM   41  F   UNL     1     -12.454  16.069  70.362  1.00  0.00    -0.385 F  
HETATM   42  F   UNL     1     -11.215  17.171  71.771  1.00  0.00    -0.077 F  
HETATM   43  F   UNL     1     -10.735  15.109  71.278  1.00  0.00    -0.331 F  
HETATM   44  F   UNL     1     -11.259  20.330  67.651  1.00  0.00    -0.157 F  
HETATM   45  C   UNL     1      -9.809  18.426  67.882  1.00  0.00    -0.348 A  
HETATM   46  C   UNL     1      -8.674  17.677  67.507  1.00  0.00    -0.234 A  
HETATM   47  C   UNL     1     -10.133  19.726  67.176  1.00  0.00    -0.424 C  
ENDBRANCH  31  34
ENDBRANCH   3  31
TORSDOF 7
ENDMDL
MODEL      107
REMARK 921   NORMALIZED FREE ENERGY PREDICTED BY IDOCK:   -3.66 KCAL/MOL
REMARK 922        TOTAL FREE ENERGY PREDICTED BY IDOCK:   -5.80 KCAL/MOL
REMARK 923 INTER-LIGAND FREE ENERGY PREDICTED BY IDOCK:   -6.70 KCAL/MOL
REMARK 924 INTRA-LIGAND FREE ENERGY PREDICTED BY IDOCK:    0.89 KCAL/MOL
REMARK 927      BINDING AFFINITY PREDICTED BY RF-SCORE:    0.00 PKD
ROOT
HETATM    1  C   UNL     1      -9.292  10.830  69.225  1.00  0.00    -0.067 C  
HETATM    2  N   UNL     1      -7.829  10.934  69.167  1.00  0.00    -0.138 N  
HETATM    3  C   UNL     1      -6.932  10.148  69.903  1.00  0.00    -0.133 C  
HETATM    4  O   UNL     1      -5.739  10.473  69.969  1.00  0.00    -0.046 OA 
ENDROOT
BRANCH   2   5
HETATM    5  C   UNL     1      -7.376  12.229  68.725  1.00  0.00    -0.083 A  
HETATM    6  C   UNL     1      -7.500  14.263  67.482  1.00  0.00    -0.201 A  
HETATM    7  C   UNL     1      -6.523  12.944  69.574  1.00  0.00    -0.075 A  
HETATM    8  C   UNL     1      -7.858  12.887  67.577  1.00  0.00    -0.177 A  
HETATM    9  C   UNL     1      -6.635  14.924  68.370  1.00  0.00    -0.103 A  
HETATM   10  N   UNL     1      -6.141  14.236  69.413  1.00  0.00    -0.102 NA 
BRANCH   9  11
HETATM   11  N   UNL     1      -6.272  16.251  68.231  1.00  0.00    -0.116 NA 
HETATM   12  C   UNL     1      -5.952  16.807  66.897  1.00  0.00    -0.158 C  
HETATM   13  N   UNL     1      -6.837  19.095  67.689  1.00  0.00    -0.214 N  
HETATM   14  C   UNL     1      -5.558  19.899  67.707  1.00  0.00    -0.192 C  
HETATM   15  C   UNL     1      -6.212  17.226  69.322  1.00  0.00    -0.237 C  
HETATM   16  C   UNL     1      -6.840  18.038  66.559  1.00  0.00    -0.219 C  
HETATM   17  C   UNL     1      -7.137  18.419  69.032  1.00  0.00    -0.245 C  
BRANCH  13  18
HETATM   18  C   UNL     1      -8.004  20.068  67.459  1.00  0.00    -0.307 C  
BRANCH  18  19
HETATM   19  O   UNL     1      -9.121  19.523  66.827  1.00  0.00    -0.307 OA 
HETATM   20  O   UNL     1      -9.959  19.798  69.220  1.00  0.00    -0.412 OA 
HETATM   21  O   UNL     1     -11.509  18.822  67.302  1.00  0.00     0.267 OA 
HETATM   22  O   UNL     1      -9.590  17.541  68.133  1.00  0.00    -0.273 OA 
HETATM   23  P   UNL     1     -10.179  19.027  67.946  1.00  0.00    -0.414 P  
ENDBRANCH  18  19
ENDBRANCH  13  18
ENDBRANCH   9  11
BRANCH   8  24
HETATM   24  C   UNL     1      -8.737  12.274  66.509  1.00  0.00    -0.084 A  
HETATM   25  C   UNL     1     -10.038  12.779  66.284  1.00  0.00    -0.267 A  
HETATM   26  C   UNL     1     -10.908  12.267  65.313  1.00  0.00    -0.332 A  
HETATM   27  C   UNL     1      -7.027  10.460  65.758  1.00  0.00    -0.136 C  
HETATM   28  C   UNL     1      -8.344  11.193  65.662  1.00  0.00     0.002 A  
HETATM   29  C   UNL     1     -10.485  11.252  64.477  1.00  0.00    -0.396 A  
HETATM   30  C   UNL     1      -9.210  10.731  64.639  1.00  0.00    -0.249 A  
ENDBRANCH   8  24
ENDBRANCH   2   5
BRANCH   3  31
HETATM   31  C   UNL     1      -7.414   8.852  70.656  1.00  0.00    -0.091 C  
HETATM   32  C   UNL     1      -8.752   9.178  71.391  1.00  0.00    -0.089 C  
HETATM   33  C   UNL     1      -6.443   8.482  71.805  1.00  0.00    -0.070 C  
BRANCH  31  34
HETATM   34  C   UNL     1      -7.722   7.692  69.679  1.00  0.00    -0.099 A  
HETATM   35  F   UNL     1      -5.222   6.226  66.435  1.00  0.00    -0.010 F  
HETATM   36  C   UNL     1      -9.110   5.780  68.993  1.00  0.00    -0.123 A  
HETATM   37  C   UNL     1     -10.264   4.844  69.270  1.00  0.00    -0.135 C  
HETATM   38  F   UNL     1      -6.631   7.588  65.487  1.00  0.00    -0.043 F  
HETATM   39  C   UNL     1      -8.769   6.784  69.915  1.00  0.00    -0.141 A  
HETATM   40  C   UNL     1      -8.380   5.675  67.801  1.00  0.00    -0.100 A  
HETATM   41  F   UNL     1      -9.879   3.539  69.285  1.00  0.00    -0.245 F  
HETATM   42  F   UNL     1     -11.248   4.940  68.338  1.00  0.00     0.414 F  
HETATM   43  F   UNL     1     -10.861   5.069  70.473  1.00  0.00    -0.273 F  
HETATM   44  F   UNL     1      -6.980   5.443  65.426  1.00  0.00    -0.057 F  
HETATM   45  C   UNL     1      -7.320   6.553  67.532  1.00  0.00    -0.095 A  
HETATM   46  C   UNL     1      -6.996   7.546  68.478  1.00  0.00    -0.079 A  
HETATM   47  C   UNL     1      -6.548   6.454  66.232  1.00  0.00    -0.048 C  
ENDBRANCH  31  34
ENDBRANCH   3  31
TORSDOF 7
ENDMDL
MODEL      108
REMARK 921   NORMALIZED FREE ENERGY PREDICTED BY IDOCK:   -3.16 KCAL/MOL
REMARK 922        TOTAL FREE ENERGY PREDICTED BY IDOCK:   -5.10 KCAL/MOL
REMARK 923 INTER-LIGAND FREE ENERGY PREDICTED BY IDOCK:   -4.86 KCAL/MOL
REMARK 924 INTRA-LIGAND FREE ENERGY PREDICTED BY IDOCK:   -0.24 KCAL/MOL
REMARK 927      BINDING AFFINITY PREDICTED BY RF-SCORE:    0.00 PKD
ROOT
HETATM    1  C   UNL     1      -5.162  10.083  67.958  1.00  0.00    -0.035 C  
HETATM    2  N   UNL     1      -6.426  10.389  68.637  1.00  0.00    -0.051 N  
HETATM    3  C   UNL     1      -7.228   9.459  69.313  1.00  0.00    -0.066 C  
HETATM    4  O   UNL     1      -8.383   9.764  69.638  1.00  0.00    -0.139 OA 
ENDROOT
BRANCH   2   5
HETATM    5  C   UNL     1      -7.065  11.575  68.125  1.00  0.00    -0.076 A  
HETATM    6  C   UNL     1      -8.647  12.795  66.818  1.00  0.00    -0.084 A  
HETATM    7  C   UNL     1      -6.993  12.739  68.899  1.00  0.00    -0.084 A  
HETATM    8  C   UNL     1      -7.888  11.600  66.983  1.00  0.00    -0.164 A  
HETATM    9  C   UNL     1      -8.527  13.933  67.633  1.00  0.00    -0.192 A  
HETATM   10  N   UNL     1      -7.675  13.889  68.670  1.00  0.00    -0.136 NA 
BRANCH   9  11
HETATM   11  N   UNL     1      -9.247  15.095  67.426  1.00  0.00    -0.190 NA 
HETATM   12  C   UNL     1      -9.423  16.075  68.522  1.00  0.00    -0.216 C  
HETATM   13  N   UNL     1      -9.497  17.958  66.763  1.00  0.00    -0.278 N  
HETATM   14  C   UNL     1     -10.935  18.405  66.893  1.00  0.00     0.037 C  
HETATM   15  C   UNL     1      -9.849  15.497  66.154  1.00  0.00    -0.316 C  
HETATM   16  C   UNL     1      -8.914  17.488  68.117  1.00  0.00    -0.266 C  
HETATM   17  C   UNL     1      -9.305  16.864  65.706  1.00  0.00     0.040 C  
BRANCH  13  18
HETATM   18  C   UNL     1      -8.675  19.154  66.259  1.00  0.00    -0.295 C  
BRANCH  18  19
HETATM   19  O   UNL     1      -7.602  19.525  67.068  1.00  0.00    -0.234 OA 
HETATM   20  O   UNL     1      -6.597  19.756  64.736  1.00  0.00    -0.329 OA 
HETATM   21  O   UNL     1      -5.197  20.310  66.919  1.00  0.00    -0.156 OA 
HETATM   22  O   UNL     1      -5.844  18.003  66.400  1.00  0.00    -0.145 OA 
HETATM   23  P   UNL     1      -6.247  19.546  66.184  1.00  0.00    -0.188 P  
ENDBRANCH  18  19
ENDBRANCH  13  18
ENDBRANCH   9  11
BRANCH   8  24
HETATM   24  C   UNL     1      -8.055  10.472  65.987  1.00  0.00    -0.148 A  
HETATM   25  C   UNL     1      -7.197  10.379  64.869  1.00  0.00    -0.051 A  
HETATM   26  C   UNL     1      -7.288   9.364  63.908  1.00  0.00    -0.105 A  
HETATM   27  C   UNL     1     -10.095   9.368  67.171  1.00  0.00    -0.292 C  
HETATM   28  C   UNL     1      -9.038   9.441  66.094  1.00  0.00    -0.214 A  
HETATM   29  C   UNL     1      -8.218   8.353  64.060  1.00  0.00    -0.115 A  
HETATM   30  C   UNL     1      -9.073   8.383  65.151  1.00  0.00     0.087 A  
ENDBRANCH   8  24
ENDBRANCH   2   5
BRANCH   3  31
HETATM   31  C   UNL     1      -6.688   8.024  69.666  1.00  0.00    -0.038 C  
HETATM   32  C   UNL     1      -5.984   8.090  71.058  1.00  0.00    -0.033 C  
HETATM   33  C   UNL     1      -5.554   7.601  68.699  1.00  0.00    -0.027 C  
BRANCH  31  34
HETATM   34  C   UNL     1      -7.831   6.989  69.803  1.00  0.00    -0.115 A  
HETATM   35  F   UNL     1     -12.048   7.568  68.905  1.00  0.00     0.959 F  
HETATM   36  C   UNL     1      -8.602   4.687  70.202  1.00  0.00    -0.101 A  
HETATM   37  C   UNL     1      -8.279   3.229  70.433  1.00  0.00    -0.051 C  
HETATM   38  F   UNL     1     -11.883   7.883  71.054  1.00  0.00    -0.285 F  
HETATM   39  C   UNL     1      -7.573   5.620  69.991  1.00  0.00    -0.082 A  
HETATM   40  C   UNL     1      -9.930   5.133  70.220  1.00  0.00    -0.320 A  
HETATM   41  F   UNL     1      -8.864   2.418  69.509  1.00  0.00    -0.098 F  
HETATM   42  F   UNL     1      -8.698   2.788  71.648  1.00  0.00    -0.079 F  
HETATM   43  F   UNL     1      -6.946   2.958  70.373  1.00  0.00    -0.032 F  
HETATM   44  F   UNL     1     -12.568   5.970  70.283  1.00  0.00     0.340 F  
HETATM   45  C   UNL     1     -10.234   6.487  70.024  1.00  0.00    -0.219 A  
HETATM   46  C   UNL     1      -9.181   7.400  69.808  1.00  0.00    -0.140 A  
HETATM   47  C   UNL     1     -11.669   6.971  70.068  1.00  0.00    -0.136 C  
ENDBRANCH  31  34
ENDBRANCH   3  31
TORSDOF 7
ENDMDL
MODEL      109
REMARK 921   NORMALIZED FREE ENERGY PREDICTED BY IDOCK:   -3.13 KCAL/MOL
REMARK 922        TOTAL FREE ENERGY PREDICTED BY IDOCK:   -5.05 KCAL/MOL
REMARK 923 INTER-LIGAND FREE ENERGY PREDICTED BY IDOCK:   -8.25 KCAL/MOL
REMARK 924 INTRA-LIGAND FREE ENERGY PREDICTED BY IDOCK:    3.20 KCAL/MOL
REMARK 927      BINDING AFFINITY PREDICTED BY RF-SCORE:    0.00 PKD
ROOT
HETATM    1  C   UNL     1     -11.972  12.892  66.942  1.00  0.00    -0.335 C  
HETATM    2  N   UNL     1     -10.536  12.938  67.239  1.00  0.00    -0.233 N  
HETATM    3  C   UNL     1      -9.733  11.827  67.528  1.00  0.00    -0.180 C  
HETATM    4  O   UNL     1      -8.601  11.992  68.001  1.00  0.00    -0.154 OA 
ENDROOT
BRANCH   2   5
HETATM    5  C   UNL     1     -10.108  14.220  67.739  1.00  0.00    -0.231 A  
HETATM    6  C   UNL     1      -9.657  15.852  69.422  1.00  0.00    -0.265 A  
HETATM    7  C   UNL     1      -9.204  14.953  66.961  1.00  0.00    -0.234 A  
HETATM    8  C   UNL     1     -10.410  14.710  69.024  1.00  0.00    -0.237 A  
HETATM    9  C   UNL     1      -8.763  16.546  68.589  1.00  0.00    -0.244 A  
HETATM   10  N   UNL     1      -8.559  16.083  67.344  1.00  0.00    -0.173 NA 
BRANCH   9  11
HETATM   11  N   UNL     1      -8.074  17.676  68.988  1.00  0.00    -0.141 NA 
HETATM   12  C   UNL     1      -6.671  17.578  69.452  1.00  0.00    -0.179 C  
HETATM   13  N   UNL     1      -6.248  19.948  68.532  1.00  0.00    -0.258 N  
HETATM   14  C   UNL     1      -6.026  20.712  69.816  1.00  0.00    -0.242 C  
HETATM   15  C   UNL     1      -8.605  19.041  68.954  1.00  0.00    -0.255 C  
HETATM   16  C   UNL     1      -5.726  18.495  68.625  1.00  0.00    -0.191 C  
HETATM   17  C   UNL     1      -7.715  19.945  68.084  1.00  0.00    -0.279 C  
BRANCH  13  18
HETATM   18  C   UNL     1      -5.488  20.676  67.412  1.00  0.00    -0.186 C  
BRANCH  18  19
HETATM   19  O   UNL     1      -6.272  21.122  66.350  1.00  0.00    -0.264 OA 
HETATM   20  O   UNL     1      -6.302  18.598  65.992  1.00  0.00    -0.186 OA 
HETATM   21  O   UNL     1      -7.608  20.251  64.380  1.00  0.00     0.299 OA 
HETATM   22  O   UNL     1      -5.156  20.208  64.408  1.00  0.00    -0.154 OA 
HETATM   23  P   UNL     1      -6.472  19.917  65.288  1.00  0.00    -0.281 P  
ENDBRANCH  18  19
ENDBRANCH  13  18
ENDBRANCH   9  11
BRANCH   8  24
HETATM   24  C   UNL     1     -11.401  14.101  69.993  1.00  0.00    -0.195 A  
HETATM   25  C   UNL     1     -11.769  12.742  69.871  1.00  0.00    -0.321 A  
HETATM   26  C   UNL     1     -12.676  12.108  70.730  1.00  0.00    -0.220 A  
HETATM   27  C   UNL     1     -11.811  16.277  71.364  1.00  0.00    -0.394 C  
HETATM   28  C   UNL     1     -12.010  14.807  71.075  1.00  0.00    -0.389 A  
HETATM   29  C   UNL     1     -13.215  12.802  71.796  1.00  0.00    -0.471 A  
HETATM   30  C   UNL     1     -12.872  14.133  71.976  1.00  0.00    -0.423 A  
ENDBRANCH   8  24
ENDBRANCH   2   5
BRANCH   3  31
HETATM   31  C   UNL     1     -10.246  10.362  67.267  1.00  0.00    -0.258 C  
HETATM   32  C   UNL     1     -10.038  10.029  65.756  1.00  0.00    -0.320 C  
HETATM   33  C   UNL     1     -11.780  10.266  67.457  1.00  0.00     0.904 C  
BRANCH  31  34
HETATM   34  C   UNL     1      -9.435   9.310  68.062  1.00  0.00    -0.152 A  
HETATM   35  F   UNL     1      -6.474   6.526  66.513  1.00  0.00    -0.037 F  
HETATM   36  C   UNL     1      -8.718   8.326  70.199  1.00  0.00    -0.133 A  
HETATM   37  C   UNL     1      -8.709   8.361  71.710  1.00  0.00    -0.180 C  
HETATM   38  F   UNL     1      -8.324   5.381  66.610  1.00  0.00    -0.108 F  
HETATM   39  C   UNL     1      -9.380   9.325  69.467  1.00  0.00    -0.177 A  
HETATM   40  C   UNL     1      -8.087   7.282  69.509  1.00  0.00    -0.129 A  
HETATM   41  F   UNL     1      -7.448   8.405  72.219  1.00  0.00    -0.112 F  
HETATM   42  F   UNL     1      -9.305   7.270  72.260  1.00  0.00    -0.145 F  
HETATM   43  F   UNL     1      -9.355   9.443  72.226  1.00  0.00    -0.003 F  
HETATM   44  F   UNL     1      -6.843   5.192  68.189  1.00  0.00    -0.052 F  
HETATM   45  C   UNL     1      -8.107   7.235  68.108  1.00  0.00    -0.124 A  
HETATM   46  C   UNL     1      -8.774   8.256  67.399  1.00  0.00    -0.125 A  
HETATM   47  C   UNL     1      -7.445   6.094  67.364  1.00  0.00    -0.082 C  
ENDBRANCH  31  34
ENDBRANCH   3  31
TORSDOF 7
ENDMDL
MODEL      110
REMARK 921   NORMALIZED FREE ENERGY PREDICTED BY IDOCK:   -3.06 KCAL/MOL
REMARK 922        TOTAL FREE ENERGY PREDICTED BY IDOCK:   -4.96 KCAL/MOL
REMARK 923 INTER-LIGAND FREE ENERGY PREDICTED BY IDOCK:   -8.17 KCAL/MOL
REMARK 924 INTRA-LIGAND FREE ENERGY PREDICTED BY IDOCK:    3.21 KCAL/MOL
REMARK 927      BINDING AFFINITY PREDICTED BY RF-SCORE:    0.00 PKD
ROOT
HETATM    1  C   UNL     1     -11.971  12.889  66.939  1.00  0.00    -0.335 C  
HETATM    2  N   UNL     1     -10.531  12.935  67.219  1.00  0.00    -0.233 N  
HETATM    3  C   UNL     1      -9.720  11.821  67.472  1.00  0.00    -0.180 C  
HETATM    4  O   UNL     1      -8.583  11.980  67.934  1.00  0.00    -0.149 OA 
ENDROOT
BRANCH   2   5
HETATM    5  C   UNL     1     -10.102  14.207  67.743  1.00  0.00    -0.239 A  
HETATM    6  C   UNL     1      -9.637  15.801  69.459  1.00  0.00    -0.262 A  
HETATM    7  C   UNL     1      -9.212  14.962  66.972  1.00  0.00    -0.234 A  
HETATM    8  C   UNL     1     -10.391  14.666  69.043  1.00  0.00    -0.237 A  
HETATM    9  C   UNL     1      -8.756  16.518  68.632  1.00  0.00    -0.244 A  
HETATM   10  N   UNL     1      -8.566  16.086  67.374  1.00  0.00    -0.173 NA 
BRANCH   9  11
HETATM   11  N   UNL     1      -8.068  17.642  69.048  1.00  0.00    -0.141 NA 
HETATM   12  C   UNL     1      -6.660  17.538  69.496  1.00  0.00    -0.160 C  
HETATM   13  N   UNL     1      -6.255  19.930  68.624  1.00  0.00    -0.260 N  
HETATM   14  C   UNL     1      -6.022  20.666  69.923  1.00  0.00    -0.208 C  
HETATM   15  C   UNL     1      -8.603  19.005  69.051  1.00  0.00    -0.164 C  
HETATM   16  C   UNL     1      -5.726  18.477  68.679  1.00  0.00    -0.191 C  
HETATM   17  C   UNL     1      -7.726  19.932  68.192  1.00  0.00    -0.279 C  
BRANCH  13  18
HETATM   18  C   UNL     1      -5.509  20.686  67.514  1.00  0.00    -0.198 C  
BRANCH  18  19
HETATM   19  O   UNL     1      -6.307  21.153  66.469  1.00  0.00    -0.274 OA 
HETATM   20  O   UNL     1      -6.309  18.640  66.039  1.00  0.00    -0.186 OA 
HETATM   21  O   UNL     1      -7.646  20.323  64.485  1.00  0.00     0.183 OA 
HETATM   22  O   UNL     1      -5.194  20.308  64.494  1.00  0.00    -0.160 OA 
HETATM   23  P   UNL     1      -6.499  19.977  65.375  1.00  0.00    -0.291 P  
ENDBRANCH  18  19
ENDBRANCH  13  18
ENDBRANCH   9  11
BRANCH   8  24
HETATM   24  C   UNL     1     -11.367  14.030  70.010  1.00  0.00    -0.163 A  
HETATM   25  C   UNL     1     -11.729  12.671  69.862  1.00  0.00    -0.320 A  
HETATM   26  C   UNL     1     -12.622  12.013  70.717  1.00  0.00    -0.312 A  
HETATM   27  C   UNL     1     -11.773  16.172  71.434  1.00  0.00    -0.506 C  
HETATM   28  C   UNL     1     -11.967  14.708  71.114  1.00  0.00    -0.405 A  
HETATM   29  C   UNL     1     -13.152  12.680  71.805  1.00  0.00    -0.461 A  
HETATM   30  C   UNL     1     -12.815  14.009  72.010  1.00  0.00    -0.415 A  
ENDBRANCH   8  24
ENDBRANCH   2   5
BRANCH   3  31
HETATM   31  C   UNL     1     -10.230  10.360  67.183  1.00  0.00    -0.271 C  
HETATM   32  C   UNL     1     -10.602  10.258  65.670  1.00  0.00    -0.044 C  
HETATM   33  C   UNL     1     -11.569  10.083  67.911  1.00  0.00     0.473 C  
BRANCH  31  34
HETATM   34  C   UNL     1      -9.132   9.299  67.436  1.00  0.00    -0.141 A  
HETATM   35  F   UNL     1      -8.532   6.914  71.024  1.00  0.00    -0.124 F  
HETATM   36  C   UNL     1      -7.287   7.889  66.625  1.00  0.00    -0.088 A  
HETATM   37  C   UNL     1      -6.439   7.388  65.477  1.00  0.00    -0.044 C  
HETATM   38  F   UNL     1      -7.158   8.591  71.228  1.00  0.00    -0.051 F  
HETATM   39  C   UNL     1      -8.341   8.788  66.392  1.00  0.00    -0.117 A  
HETATM   40  C   UNL     1      -7.016   7.484  67.938  1.00  0.00    -0.076 A  
HETATM   41  F   UNL     1      -6.467   6.032  65.368  1.00  0.00    -0.037 F  
HETATM   42  F   UNL     1      -5.132   7.734  65.606  1.00  0.00    -0.024 F  
HETATM   43  F   UNL     1      -6.838   7.866  64.266  1.00  0.00    -0.057 F  
HETATM   44  F   UNL     1      -6.433   6.670  70.518  1.00  0.00    -0.041 F  
HETATM   45  C   UNL     1      -7.788   7.959  69.007  1.00  0.00    -0.110 A  
HETATM   46  C   UNL     1      -8.844   8.855  68.744  1.00  0.00    -0.137 A  
HETATM   47  C   UNL     1      -7.479   7.539  70.429  1.00  0.00    -0.081 C  
ENDBRANCH  31  34
ENDBRANCH   3  31
TORSDOF 7
ENDMDL
MODEL      111
REMARK 921   NORMALIZED FREE ENERGY PREDICTED BY IDOCK:   -3.06 KCAL/MOL
REMARK 922        TOTAL FREE ENERGY PREDICTED BY IDOCK:   -4.95 KCAL/MOL
REMARK 923 INTER-LIGAND FREE ENERGY PREDICTED BY IDOCK:   -4.69 KCAL/MOL
REMARK 924 INTRA-LIGAND FREE ENERGY PREDICTED BY IDOCK:   -0.25 KCAL/MOL
REMARK 927      BINDING AFFINITY PREDICTED BY RF-SCORE:    0.00 PKD
ROOT
HETATM    1  C   UNL     1      -8.234  14.817  69.168  1.00  0.00    -0.106 C  
HETATM    2  N   UNL     1      -8.152  14.459  67.747  1.00  0.00    -0.154 N  
HETATM    3  C   UNL     1      -8.809  15.127  66.705  1.00  0.00    -0.271 C  
HETATM    4  O   UNL     1      -8.872  14.606  65.584  1.00  0.00     0.450 OA 
ENDROOT
BRANCH   2   5
HETATM    5  C   UNL     1      -7.795  13.078  67.536  1.00  0.00    -0.178 A  
HETATM    6  C   UNL     1      -8.223  10.760  67.157  1.00  0.00    -0.123 A  
HETATM    7  C   UNL     1      -6.535  12.808  66.990  1.00  0.00     0.271 A  
HETATM    8  C   UNL     1      -8.685  11.998  67.691  1.00  0.00    -0.166 A  
HETATM    9  C   UNL     1      -6.941  10.554  66.622  1.00  0.00    -0.113 A  
HETATM   10  N   UNL     1      -6.098  11.598  66.559  1.00  0.00    -0.120 NA 
BRANCH   9  11
HETATM   11  N   UNL     1      -6.504   9.331  66.147  1.00  0.00    -0.068 NA 
HETATM   12  C   UNL     1      -6.110   8.257  67.087  1.00  0.00    -0.055 C  
HETATM   13  N   UNL     1      -6.899   6.517  65.356  1.00  0.00    -0.047 N  
HETATM   14  C   UNL     1      -5.580   5.888  64.970  1.00  0.00    -0.020 C  
HETATM   15  C   UNL     1      -6.429   8.955  64.734  1.00  0.00    -0.066 C  
HETATM   16  C   UNL     1      -6.920   6.952  66.840  1.00  0.00    -0.070 C  
HETATM   17  C   UNL     1      -7.279   7.703  64.461  1.00  0.00    -0.076 C  
BRANCH  13  18
HETATM   18  C   UNL     1      -8.003   5.473  65.131  1.00  0.00    -0.110 C  
BRANCH  18  19
HETATM   19  O   UNL     1      -7.699   4.180  65.554  1.00  0.00    -0.084 OA 
HETATM   20  O   UNL     1      -8.907   3.735  63.353  1.00  0.00    -0.095 OA 
HETATM   21  O   UNL     1      -7.943   1.761  64.839  1.00  0.00    -0.071 OA 
HETATM   22  O   UNL     1      -9.857   3.087  65.609  1.00  0.00     0.062 OA 
HETATM   23  P   UNL     1      -8.546   3.116  64.676  1.00  0.00    -0.104 P  
ENDBRANCH  18  19
ENDBRANCH  13  18
ENDBRANCH   9  11
BRANCH   8  24
HETATM   24  C   UNL     1     -10.064  12.069  68.312  1.00  0.00    -0.201 A  
HETATM   25  C   UNL     1     -10.982  13.058  67.892  1.00  0.00    -0.264 A  
HETATM   26  C   UNL     1     -12.274  13.185  68.418  1.00  0.00    -0.065 A  
HETATM   27  C   UNL     1      -9.723  10.079  69.957  1.00  0.00    -0.224 C  
HETATM   28  C   UNL     1     -10.543  11.175  69.318  1.00  0.00    -0.212 A  
HETATM   29  C   UNL     1     -12.728  12.278  69.356  1.00  0.00     0.722 A  
HETATM   30  C   UNL     1     -11.877  11.274  69.789  1.00  0.00    -0.437 A  
ENDBRANCH   8  24
ENDBRANCH   2   5
BRANCH   3  31
HETATM   31  C   UNL     1      -9.476  16.534  66.933  1.00  0.00    -0.250 C  
HETATM   32  C   UNL     1     -10.220  16.510  68.305  1.00  0.00    -0.268 C  
HETATM   33  C   UNL     1     -10.607  16.787  65.905  1.00  0.00    -0.255 C  
BRANCH  31  34
HETATM   34  C   UNL     1      -8.427  17.668  67.024  1.00  0.00    -0.252 A  
HETATM   35  F   UNL     1      -7.125  20.330  63.840  1.00  0.00     0.171 F  
HETATM   36  C   UNL     1      -6.945  19.115  68.351  1.00  0.00    -0.303 A  
HETATM   37  C   UNL     1      -6.446  19.578  69.701  1.00  0.00    -0.315 C  
HETATM   38  F   UNL     1      -5.629  18.749  63.897  1.00  0.00    -0.282 F  
HETATM   39  C   UNL     1      -7.958  18.146  68.260  1.00  0.00    -0.304 A  
HETATM   40  C   UNL     1      -6.386  19.627  67.173  1.00  0.00    -0.203 A  
HETATM   41  F   UNL     1      -6.595  20.920  69.874  1.00  0.00    -0.073 F  
HETATM   42  F   UNL     1      -5.126  19.314  69.887  1.00  0.00    -0.180 F  
HETATM   43  F   UNL     1      -7.098  18.995  70.744  1.00  0.00     0.639 F  
HETATM   44  F   UNL     1      -5.239  20.652  64.872  1.00  0.00    -0.185 F  
HETATM   45  C   UNL     1      -6.833  19.187  65.918  1.00  0.00    -0.295 A  
HETATM   46  C   UNL     1      -7.856  18.219  65.857  1.00  0.00    -0.082 A  
HETATM   47  C   UNL     1      -6.211  19.723  64.646  1.00  0.00    -0.263 C  
ENDBRANCH  31  34
ENDBRANCH   3  31
TORSDOF 7
ENDMDL
MODEL      112
REMARK 921   NORMALIZED FREE ENERGY PREDICTED BY IDOCK:   -2.96 KCAL/MOL
REMARK 922        TOTAL FREE ENERGY PREDICTED BY IDOCK:   -4.82 KCAL/MOL
REMARK 923 INTER-LIGAND FREE ENERGY PREDICTED BY IDOCK:   -7.49 KCAL/MOL
REMARK 924 INTRA-LIGAND FREE ENERGY PREDICTED BY IDOCK:    2.67 KCAL/MOL
REMARK 927      BINDING AFFINITY PREDICTED BY RF-SCORE:    0.00 PKD
ROOT
HETATM    1  C   UNL     1      -9.072  15.277  69.429  1.00  0.00    -0.228 C  
HETATM    2  N   UNL     1      -8.857  14.825  68.049  1.00  0.00    -0.165 N  
HETATM    3  C   UNL     1      -9.289  15.501  66.900  1.00  0.00    -0.233 C  
HETATM    4  O   UNL     1      -9.275  14.923  65.805  1.00  0.00    -0.214 OA 
ENDROOT
BRANCH   2   5
HETATM    5  C   UNL     1      -8.650  13.403  67.951  1.00  0.00    -0.184 A  
HETATM    6  C   UNL     1      -9.303  11.107  68.001  1.00  0.00    -0.166 A  
HETATM    7  C   UNL     1      -7.581  12.953  67.168  1.00  0.00    -0.028 A  
HETATM    8  C   UNL     1      -9.542  12.436  68.455  1.00  0.00    -0.121 A  
HETATM    9  C   UNL     1      -8.206  10.719  67.215  1.00  0.00    -0.121 A  
HETATM   10  N   UNL     1      -7.340  11.665  66.816  1.00  0.00    -0.119 NA 
BRANCH   9  11
HETATM   11  N   UNL     1      -7.976   9.414  66.822  1.00  0.00    -0.108 NA 
HETATM   12  C   UNL     1      -6.662   8.775  67.066  1.00  0.00    -0.066 C  
HETATM   13  N   UNL     1      -7.859   6.503  67.287  1.00  0.00    -0.104 N  
HETATM   14  C   UNL     1      -7.341   5.794  66.058  1.00  0.00    -0.077 C  
HETATM   15  C   UNL     1      -8.966   8.537  66.194  1.00  0.00    -0.179 C  
HETATM   16  C   UNL     1      -6.805   7.463  67.888  1.00  0.00    -0.074 C  
HETATM   17  C   UNL     1      -9.167   7.262  67.032  1.00  0.00    -0.145 C  
BRANCH  13  18
HETATM   18  C   UNL     1      -8.211   5.436  68.335  1.00  0.00    -0.094 C  
BRANCH  18  19
HETATM   19  O   UNL     1      -8.041   5.824  69.663  1.00  0.00    -0.101 OA 
HETATM   20  O   UNL     1      -8.229   3.291  69.882  1.00  0.00    -0.051 OA 
HETATM   21  O   UNL     1      -7.855   4.850  71.995  1.00  0.00    -0.102 OA 
HETATM   22  O   UNL     1      -9.979   4.890  70.770  1.00  0.00    -0.195 OA 
HETATM   23  P   UNL     1      -8.406   4.582  70.634  1.00  0.00    -0.076 P  
ENDBRANCH  18  19
ENDBRANCH  13  18
ENDBRANCH   9  11
BRANCH   8  24
HETATM   24  C   UNL     1     -10.720  12.709  69.365  1.00  0.00     0.139 A  
HETATM   25  C   UNL     1     -11.172  14.033  69.564  1.00  0.00    -0.249 A  
HETATM   26  C   UNL     1     -12.256  14.363  70.388  1.00  0.00    -0.404 A  
HETATM   27  C   UNL     1     -11.120  10.226  70.041  1.00  0.00    -0.373 C  
HETATM   28  C   UNL     1     -11.455  11.699  70.058  1.00  0.00    -0.266 A  
HETATM   29  C   UNL     1     -12.978  13.363  71.009  1.00  0.00    -0.260 A  
HETATM   30  C   UNL     1     -12.592  12.043  70.833  1.00  0.00    -0.347 A  
ENDBRANCH   8  24
ENDBRANCH   2   5
BRANCH   3  31
HETATM   31  C   UNL     1      -9.800  16.987  66.973  1.00  0.00    -0.270 C  
HETATM   32  C   UNL     1     -10.663  17.149  68.264  1.00  0.00    -0.363 C  
HETATM   33  C   UNL     1     -10.795  17.291  65.825  1.00  0.00    -0.023 C  
BRANCH  31  34
HETATM   34  C   UNL     1      -8.635  17.999  67.095  1.00  0.00    -0.244 A  
HETATM   35  F   UNL     1      -7.069  20.619  63.996  1.00  0.00    -0.131 F  
HETATM   36  C   UNL     1      -7.000  19.229  68.460  1.00  0.00    -0.329 A  
HETATM   37  C   UNL     1      -6.448  19.587  69.821  1.00  0.00    -0.293 C  
HETATM   38  F   UNL     1      -5.751  18.885  63.985  1.00  0.00    -0.294 F  
HETATM   39  C   UNL     1      -8.112  18.378  68.344  1.00  0.00    -0.327 A  
HETATM   40  C   UNL     1      -6.394  19.720  67.296  1.00  0.00    -0.209 A  
HETATM   41  F   UNL     1      -6.451  20.930  70.043  1.00  0.00    -0.131 F  
HETATM   42  F   UNL     1      -5.163  19.177  69.987  1.00  0.00    -0.184 F  
HETATM   43  F   UNL     1      -7.154  19.040  70.848  1.00  0.00     0.791 F  
HETATM   44  F   UNL     1      -5.155  20.699  65.023  1.00  0.00    -0.187 F  
HETATM   45  C   UNL     1      -6.892  19.376  66.031  1.00  0.00    -0.269 A  
HETATM   46  C   UNL     1      -8.013  18.526  65.944  1.00  0.00    -0.042 A  
HETATM   47  C   UNL     1      -6.221  19.889  64.772  1.00  0.00    -0.278 C  
ENDBRANCH  31  34
ENDBRANCH   3  31
TORSDOF 7
ENDMDL
MODEL      113
REMARK 921   NORMALIZED FREE ENERGY PREDICTED BY IDOCK:   -1.80 KCAL/MOL
REMARK 922        TOTAL FREE ENERGY PREDICTED BY IDOCK:   -3.18 KCAL/MOL
REMARK 923 INTER-LIGAND FREE ENERGY PREDICTED BY IDOCK:   -4.08 KCAL/MOL
REMARK 924 INTRA-LIGAND FREE ENERGY PREDICTED BY IDOCK:    0.90 KCAL/MOL
REMARK 927      BINDING AFFINITY PREDICTED BY RF-SCORE:    0.00 PKD
ROOT
HETATM    1  C   UNL     1      -8.571  14.049  67.346  1.00  0.00    -0.203 C  
HETATM    2  N   UNL     1      -9.596  13.106  66.884  1.00  0.00    -0.240 N  
HETATM    3  C   UNL     1     -10.928  13.435  66.600  1.00  0.00    -0.287 C  
HETATM    4  O   UNL     1     -11.766  12.535  66.455  1.00  0.00    -0.374 OA 
ENDROOT
BRANCH   2   5
HETATM    5  C   UNL     1      -9.306  11.742  67.246  1.00  0.00    -0.171 A  
HETATM    6  C   UNL     1      -8.763   9.455  66.827  1.00  0.00    -0.138 A  
HETATM    7  C   UNL     1      -8.784  11.503  68.522  1.00  0.00    -0.138 A  
HETATM    8  C   UNL     1      -9.362  10.656  66.350  1.00  0.00    -0.195 A  
HETATM    9  C   UNL     1      -8.256   9.279  68.126  1.00  0.00    -0.119 A  
HETATM   10  N   UNL     1      -8.289  10.322  68.971  1.00  0.00    -0.137 NA 
BRANCH   9  11
HETATM   11  N   UNL     1      -7.716   8.089  68.576  1.00  0.00    -0.104 NA 
HETATM   12  C   UNL     1      -8.317   7.379  69.729  1.00  0.00    -0.134 C  
HETATM   13  N   UNL     1      -7.554   5.146  68.693  1.00  0.00    -0.077 N  
HETATM   14  C   UNL     1      -6.508   4.715  69.696  1.00  0.00    -0.032 C  
HETATM   15  C   UNL     1      -6.576   7.399  67.970  1.00  0.00    -0.054 C  
HETATM   16  C   UNL     1      -8.713   5.921  69.363  1.00  0.00    -0.116 C  
HETATM   17  C   UNL     1      -6.971   5.975  67.542  1.00  0.00    -0.069 C  
BRANCH  13  18
HETATM   18  C   UNL     1      -8.121   3.881  68.030  1.00  0.00    -0.088 C  
BRANCH  18  19
HETATM   19  O   UNL     1      -7.820   3.729  66.677  1.00  0.00    -0.087 OA 
HETATM   20  O   UNL     1      -9.150   1.607  67.155  1.00  0.00    -0.127 OA 
HETATM   21  O   UNL     1      -8.192   2.139  64.740  1.00  0.00    -0.077 OA 
HETATM   22  O   UNL     1      -6.681   1.597  66.594  1.00  0.00    -0.033 OA 
HETATM   23  P   UNL     1      -8.126   2.205  66.229  1.00  0.00    -0.093 P  
ENDBRANCH  18  19
ENDBRANCH  13  18
ENDBRANCH   9  11
BRANCH   8  24
HETATM   24  C   UNL     1      -9.942  10.691  64.952  1.00  0.00    -0.382 A  
HETATM   25  C   UNL     1     -11.318  10.951  64.761  1.00  0.00     0.428 A  
HETATM   26  C   UNL     1     -11.925  11.002  63.500  1.00  0.00     1.049 A  
HETATM   27  C   UNL     1      -7.713  10.145  63.720  1.00  0.00    -0.141 C  
HETATM   28  C   UNL     1      -9.183  10.491  63.758  1.00  0.00    -0.292 A  
HETATM   29  C   UNL     1     -11.160  10.851  62.360  1.00  0.00     1.805 A  
HETATM   30  C   UNL     1      -9.800  10.614  62.487  1.00  0.00    -0.070 A  
ENDBRANCH   8  24
ENDBRANCH   2   5
BRANCH   3  31
HETATM   31  C   UNL     1     -11.386  14.934  66.465  1.00  0.00    -0.319 C  
HETATM   32  C   UNL     1     -12.921  14.958  66.182  1.00  0.00     1.032 C  
HETATM   33  C   UNL     1     -10.770  15.594  65.206  1.00  0.00    -0.444 C  
BRANCH  31  34
HETATM   34  C   UNL     1     -11.170  15.730  67.774  1.00  0.00    -0.286 A  
HETATM   35  F   UNL     1     -10.087  19.924  68.176  1.00  0.00    -0.462 F  
HETATM   36  C   UNL     1     -11.304  15.902  70.225  1.00  0.00    -0.381 A  
HETATM   37  C   UNL     1     -11.727  15.308  71.549  1.00  0.00    -0.391 C  
HETATM   38  F   UNL     1      -8.208  18.840  68.357  1.00  0.00    -0.311 F  
HETATM   39  C   UNL     1     -11.573  15.225  69.023  1.00  0.00    -0.360 A  
HETATM   40  C   UNL     1     -10.617  17.122  70.179  1.00  0.00     0.420 A  
HETATM   41  F   UNL     1     -12.561  16.132  72.242  1.00  0.00    -0.468 F  
HETATM   42  F   UNL     1     -10.672  15.059  72.368  1.00  0.00    -0.216 F  
HETATM   43  F   UNL     1     -12.393  14.128  71.421  1.00  0.00    -0.370 F  
HETATM   44  F   UNL     1      -9.246  19.526  70.139  1.00  0.00     0.217 F  
HETATM   45  C   UNL     1     -10.208  17.668  68.954  1.00  0.00    -0.354 A  
HETATM   46  C   UNL     1     -10.497  16.970  67.763  1.00  0.00    -0.349 A  
HETATM   47  C   UNL     1      -9.444  18.975  68.908  1.00  0.00    -0.342 C  
ENDBRANCH  31  34
ENDBRANCH   3  31
TORSDOF 7
ENDMDL
MODEL      114
REMARK 921   NORMALIZED FREE ENERGY PREDICTED BY IDOCK:   -1.11 KCAL/MOL
REMARK 922        TOTAL FREE ENERGY PREDICTED BY IDOCK:   -2.20 KCAL/MOL
REMARK 923 INTER-LIGAND FREE ENERGY PREDICTED BY IDOCK:   -3.34 KCAL/MOL
REMARK 924 INTRA-LIGAND FREE ENERGY PREDICTED BY IDOCK:    1.14 KCAL/MOL
REMARK 927      BINDING AFFINITY PREDICTED BY RF-SCORE:    0.00 PKD
ROOT
HETATM    1  C   UNL     1      -8.577  14.048  67.350  1.00  0.00    -0.203 C  
HETATM    2  N   UNL     1      -9.646  13.157  66.885  1.00  0.00    -0.240 N  
HETATM    3  C   UNL     1     -10.969  13.544  66.631  1.00  0.00    -0.288 C  
HETATM    4  O   UNL     1     -11.844  12.681  66.480  1.00  0.00    -0.396 OA 
ENDROOT
BRANCH   2   5
HETATM    5  C   UNL     1      -9.405  11.774  67.211  1.00  0.00    -0.171 A  
HETATM    6  C   UNL     1      -8.981   9.474  66.733  1.00  0.00    -0.157 A  
HETATM    7  C   UNL     1      -8.848  11.489  68.463  1.00  0.00    -0.139 A  
HETATM    8  C   UNL     1      -9.542  10.709  66.299  1.00  0.00    -0.228 A  
HETATM    9  C   UNL     1      -8.435   9.251  68.008  1.00  0.00    -0.120 A  
HETATM   10  N   UNL     1      -8.390  10.279  68.872  1.00  0.00    -0.127 NA 
BRANCH   9  11
HETATM   11  N   UNL     1      -7.933   8.030  68.418  1.00  0.00    -0.119 NA 
HETATM   12  C   UNL     1      -8.651   7.224  69.432  1.00  0.00    -0.134 C  
HETATM   13  N   UNL     1      -7.744   5.088  68.310  1.00  0.00    -0.082 N  
HETATM   14  C   UNL     1      -6.813   4.580  69.385  1.00  0.00    -0.046 C  
HETATM   15  C   UNL     1      -6.723   7.398  67.890  1.00  0.00    -0.062 C  
HETATM   16  C   UNL     1      -8.983   5.799  68.905  1.00  0.00    -0.113 C  
HETATM   17  C   UNL     1      -7.048   6.013  67.304  1.00  0.00    -0.070 C  
BRANCH  13  18
HETATM   18  C   UNL     1      -8.216   3.881  67.485  1.00  0.00    -0.094 C  
BRANCH  18  19
HETATM   19  O   UNL     1      -7.746   3.833  66.173  1.00  0.00    -0.087 OA 
HETATM   20  O   UNL     1      -9.119   1.688  66.312  1.00  0.00    -0.114 OA 
HETATM   21  O   UNL     1      -7.863   2.400  64.086  1.00  0.00    -0.074 OA 
HETATM   22  O   UNL     1      -6.598   1.705  66.069  1.00  0.00    -0.023 OA 
HETATM   23  P   UNL     1      -7.987   2.349  65.573  1.00  0.00    -0.082 P  
ENDBRANCH  18  19
ENDBRANCH  13  18
ENDBRANCH   9  11
BRANCH   8  24
HETATM   24  C   UNL     1     -10.171  10.797  64.926  1.00  0.00    -0.388 A  
HETATM   25  C   UNL     1     -11.541  11.117  64.790  1.00  0.00     0.321 A  
HETATM   26  C   UNL     1     -12.191  11.219  63.554  1.00  0.00     0.405 A  
HETATM   27  C   UNL     1      -8.014  10.183  63.601  1.00  0.00    -0.160 C  
HETATM   28  C   UNL     1      -9.466  10.589  63.700  1.00  0.00    -0.347 A  
HETATM   29  C   UNL     1     -11.475  11.059  62.384  1.00  0.00     2.097 A  
HETATM   30  C   UNL     1     -10.123  10.763  62.456  1.00  0.00     0.159 A  
ENDBRANCH   8  24
ENDBRANCH   2   5
BRANCH   3  31
HETATM   31  C   UNL     1     -11.369  15.063  66.536  1.00  0.00    -0.280 C  
HETATM   32  C   UNL     1     -12.904  15.153  66.266  1.00  0.00     1.364 C  
HETATM   33  C   UNL     1     -10.736  15.729  65.288  1.00  0.00    -0.446 C  
BRANCH  31  34
HETATM   34  C   UNL     1     -11.112  15.817  67.863  1.00  0.00    -0.326 A  
HETATM   35  F   UNL     1     -12.100  14.500  71.889  1.00  0.00    -0.370 F  
HETATM   36  C   UNL     1     -10.092  17.677  69.108  1.00  0.00    -0.232 A  
HETATM   37  C   UNL     1      -9.194  18.893  69.127  1.00  0.00    -0.077 C  
HETATM   38  F   UNL     1     -13.747  15.799  71.304  1.00  0.00    -0.550 F  
HETATM   39  C   UNL     1     -10.263  16.936  67.927  1.00  0.00    -0.308 A  
HETATM   40  C   UNL     1     -10.785  17.287  70.262  1.00  0.00     0.699 A  
HETATM   41  F   UNL     1      -8.189  18.779  70.038  1.00  0.00     0.589 F  
HETATM   42  F   UNL     1      -9.866  20.032  69.440  1.00  0.00    -0.388 F  
HETATM   43  F   UNL     1      -8.586  19.130  67.932  1.00  0.00    -0.301 F  
HETATM   44  F   UNL     1     -12.148  16.567  72.560  1.00  0.00    -0.526 F  
HETATM   45  C   UNL     1     -11.633  16.171  70.245  1.00  0.00    -0.271 A  
HETATM   46  C   UNL     1     -11.780  15.442  69.048  1.00  0.00    -0.380 A  
HETATM   47  C   UNL     1     -12.400  15.765  71.487  1.00  0.00    -0.455 C  
ENDBRANCH  31  34
ENDBRANCH   3  31
TORSDOF 7
ENDMDL
MODEL      115
REMARK 921   NORMALIZED FREE ENERGY PREDICTED BY IDOCK:   -1.00 KCAL/MOL
REMARK 922        TOTAL FREE ENERGY PREDICTED BY IDOCK:   -2.05 KCAL/MOL
REMARK 923 INTER-LIGAND FREE ENERGY PREDICTED BY IDOCK:   -5.43 KCAL/MOL
REMARK 924 INTRA-LIGAND FREE ENERGY PREDICTED BY IDOCK:    3.37 KCAL/MOL
REMARK 927      BINDING AFFINITY PREDICTED BY RF-SCORE:    0.00 PKD
ROOT
HETATM    1  C   UNL     1      -8.911  15.820  69.082  1.00  0.00    -0.250 C  
HETATM    2  N   UNL     1      -9.213  14.934  67.951  1.00  0.00    -0.181 N  
HETATM    3  C   UNL     1      -9.877  15.318  66.778  1.00  0.00    -0.236 C  
HETATM    4  O   UNL     1     -10.297  14.452  65.999  1.00  0.00    -0.287 OA 
ENDROOT
BRANCH   2   5
HETATM    5  C   UNL     1      -9.268  13.544  68.327  1.00  0.00    -0.195 A  
HETATM    6  C   UNL     1     -10.334  11.529  69.035  1.00  0.00    -0.143 A  
HETATM    7  C   UNL     1      -8.269  12.697  67.835  1.00  0.00    -0.170 A  
HETATM    8  C   UNL     1     -10.343  12.953  69.020  1.00  0.00     0.040 A  
HETATM    9  C   UNL     1      -9.296  10.733  68.522  1.00  0.00    -0.174 A  
HETATM   10  N   UNL     1      -8.255  11.344  67.933  1.00  0.00    -0.126 NA 
BRANCH   9  11
HETATM   11  N   UNL     1      -9.295   9.352  68.586  1.00  0.00    -0.141 NA 
HETATM   12  C   UNL     1     -10.466   8.577  68.118  1.00  0.00    -0.182 C  
HETATM   13  N   UNL     1      -8.875   6.662  67.450  1.00  0.00    -0.117 N  
HETATM   14  C   UNL     1      -9.280   5.601  68.446  1.00  0.00    -0.118 C  
HETATM   15  C   UNL     1      -8.175   8.533  69.052  1.00  0.00    -0.116 C  
HETATM   16  C   UNL     1     -10.073   7.544  67.024  1.00  0.00    -0.261 C  
HETATM   17  C   UNL     1      -7.731   7.550  67.956  1.00  0.00    -0.116 C  
BRANCH  13  18
HETATM   18  C   UNL     1      -8.315   5.954  66.207  1.00  0.00    -0.117 C  
BRANCH  18  19
HETATM   19  O   UNL     1      -9.245   5.682  65.204  1.00  0.00    -0.003 OA 
HETATM   20  O   UNL     1      -8.555   3.335  65.923  1.00  0.00    -0.111 OA 
HETATM   21  O   UNL     1     -10.361   3.738  64.023  1.00  0.00    -0.219 OA 
HETATM   22  O   UNL     1      -8.005   4.305  63.650  1.00  0.00    -0.084 OA 
HETATM   23  P   UNL     1      -9.135   4.124  64.781  1.00  0.00    -0.159 P  
ENDBRANCH  18  19
ENDBRANCH  13  18
ENDBRANCH   9  11
BRANCH   8  24
HETATM   24  C   UNL     1     -11.487  13.695  69.677  1.00  0.00    -0.286 A  
HETATM   25  C   UNL     1     -11.421  15.097  69.846  1.00  0.00    -0.315 A  
HETATM   26  C   UNL     1     -12.439  15.852  70.441  1.00  0.00    -0.194 A  
HETATM   27  C   UNL     1     -12.953  11.590  70.125  1.00  0.00     0.270 C  
HETATM   28  C   UNL     1     -12.686  13.077  70.148  1.00  0.00     0.102 A  
HETATM   29  C   UNL     1     -13.607  15.235  70.845  1.00  0.00    -0.402 A  
HETATM   30  C   UNL     1     -13.736  13.864  70.685  1.00  0.00     0.505 A  
ENDBRANCH   8  24
ENDBRANCH   2   5
BRANCH   3  31
HETATM   31  C   UNL     1     -10.106  16.835  66.431  1.00  0.00    -0.327 C  
HETATM   32  C   UNL     1     -11.197  17.403  67.392  1.00  0.00     0.276 C  
HETATM   33  C   UNL     1     -10.734  16.996  65.024  1.00  0.00     0.006 C  
BRANCH  31  34
HETATM   34  C   UNL     1      -8.832  17.684  66.663  1.00  0.00    -0.283 A  
HETATM   35  F   UNL     1      -7.123  20.675  64.007  1.00  0.00    -0.131 F  
HETATM   36  C   UNL     1      -7.015  18.465  68.126  1.00  0.00    -0.241 A  
HETATM   37  C   UNL     1      -6.370  18.502  69.493  1.00  0.00    -0.243 C  
HETATM   38  F   UNL     1      -6.004  18.853  63.595  1.00  0.00    -0.296 F  
HETATM   39  C   UNL     1      -8.218  17.767  67.925  1.00  0.00    -0.237 A  
HETATM   40  C   UNL     1      -6.411  19.105  67.037  1.00  0.00    -0.184 A  
HETATM   41  F   UNL     1      -6.217  19.773  69.957  1.00  0.00    -0.303 F  
HETATM   42  F   UNL     1      -5.132  17.942  69.500  1.00  0.00    -0.164 F  
HETATM   43  F   UNL     1      -7.087  17.844  70.444  1.00  0.00     0.688 F  
HETATM   44  F   UNL     1      -5.170  20.369  64.910  1.00  0.00    -0.170 F  
HETATM   45  C   UNL     1      -6.996  19.059  65.764  1.00  0.00    -0.302 A  
HETATM   46  C   UNL     1      -8.206  18.356  65.592  1.00  0.00     0.488 A  
HETATM   47  C   UNL     1      -6.328  19.731  64.582  1.00  0.00    -0.217 C  
ENDBRANCH  31  34
ENDBRANCH   3  31
TORSDOF 7
ENDMDL
MODEL      116
REMARK 921   NORMALIZED FREE ENERGY PREDICTED BY IDOCK:   -0.25 KCAL/MOL
REMARK 922        TOTAL FREE ENERGY PREDICTED BY IDOCK:   -0.99 KCAL/MOL
REMARK 923 INTER-LIGAND FREE ENERGY PREDICTED BY IDOCK:   -4.77 KCAL/MOL
REMARK 924 INTRA-LIGAND FREE ENERGY PREDICTED BY IDOCK:    3.78 KCAL/MOL
REMARK 927      BINDING AFFINITY PREDICTED BY RF-SCORE:    0.00 PKD
ROOT
HETATM    1  C   UNL     1     -11.863   8.782  66.846  1.00  0.00     4.619 C  
HETATM    2  N   UNL     1     -10.680   9.644  66.946  1.00  0.00    -0.167 N  
HETATM    3  C   UNL     1      -9.429   9.246  67.438  1.00  0.00    -0.132 C  
HETATM    4  O   UNL     1      -8.575  10.101  67.709  1.00  0.00    -0.118 OA 
ENDROOT
BRANCH   2   5
HETATM    5  C   UNL     1     -11.011  11.045  67.015  1.00  0.00    -0.272 A  
HETATM    6  C   UNL     1     -11.477  13.113  68.112  1.00  0.00    -0.349 A  
HETATM    7  C   UNL     1     -10.683  11.845  65.914  1.00  0.00    -0.284 A  
HETATM    8  C   UNL     1     -11.492  11.689  68.171  1.00  0.00    -0.382 A  
HETATM    9  C   UNL     1     -11.137  13.859  66.972  1.00  0.00    -0.301 A  
HETATM   10  N   UNL     1     -10.752  13.199  65.867  1.00  0.00    -0.271 NA 
BRANCH   9  11
HETATM   11  N   UNL     1     -11.171  15.241  66.930  1.00  0.00    -0.298 NA 
HETATM   12  C   UNL     1     -11.626  16.018  68.106  1.00  0.00    -0.183 C  
HETATM   13  N   UNL     1     -10.033  17.920  67.407  1.00  0.00    -0.312 N  
HETATM   14  C   UNL     1     -11.027  18.991  67.023  1.00  0.00    -0.213 C  
HETATM   15  C   UNL     1     -10.737  16.059  65.796  1.00  0.00    -0.301 C  
HETATM   16  C   UNL     1     -10.550  17.041  68.570  1.00  0.00    -0.370 C  
HETATM   17  C   UNL     1      -9.625  17.031  66.225  1.00  0.00    -0.267 C  
BRANCH  13  18
HETATM   18  C   UNL     1      -8.737  18.616  67.851  1.00  0.00    -0.288 C  
BRANCH  18  19
HETATM   19  O   UNL     1      -7.604  18.305  67.101  1.00  0.00    -0.210 OA 
HETATM   20  O   UNL     1      -7.376  16.706  69.074  1.00  0.00    -0.212 OA 
HETATM   21  O   UNL     1      -5.599  16.756  67.105  1.00  0.00    -0.137 OA 
HETATM   22  O   UNL     1      -5.789  18.637  68.666  1.00  0.00    -0.197 OA 
HETATM   23  P   UNL     1      -6.595  17.414  68.000  1.00  0.00    -0.174 P  
ENDBRANCH  18  19
ENDBRANCH  13  18
ENDBRANCH   9  11
BRANCH   8  24
HETATM   24  C   UNL     1     -11.955  11.004  69.438  1.00  0.00    -0.408 A  
HETATM   25  C   UNL     1     -12.023   9.593  69.499  1.00  0.00     0.420 A  
HETATM   26  C   UNL     1     -12.438   8.889  70.636  1.00  0.00     0.158 A  
HETATM   27  C   UNL     1     -12.388  13.190  70.785  1.00  0.00    -0.404 C  
HETATM   28  C   UNL     1     -12.329  11.688  70.635  1.00  0.00    -0.437 A  
HETATM   29  C   UNL     1     -12.750   9.573  71.794  1.00  0.00    -0.492 A  
HETATM   30  C   UNL     1     -12.681  10.958  71.799  1.00  0.00    -0.435 A  
ENDBRANCH   8  24
ENDBRANCH   2   5
BRANCH   3  31
HETATM   31  C   UNL     1      -9.086   7.726  67.658  1.00  0.00    -0.138 C  
HETATM   32  C   UNL     1      -7.721   7.423  66.963  1.00  0.00    -0.111 C  
HETATM   33  C   UNL     1     -10.090   6.814  66.911  1.00  0.00    -0.268 C  
BRANCH  31  34
HETATM   34  C   UNL     1      -8.901   7.382  69.156  1.00  0.00    -0.136 A  
HETATM   35  F   UNL     1     -11.698   5.305  71.760  1.00  0.00    -0.080 F  
HETATM   36  C   UNL     1      -7.488   7.249  71.165  1.00  0.00    -0.079 A  
HETATM   37  C   UNL     1      -6.130   7.394  71.813  1.00  0.00    -0.036 C  
HETATM   38  F   UNL     1     -12.040   7.421  72.143  1.00  0.00    -0.293 F  
HETATM   39  C   UNL     1      -7.649   7.478  69.788  1.00  0.00    -0.094 A  
HETATM   40  C   UNL     1      -8.609   6.910  71.934  1.00  0.00    -0.118 A  
HETATM   41  F   UNL     1      -5.722   6.246  72.421  1.00  0.00    -0.033 F  
HETATM   42  F   UNL     1      -6.109   8.360  72.768  1.00  0.00    -0.056 F  
HETATM   43  F   UNL     1      -5.145   7.716  70.929  1.00  0.00    -0.023 F  
HETATM   44  F   UNL     1     -10.799   6.256  73.495  1.00  0.00    -0.248 F  
HETATM   45  C   UNL     1      -9.875   6.792  71.341  1.00  0.00    -0.188 A  
HETATM   46  C   UNL     1     -10.005   7.020  69.956  1.00  0.00    -0.188 A  
HETATM   47  C   UNL     1     -11.090   6.449  72.177  1.00  0.00    -0.263 C  
ENDBRANCH  31  34
ENDBRANCH   3  31
TORSDOF 7
ENDMDL
MODEL      117
REMARK 921   NORMALIZED FREE ENERGY PREDICTED BY IDOCK:    0.67 KCAL/MOL
REMARK 922        TOTAL FREE ENERGY PREDICTED BY IDOCK:    0.30 KCAL/MOL
REMARK 923 INTER-LIGAND FREE ENERGY PREDICTED BY IDOCK:   -2.38 KCAL/MOL
REMARK 924 INTRA-LIGAND FREE ENERGY PREDICTED BY IDOCK:    2.68 KCAL/MOL
REMARK 927      BINDING AFFINITY PREDICTED BY RF-SCORE:    0.00 PKD
ROOT
HETATM    1  C   UNL     1      -8.977  15.818  69.061  1.00  0.00    -0.246 C  
HETATM    2  N   UNL     1      -9.418  14.996  67.928  1.00  0.00    -0.194 N  
HETATM    3  C   UNL     1     -10.140  15.464  66.821  1.00  0.00    -0.262 C  
HETATM    4  O   UNL     1     -10.671  14.657  66.047  1.00  0.00    -0.296 OA 
ENDROOT
BRANCH   2   5
HETATM    5  C   UNL     1      -9.535  13.599  68.260  1.00  0.00    -0.213 A  
HETATM    6  C   UNL     1     -10.679  11.624  68.961  1.00  0.00    -0.217 A  
HETATM    7  C   UNL     1      -8.618  12.713  67.684  1.00  0.00    -0.180 A  
HETATM    8  C   UNL     1     -10.603  13.046  68.994  1.00  0.00    -0.079 A  
HETATM    9  C   UNL     1      -9.721  10.789  68.363  1.00  0.00    -0.174 A  
HETATM   10  N   UNL     1      -8.679  11.359  67.735  1.00  0.00    -0.132 NA 
BRANCH   9  11
HETATM   11  N   UNL     1      -9.799   9.409  68.381  1.00  0.00    -0.156 NA 
HETATM   12  C   UNL     1      -8.576   8.589  68.547  1.00  0.00    -0.138 C  
HETATM   13  N   UNL     1      -9.996   6.797  69.739  1.00  0.00    -0.176 N  
HETATM   14  C   UNL     1      -9.931   5.674  68.731  1.00  0.00    -0.167 C  
HETATM   15  C   UNL     1     -11.038   8.634  68.291  1.00  0.00     0.345 C  
HETATM   16  C   UNL     1      -8.691   7.627  69.764  1.00  0.00    -0.140 C  
HETATM   17  C   UNL     1     -11.197   7.726  69.522  1.00  0.00     0.114 C  
BRANCH  13  18
HETATM   18  C   UNL     1     -10.214   6.175  71.126  1.00  0.00    -0.198 C  
BRANCH  18  19
HETATM   19  O   UNL     1      -9.052   5.912  71.852  1.00  0.00    -0.139 OA 
HETATM   20  O   UNL     1      -9.979   3.565  71.484  1.00  0.00    -0.172 OA 
HETATM   21  O   UNL     1      -7.711   3.980  72.795  1.00  0.00    -0.072 OA 
HETATM   22  O   UNL     1      -9.858   4.664  73.762  1.00  0.00    -0.136 OA 
HETATM   23  P   UNL     1      -9.086   4.382  72.378  1.00  0.00    -0.122 P  
ENDBRANCH  18  19
ENDBRANCH  13  18
ENDBRANCH   9  11
BRANCH   8  24
HETATM   24  C   UNL     1     -11.662  13.829  69.739  1.00  0.00    -0.367 A  
HETATM   25  C   UNL     1     -11.697  13.809  71.152  1.00  0.00     0.260 A  
HETATM   26  C   UNL     1     -12.643  14.509  71.911  1.00  0.00    -0.413 A  
HETATM   27  C   UNL     1     -12.856  14.758  67.620  1.00  0.00     1.581 C  
HETATM   28  C   UNL     1     -12.664  14.632  69.113  1.00  0.00     0.352 A  
HETATM   29  C   UNL     1     -13.572  15.315  71.281  1.00  0.00    -0.584 A  
HETATM   30  C   UNL     1     -13.571  15.389  69.897  1.00  0.00     1.092 A  
ENDBRANCH   8  24
ENDBRANCH   2   5
BRANCH   3  31
HETATM   31  C   UNL     1     -10.294  17.005  66.542  1.00  0.00    -0.298 C  
HETATM   32  C   UNL     1     -11.332  17.588  67.553  1.00  0.00     0.480 C  
HETATM   33  C   UNL     1     -10.944  17.259  65.159  1.00  0.00     0.118 C  
BRANCH  31  34
HETATM   34  C   UNL     1      -8.973  17.775  66.780  1.00  0.00    -0.272 A  
HETATM   35  F   UNL     1      -7.150  20.762  64.196  1.00  0.00    -0.210 F  
HETATM   36  C   UNL     1      -7.090  18.405  68.232  1.00  0.00    -0.269 A  
HETATM   37  C   UNL     1      -6.419  18.358  69.587  1.00  0.00    -0.143 C  
HETATM   38  F   UNL     1      -6.140  18.899  63.698  1.00  0.00    -0.214 F  
HETATM   39  C   UNL     1      -8.332  17.780  68.031  1.00  0.00    -0.249 A  
HETATM   40  C   UNL     1      -6.470  19.050  67.154  1.00  0.00    -0.190 A  
HETATM   41  F   UNL     1      -6.189  19.601  70.092  1.00  0.00    -0.297 F  
HETATM   42  F   UNL     1      -5.214  17.732  69.550  1.00  0.00    -0.161 F  
HETATM   43  F   UNL     1      -7.155  17.706  70.528  1.00  0.00     0.976 F  
HETATM   44  F   UNL     1      -5.200  20.319  65.048  1.00  0.00    -0.168 F  
HETATM   45  C   UNL     1      -7.080  19.080  65.892  1.00  0.00    -0.294 A  
HETATM   46  C   UNL     1      -8.330  18.450  65.720  1.00  0.00     0.302 A  
HETATM   47  C   UNL     1      -6.398  19.757  64.721  1.00  0.00    -0.259 C  
ENDBRANCH  31  34
ENDBRANCH   3  31
TORSDOF 7
ENDMDL
MODEL      118
REMARK 921   NORMALIZED FREE ENERGY PREDICTED BY IDOCK:    1.40 KCAL/MOL
REMARK 922        TOTAL FREE ENERGY PREDICTED BY IDOCK:    1.34 KCAL/MOL
REMARK 923 INTER-LIGAND FREE ENERGY PREDICTED BY IDOCK:   -7.15 KCAL/MOL
REMARK 924 INTRA-LIGAND FREE ENERGY PREDICTED BY IDOCK:    8.48 KCAL/MOL
REMARK 927      BINDING AFFINITY PREDICTED BY RF-SCORE:    0.00 PKD
ROOT
HETATM    1  C   UNL     1     -10.378  13.542  66.692  1.00  0.00    -0.271 C  
HETATM    2  N   UNL     1     -10.738  13.394  68.107  1.00  0.00    -0.245 N  
HETATM    3  C   UNL     1     -10.940  14.451  69.005  1.00  0.00    -0.256 C  
HETATM    4  O   UNL     1     -10.998  14.222  70.220  1.00  0.00    -0.006 OA 
ENDROOT
BRANCH   2   5
HETATM    5  C   UNL     1     -10.354  12.117  68.653  1.00  0.00    -0.195 A  
HETATM    6  C   UNL     1     -10.675  10.103  69.893  1.00  0.00    -0.340 A  
HETATM    7  C   UNL     1      -9.347  11.404  67.993  1.00  0.00    -0.171 A  
HETATM    8  C   UNL     1     -11.032  11.469  69.704  1.00  0.00    -0.129 A  
HETATM    9  C   UNL     1      -9.649   9.444  69.197  1.00  0.00    -0.163 A  
HETATM   10  N   UNL     1      -8.980  10.123  68.250  1.00  0.00    -0.119 NA 
BRANCH   9  11
HETATM   11  N   UNL     1      -9.297   8.127  69.429  1.00  0.00    -0.155 NA 
HETATM   12  C   UNL     1     -10.074   7.022  68.821  1.00  0.00    -0.170 C  
HETATM   13  N   UNL     1      -7.920   5.608  68.750  1.00  0.00    -0.096 N  
HETATM   14  C   UNL     1      -8.256   4.535  69.759  1.00  0.00    -0.063 C  
HETATM   15  C   UNL     1      -8.146   7.691  70.221  1.00  0.00    -0.114 C  
HETATM   16  C   UNL     1      -9.171   6.083  67.973  1.00  0.00    -0.115 C  
HETATM   17  C   UNL     1      -7.208   6.814  69.374  1.00  0.00    -0.089 C  
BRANCH  13  18
HETATM   18  C   UNL     1      -6.912   5.018  67.752  1.00  0.00    -0.061 C  
BRANCH  18  19
HETATM   19  O   UNL     1      -6.407   3.761  68.085  1.00  0.00    -0.035 OA 
HETATM   20  O   UNL     1      -5.962   3.852  65.576  1.00  0.00    -0.022 OA 
HETATM   21  O   UNL     1      -5.267   1.753  67.041  1.00  0.00    -0.008 OA 
HETATM   22  O   UNL     1      -7.630   2.264  66.629  1.00  0.00    -0.068 OA 
HETATM   23  P   UNL     1      -6.159   2.909  66.732  1.00  0.00    -0.025 P  
ENDBRANCH  18  19
ENDBRANCH  13  18
ENDBRANCH   9  11
BRANCH   8  24
HETATM   24  C   UNL     1     -12.105  12.084  70.576  1.00  0.00    -0.402 A  
HETATM   25  C   UNL     1     -12.368  13.471  70.507  1.00  0.00    -0.412 A  
HETATM   26  C   UNL     1     -13.346  14.110  71.280  1.00  0.00    -0.370 A  
HETATM   27  C   UNL     1     -12.783   9.871  71.770  1.00  0.00    -0.523 C  
HETATM   28  C   UNL     1     -12.922  11.349  71.489  1.00  0.00    -0.505 A  
HETATM   29  C   UNL     1     -14.153  13.368  72.121  1.00  0.00    -0.441 A  
HETATM   30  C   UNL     1     -13.953  11.999  72.213  1.00  0.00     0.316 A  
ENDBRANCH   8  24
ENDBRANCH   2   5
BRANCH   3  31
HETATM   31  C   UNL     1     -11.091  15.933  68.498  1.00  0.00    -0.340 C  
HETATM   32  C   UNL     1     -12.055  16.689  69.465  1.00  0.00     1.049 C  
HETATM   33  C   UNL     1     -11.824  15.983  67.134  1.00  0.00     0.718 C  
BRANCH  31  34
HETATM   34  C   UNL     1      -9.747  16.700  68.531  1.00  0.00    -0.244 A  
HETATM   35  F   UNL     1      -9.028  20.830  67.371  1.00  0.00    -0.442 F  
HETATM   36  C   UNL     1      -7.378  16.847  69.178  1.00  0.00    -0.197 A  
HETATM   37  C   UNL     1      -6.188  16.257  69.901  1.00  0.00    -0.161 C  
HETATM   38  F   UNL     1      -8.475  19.652  65.625  1.00  0.00    -0.291 F  
HETATM   39  C   UNL     1      -8.625  16.199  69.214  1.00  0.00    -0.191 A  
HETATM   40  C   UNL     1      -7.248  18.032  68.443  1.00  0.00    -0.255 A  
HETATM   41  F   UNL     1      -5.671  17.112  70.826  1.00  0.00    -0.204 F  
HETATM   42  F   UNL     1      -5.169  15.945  69.058  1.00  0.00    -0.098 F  
HETATM   43  F   UNL     1      -6.483  15.113  70.577  1.00  0.00    -0.139 F  
HETATM   44  F   UNL     1      -6.939  20.366  66.987  1.00  0.00    -0.245 F  
HETATM   45  C   UNL     1      -8.345  18.573  67.757  1.00  0.00    -0.273 A  
HETATM   46  C   UNL     1      -9.586  17.906  67.815  1.00  0.00    -0.277 A  
HETATM   47  C   UNL     1      -8.197  19.841  66.942  1.00  0.00    -0.307 C  
ENDBRANCH  31  34
ENDBRANCH   3  31
TORSDOF 7
ENDMDL
MODEL      119
REMARK 921   NORMALIZED FREE ENERGY PREDICTED BY IDOCK:    3.34 KCAL/MOL
REMARK 922        TOTAL FREE ENERGY PREDICTED BY IDOCK:    4.07 KCAL/MOL
REMARK 923 INTER-LIGAND FREE ENERGY PREDICTED BY IDOCK:    5.53 KCAL/MOL
REMARK 924 INTRA-LIGAND FREE ENERGY PREDICTED BY IDOCK:   -1.46 KCAL/MOL
REMARK 927      BINDING AFFINITY PREDICTED BY RF-SCORE:    0.00 PKD
ROOT
HETATM    1  C   UNL     1     -12.356   9.858  66.692  1.00  0.00     7.089 C  
HETATM    2  N   UNL     1     -11.137  10.644  66.916  1.00  0.00    -0.170 N  
HETATM    3  C   UNL     1      -9.863  10.111  67.155  1.00  0.00    -0.187 C  
HETATM    4  O   UNL     1      -8.957  10.846  67.571  1.00  0.00    -0.136 OA 
ENDROOT
BRANCH   2   5
HETATM    5  C   UNL     1     -11.408  11.973  67.404  1.00  0.00    -0.327 A  
HETATM    6  C   UNL     1     -11.663  13.662  69.072  1.00  0.00    -0.375 A  
HETATM    7  C   UNL     1     -11.193  13.044  66.529  1.00  0.00    -0.302 A  
HETATM    8  C   UNL     1     -11.719  12.276  68.743  1.00  0.00    -0.390 A  
HETATM    9  C   UNL     1     -11.443  14.692  68.142  1.00  0.00    -0.323 A  
HETATM   10  N   UNL     1     -11.221  14.359  66.860  1.00  0.00    -0.324 NA 
BRANCH   9  11
HETATM   11  N   UNL     1     -11.433  16.032  68.482  1.00  0.00    -0.377 NA 
HETATM   12  C   UNL     1     -11.511  16.449  69.901  1.00  0.00    -0.079 C  
HETATM   13  N   UNL     1     -10.105  18.530  69.318  1.00  0.00    -0.167 N  
HETATM   14  C   UNL     1     -11.126  19.624  69.527  1.00  0.00     2.252 C  
HETATM   15  C   UNL     1     -11.303  17.139  67.533  1.00  0.00     0.363 C  
HETATM   16  C   UNL     1     -10.310  17.353  70.301  1.00  0.00     0.962 C  
HETATM   17  C   UNL     1     -10.079  18.005  67.877  1.00  0.00    -0.355 C  
BRANCH  13  18
HETATM   18  C   UNL     1      -8.712  19.133  69.552  1.00  0.00     0.345 C  
BRANCH  18  19
HETATM   19  O   UNL     1      -7.815  18.993  68.492  1.00  0.00    -0.314 OA 
HETATM   20  O   UNL     1      -6.621  20.700  69.963  1.00  0.00    -0.200 OA 
HETATM   21  O   UNL     1      -5.562  19.831  67.692  1.00  0.00    -0.184 OA 
HETATM   22  O   UNL     1      -7.557  21.256  67.677  1.00  0.00    -0.301 OA 
HETATM   23  P   UNL     1      -6.728  20.190  68.551  1.00  0.00    -0.234 P  
ENDBRANCH  18  19
ENDBRANCH  13  18
ENDBRANCH   9  11
BRANCH   8  24
HETATM   24  C   UNL     1     -12.043  11.270  69.826  1.00  0.00    -0.394 A  
HETATM   25  C   UNL     1     -13.383  11.063  70.226  1.00  0.00     0.530 A  
HETATM   26  C   UNL     1     -13.761  10.149  71.217  1.00  0.00    -0.051 A  
HETATM   27  C   UNL     1      -9.581  10.554  70.276  1.00  0.00     0.650 C  
HETATM   28  C   UNL     1     -11.072  10.465  70.497  1.00  0.00    -0.343 A  
HETATM   29  C   UNL     1     -12.807   9.351  71.817  1.00  0.00    -0.484 A  
HETATM   30  C   UNL     1     -11.478   9.496  71.449  1.00  0.00    -0.462 A  
ENDBRANCH   8  24
ENDBRANCH   2   5
BRANCH   3  31
HETATM   31  C   UNL     1      -9.559   8.587  66.908  1.00  0.00    -0.257 C  
HETATM   32  C   UNL     1      -8.274   8.477  66.029  1.00  0.00    -0.118 C  
HETATM   33  C   UNL     1     -10.659   7.933  66.036  1.00  0.00     1.484 C  
BRANCH  31  34
HETATM   34  C   UNL     1      -9.253   7.833  68.225  1.00  0.00    -0.139 A  
HETATM   35  F   UNL     1      -5.571   7.931  70.539  1.00  0.00    -0.026 F  
HETATM   36  C   UNL     1      -9.990   6.460  70.129  1.00  0.00    -0.201 A  
HETATM   37  C   UNL     1     -11.108   5.788  70.893  1.00  0.00    -0.197 C  
HETATM   38  F   UNL     1      -5.415   6.140  69.311  1.00  0.00    -0.009 F  
HETATM   39  C   UNL     1     -10.268   7.218  68.979  1.00  0.00    -0.197 A  
HETATM   40  C   UNL     1      -8.659   6.315  70.542  1.00  0.00    -0.139 A  
HETATM   41  F   UNL     1     -11.166   6.197  72.190  1.00  0.00    -0.268 F  
HETATM   42  F   UNL     1     -10.978   4.436  70.925  1.00  0.00     0.182 F  
HETATM   43  F   UNL     1     -12.341   6.036  70.370  1.00  0.00    -0.006 F  
HETATM   44  F   UNL     1      -6.044   5.986  71.385  1.00  0.00    -0.033 F  
HETATM   45  C   UNL     1      -7.617   6.922  69.826  1.00  0.00    -0.104 A  
HETATM   46  C   UNL     1      -7.926   7.683  68.680  1.00  0.00    -0.122 A  
HETATM   47  C   UNL     1      -6.177   6.744  70.261  1.00  0.00    -0.031 C  
ENDBRANCH  31  34
ENDBRANCH   3  31
TORSDOF 7
ENDMDL
MODEL      120
REMARK 921   NORMALIZED FREE ENERGY PREDICTED BY IDOCK:    3.35 KCAL/MOL
REMARK 922        TOTAL FREE ENERGY PREDICTED BY IDOCK:    4.08 KCAL/MOL
REMARK 923 INTER-LIGAND FREE ENERGY PREDICTED BY IDOCK:   -4.48 KCAL/MOL
REMARK 924 INTRA-LIGAND FREE ENERGY PREDICTED BY IDOCK:    8.56 KCAL/MOL
REMARK 927      BINDING AFFINITY PREDICTED BY RF-SCORE:    0.00 PKD
ROOT
HETATM    1  C   UNL     1      -5.415  11.356  68.027  1.00  0.00    -0.043 C  
HETATM    2  N   UNL     1      -6.876  11.347  68.163  1.00  0.00    -0.062 N  
HETATM    3  C   UNL     1      -7.676  10.197  68.227  1.00  0.00    -0.088 C  
HETATM    4  O   UNL     1      -8.903  10.294  68.096  1.00  0.00    -0.121 OA 
ENDROOT
BRANCH   2   5
HETATM    5  C   UNL     1      -7.491  12.563  67.695  1.00  0.00    -0.139 A  
HETATM    6  C   UNL     1      -9.001  13.866  66.383  1.00  0.00    -0.017 A  
HETATM    7  C   UNL     1      -7.473  13.672  68.550  1.00  0.00    -0.119 A  
HETATM    8  C   UNL     1      -8.245  12.665  66.510  1.00  0.00     0.254 A  
HETATM    9  C   UNL     1      -8.936  14.946  67.279  1.00  0.00    -0.199 A  
HETATM   10  N   UNL     1      -8.147  14.833  68.360  1.00  0.00    -0.137 NA 
BRANCH   9  11
HETATM   11  N   UNL     1      -9.651  16.118  67.110  1.00  0.00    -0.227 NA 
HETATM   12  C   UNL     1     -10.511  16.638  68.197  1.00  0.00    -0.321 C  
HETATM   13  N   UNL     1     -10.034  19.031  67.367  1.00  0.00    -0.327 N  
HETATM   14  C   UNL     1     -11.401  19.429  66.861  1.00  0.00     0.348 C  
HETATM   15  C   UNL     1      -9.606  16.965  65.917  1.00  0.00    -0.138 C  
HETATM   16  C   UNL     1     -10.122  18.091  68.593  1.00  0.00    -0.394 C  
HETATM   17  C   UNL     1      -9.159  18.391  66.283  1.00  0.00    -0.201 C  
BRANCH  13  18
HETATM   18  C   UNL     1      -9.292  20.312  67.779  1.00  0.00    -0.301 C  
BRANCH  18  19
HETATM   19  O   UNL     1      -7.900  20.239  67.725  1.00  0.00    -0.291 OA 
HETATM   20  O   UNL     1      -8.511  20.332  65.251  1.00  0.00     0.104 OA 
HETATM   21  O   UNL     1      -5.989  20.204  66.062  1.00  0.00    -0.172 OA 
HETATM   22  O   UNL     1      -7.495  18.290  66.350  1.00  0.00    -0.223 OA 
HETATM   23  P   UNL     1      -7.440  19.892  66.213  1.00  0.00    -0.301 P  
ENDBRANCH  18  19
ENDBRANCH  13  18
ENDBRANCH   9  11
BRANCH   8  24
HETATM   24  C   UNL     1      -8.346  11.607  65.432  1.00  0.00     0.553 A  
HETATM   25  C   UNL     1      -7.183  11.161  64.764  1.00  0.00     0.869 A  
HETATM   26  C   UNL     1      -7.197  10.185  63.760  1.00  0.00    -0.106 A  
HETATM   27  C   UNL     1     -10.933  11.339  65.557  1.00  0.00    -0.199 C  
HETATM   28  C   UNL     1      -9.565  10.983  65.025  1.00  0.00    -0.291 A  
HETATM   29  C   UNL     1      -8.383   9.565  63.418  1.00  0.00    -0.179 A  
HETATM   30  C   UNL     1      -9.552   9.949  64.056  1.00  0.00    -0.137 A  
ENDBRANCH   8  24
ENDBRANCH   2   5
BRANCH   3  31
HETATM   31  C   UNL     1      -7.041   8.776  68.459  1.00  0.00    -0.073 C  
HETATM   32  C   UNL     1      -5.581   8.967  68.976  1.00  0.00    -0.036 C  
HETATM   33  C   UNL     1      -6.862   8.020  67.119  1.00  0.00    -0.073 C  
BRANCH  31  34
HETATM   34  C   UNL     1      -7.791   7.975  69.551  1.00  0.00    -0.105 A  
HETATM   35  F   UNL     1      -9.731   4.104  69.132  1.00  0.00    -0.228 F  
HETATM   36  C   UNL     1      -8.436   7.641  71.901  1.00  0.00    -0.128 A  
HETATM   37  C   UNL     1      -8.325   8.053  73.352  1.00  0.00    -0.220 C  
HETATM   38  F   UNL     1     -11.332   5.562  68.903  1.00  0.00    -0.187 F  
HETATM   39  C   UNL     1      -7.693   8.309  70.913  1.00  0.00    -0.082 A  
HETATM   40  C   UNL     1      -9.299   6.606  71.520  1.00  0.00    -0.153 A  
HETATM   41  F   UNL     1      -7.913   7.030  74.149  1.00  0.00    -0.110 F  
HETATM   42  F   UNL     1      -9.509   8.482  73.863  1.00  0.00    -0.053 F  
HETATM   43  F   UNL     1      -7.437   9.064  73.558  1.00  0.00     0.029 F  
HETATM   44  F   UNL     1     -11.031   4.567  70.811  1.00  0.00     0.100 F  
HETATM   45  C   UNL     1      -9.418   6.233  70.174  1.00  0.00    -0.172 A  
HETATM   46  C   UNL     1      -8.655   6.915  69.204  1.00  0.00    -0.128 A  
HETATM   47  C   UNL     1     -10.370   5.129  69.760  1.00  0.00    -0.262 C  
ENDBRANCH  31  34
ENDBRANCH   3  31
TORSDOF 7
ENDMDL
MODEL      121
REMARK 921   NORMALIZED FREE ENERGY PREDICTED BY IDOCK:    4.22 KCAL/MOL
REMARK 922        TOTAL FREE ENERGY PREDICTED BY IDOCK:    5.31 KCAL/MOL
REMARK 923 INTER-LIGAND FREE ENERGY PREDICTED BY IDOCK:   -0.77 KCAL/MOL
REMARK 924 INTRA-LIGAND FREE ENERGY PREDICTED BY IDOCK:    6.08 KCAL/MOL
REMARK 927      BINDING AFFINITY PREDICTED BY RF-SCORE:    0.00 PKD
ROOT
HETATM    1  C   UNL     1     -11.489  11.794  66.352  1.00  0.00    -0.239 C  
HETATM    2  N   UNL     1     -10.334  11.828  67.256  1.00  0.00    -0.203 N  
HETATM    3  C   UNL     1     -10.098  10.923  68.301  1.00  0.00    -0.174 C  
HETATM    4  O   UNL     1      -9.235  11.179  69.152  1.00  0.00    -0.089 OA 
ENDROOT
BRANCH   2   5
HETATM    5  C   UNL     1      -9.738  13.136  67.357  1.00  0.00    -0.220 A  
HETATM    6  C   UNL     1      -8.072  14.798  66.958  1.00  0.00    -0.177 A  
HETATM    7  C   UNL     1     -10.590  14.223  67.586  1.00  0.00    -0.253 A  
HETATM    8  C   UNL     1      -8.385  13.414  67.082  1.00  0.00    -0.149 A  
HETATM    9  C   UNL     1      -8.976  15.844  67.203  1.00  0.00    -0.208 A  
HETATM   10  N   UNL     1     -10.240  15.532  67.533  1.00  0.00    -0.250 NA 
BRANCH   9  11
HETATM   11  N   UNL     1      -8.634  17.181  67.114  1.00  0.00    -0.199 NA 
HETATM   12  C   UNL     1      -9.545  18.226  67.636  1.00  0.00    -0.282 C  
HETATM   13  N   UNL     1      -7.488  19.684  68.174  1.00  0.00    -0.297 N  
HETATM   14  C   UNL     1      -7.677  20.810  67.184  1.00  0.00    -0.259 C  
HETATM   15  C   UNL     1      -7.376  17.693  66.568  1.00  0.00    -0.261 C  
HETATM   16  C   UNL     1      -8.839  19.132  68.686  1.00  0.00    -0.365 C  
HETATM   17  C   UNL     1      -6.635  18.537  67.618  1.00  0.00    -0.205 C  
BRANCH  13  18
HETATM   18  C   UNL     1      -6.694  20.234  69.368  1.00  0.00    -0.138 C  
BRANCH  18  19
HETATM   19  O   UNL     1      -6.688  19.426  70.505  1.00  0.00     0.099 OA 
HETATM   20  O   UNL     1      -5.131  18.142  68.947  1.00  0.00    -0.167 OA 
HETATM   21  O   UNL     1      -5.667  17.286  71.399  1.00  0.00     0.349 OA 
HETATM   22  O   UNL     1      -7.398  17.272  69.663  1.00  0.00     0.064 OA 
HETATM   23  P   UNL     1      -6.039  17.990  70.137  1.00  0.00     0.241 P  
ENDBRANCH  18  19
ENDBRANCH  13  18
ENDBRANCH   9  11
BRANCH   8  24
HETATM   24  C   UNL     1      -7.297  12.385  66.866  1.00  0.00     0.070 A  
HETATM   25  C   UNL     1      -6.229  12.277  67.785  1.00  0.00    -0.101 A  
HETATM   26  C   UNL     1      -5.188  11.349  67.653  1.00  0.00    -0.046 A  
HETATM   27  C   UNL     1      -8.265  11.430  64.644  1.00  0.00     0.779 C  
HETATM   28  C   UNL     1      -7.263  11.463  65.775  1.00  0.00     0.440 A  
HETATM   29  C   UNL     1      -5.204  10.438  66.614  1.00  0.00    -0.043 A  
HETATM   30  C   UNL     1      -6.240  10.484  65.694  1.00  0.00    -0.129 A  
ENDBRANCH   8  24
ENDBRANCH   2   5
BRANCH   3  31
HETATM   31  C   UNL     1     -10.914   9.584  68.418  1.00  0.00    -0.117 C  
HETATM   32  C   UNL     1     -10.724   8.773  67.098  1.00  0.00    -0.204 C  
HETATM   33  C   UNL     1     -12.437   9.861  68.464  1.00  0.00     2.827 C  
BRANCH  31  34
HETATM   34  C   UNL     1     -10.393   8.682  69.564  1.00  0.00    -0.214 A  
HETATM   35  F   UNL     1      -6.628   6.509  69.719  1.00  0.00    -0.041 F  
HETATM   36  C   UNL     1     -10.580   7.806  71.855  1.00  0.00    -0.270 A  
HETATM   37  C   UNL     1     -11.271   7.815  73.199  1.00  0.00    -0.218 C  
HETATM   38  F   UNL     1      -8.093   5.047  69.043  1.00  0.00    -0.081 F  
HETATM   39  C   UNL     1     -10.991   8.682  70.836  1.00  0.00    -0.301 A  
HETATM   40  C   UNL     1      -9.536   6.907  71.598  1.00  0.00    -0.161 A  
HETATM   41  F   UNL     1     -10.411   8.078  74.221  1.00  0.00     0.561 F  
HETATM   42  F   UNL     1     -11.858   6.625  73.491  1.00  0.00     0.365 F  
HETATM   43  F   UNL     1     -12.254   8.753  73.291  1.00  0.00    -0.031 F  
HETATM   44  F   UNL     1      -7.492   5.101  71.131  1.00  0.00    -0.068 F  
HETATM   45  C   UNL     1      -8.904   6.882  70.347  1.00  0.00    -0.152 A  
HETATM   46  C   UNL     1      -9.333   7.777  69.346  1.00  0.00    -0.152 A  
HETATM   47  C   UNL     1      -7.792   5.894  70.064  1.00  0.00    -0.100 C  
ENDBRANCH  31  34
ENDBRANCH   3  31
TORSDOF 7
ENDMDL
MODEL      122
REMARK 921   NORMALIZED FREE ENERGY PREDICTED BY IDOCK:    4.59 KCAL/MOL
REMARK 922        TOTAL FREE ENERGY PREDICTED BY IDOCK:    5.82 KCAL/MOL
REMARK 923 INTER-LIGAND FREE ENERGY PREDICTED BY IDOCK:    1.33 KCAL/MOL
REMARK 924 INTRA-LIGAND FREE ENERGY PREDICTED BY IDOCK:    4.49 KCAL/MOL
REMARK 927      BINDING AFFINITY PREDICTED BY RF-SCORE:    0.00 PKD
ROOT
HETATM    1  C   UNL     1     -11.398  11.804  66.454  1.00  0.00    -0.297 C  
HETATM    2  N   UNL     1     -10.241  11.828  67.356  1.00  0.00    -0.198 N  
HETATM    3  C   UNL     1     -10.113  11.070  68.528  1.00  0.00    -0.190 C  
HETATM    4  O   UNL     1      -9.218  11.341  69.340  1.00  0.00     0.139 OA 
ENDROOT
BRANCH   2   5
HETATM    5  C   UNL     1      -9.485  13.052  67.265  1.00  0.00    -0.224 A  
HETATM    6  C   UNL     1      -7.605  14.402  66.678  1.00  0.00     0.957 A  
HETATM    7  C   UNL     1     -10.195  14.257  67.260  1.00  0.00    -0.252 A  
HETATM    8  C   UNL     1      -8.099  13.110  67.019  1.00  0.00    -0.032 A  
HETATM    9  C   UNL     1      -8.374  15.578  66.694  1.00  0.00    -0.251 A  
HETATM   10  N   UNL     1      -9.677  15.485  67.004  1.00  0.00    -0.221 NA 
BRANCH   9  11
HETATM   11  N   UNL     1      -7.859  16.826  66.398  1.00  0.00    -0.298 NA 
HETATM   12  C   UNL     1      -8.423  17.628  65.288  1.00  0.00     2.025 C  
HETATM   13  N   UNL     1      -7.811  19.770  66.586  1.00  0.00    -0.283 N  
HETATM   14  C   UNL     1      -6.730  20.337  65.696  1.00  0.00    -0.259 C  
HETATM   15  C   UNL     1      -6.784  17.490  67.137  1.00  0.00    -0.168 C  
HETATM   16  C   UNL     1      -8.898  19.027  65.774  1.00  0.00     0.366 C  
HETATM   17  C   UNL     1      -7.260  18.848  67.681  1.00  0.00    -0.219 C  
BRANCH  13  18
HETATM   18  C   UNL     1      -8.466  20.939  67.337  1.00  0.00    -0.021 C  
BRANCH  18  19
HETATM   19  O   UNL     1      -9.671  20.641  67.973  1.00  0.00    -0.229 OA 
HETATM   20  O   UNL     1      -7.964  19.824  69.683  1.00  0.00     0.006 OA 
HETATM   21  O   UNL     1     -10.574  19.651  70.124  1.00  0.00     0.572 OA 
HETATM   22  O   UNL     1      -9.501  18.267  68.408  1.00  0.00    -0.299 OA 
HETATM   23  P   UNL     1      -9.386  19.651  69.221  1.00  0.00     0.293 P  
ENDBRANCH  18  19
ENDBRANCH  13  18
ENDBRANCH   9  11
BRANCH   8  24
HETATM   24  C   UNL     1      -7.147  11.933  67.039  1.00  0.00    -0.116 A  
HETATM   25  C   UNL     1      -6.120  11.867  68.008  1.00  0.00    -0.055 A  
HETATM   26  C   UNL     1      -5.204  10.811  68.091  1.00  0.00    -0.036 A  
HETATM   27  C   UNL     1      -8.183  10.711  64.986  1.00  0.00    -0.074 C  
HETATM   28  C   UNL     1      -7.209  10.829  66.135  1.00  0.00    -0.126 A  
HETATM   29  C   UNL     1      -5.315   9.734  67.234  1.00  0.00    -0.039 A  
HETATM   30  C   UNL     1      -6.318   9.735  66.276  1.00  0.00    -0.070 A  
ENDBRANCH   8  24
ENDBRANCH   2   5
BRANCH   3  31
HETATM   31  C   UNL     1     -11.090   9.877  68.837  1.00  0.00    -0.181 C  
HETATM   32  C   UNL     1     -12.115   9.763  67.664  1.00  0.00     3.442 C  
HETATM   33  C   UNL     1     -11.975  10.187  70.070  1.00  0.00    -0.210 C  
BRANCH  31  34
HETATM   34  C   UNL     1     -10.350   8.519  68.905  1.00  0.00    -0.226 A  
HETATM   35  F   UNL     1     -11.115   5.221  71.636  1.00  0.00    -0.276 F  
HETATM   36  C   UNL     1      -8.750   6.902  67.970  1.00  0.00    -0.125 A  
HETATM   37  C   UNL     1      -7.812   6.495  66.856  1.00  0.00    -0.107 C  
HETATM   38  F   UNL     1      -9.468   6.326  72.536  1.00  0.00    -0.145 F  
HETATM   39  C   UNL     1      -9.491   8.092  67.877  1.00  0.00    -0.162 A  
HETATM   40  C   UNL     1      -8.873   6.112  69.120  1.00  0.00    -0.123 A  
HETATM   41  F   UNL     1      -8.129   5.278  66.333  1.00  0.00    -0.104 F  
HETATM   42  F   UNL     1      -6.520   6.408  67.268  1.00  0.00    -0.043 F  
HETATM   43  F   UNL     1      -7.816   7.362  65.806  1.00  0.00    -0.088 F  
HETATM   44  F   UNL     1      -9.071   4.528  71.381  1.00  0.00    -0.135 F  
HETATM   45  C   UNL     1      -9.728   6.494  70.163  1.00  0.00    -0.180 A  
HETATM   46  C   UNL     1     -10.465   7.690  70.040  1.00  0.00    -0.229 A  
HETATM   47  C   UNL     1      -9.842   5.651  71.416  1.00  0.00    -0.173 C  
ENDBRANCH  31  34
ENDBRANCH   3  31
TORSDOF 7
ENDMDL
MODEL      123
REMARK 921   NORMALIZED FREE ENERGY PREDICTED BY IDOCK:    5.82 KCAL/MOL
REMARK 922        TOTAL FREE ENERGY PREDICTED BY IDOCK:    7.56 KCAL/MOL
REMARK 923 INTER-LIGAND FREE ENERGY PREDICTED BY IDOCK:   -3.40 KCAL/MOL
REMARK 924 INTRA-LIGAND FREE ENERGY PREDICTED BY IDOCK:   10.96 KCAL/MOL
REMARK 927      BINDING AFFINITY PREDICTED BY RF-SCORE:    0.00 PKD
ROOT
HETATM    1  C   UNL     1     -10.523  13.590  66.727  1.00  0.00    -0.273 C  
HETATM    2  N   UNL     1     -11.044  13.743  68.091  1.00  0.00    -0.250 N  
HETATM    3  C   UNL     1     -11.164  14.958  68.779  1.00  0.00    -0.275 C  
HETATM    4  O   UNL     1     -11.381  14.955  69.998  1.00  0.00    -0.254 OA 
ENDROOT
BRANCH   2   5
HETATM    5  C   UNL     1     -10.925  12.539  68.874  1.00  0.00    -0.227 A  
HETATM    6  C   UNL     1     -11.636  10.907  70.465  1.00  0.00    -0.397 A  
HETATM    7  C   UNL     1     -10.103  11.520  68.380  1.00  0.00    -0.204 A  
HETATM    8  C   UNL     1     -11.701  12.257  70.015  1.00  0.00    -0.319 A  
HETATM    9  C   UNL     1     -10.786   9.928  69.924  1.00  0.00    -0.280 A  
HETATM   10  N   UNL     1     -10.009  10.262  68.881  1.00  0.00    -0.190 NA 
BRANCH   9  11
HETATM   11  N   UNL     1     -10.713   8.635  70.406  1.00  0.00    -0.220 NA 
HETATM   12  C   UNL     1     -11.821   7.681  70.172  1.00  0.00     0.193 C  
HETATM   13  N   UNL     1     -10.104   5.759  70.156  1.00  0.00    -0.196 N  
HETATM   14  C   UNL     1     -10.492   5.026  71.419  1.00  0.00    -0.143 C  
HETATM   15  C   UNL     1      -9.570   8.068  71.126  1.00  0.00    -0.160 C  
HETATM   16  C   UNL     1     -11.329   6.392  69.455  1.00  0.00    -0.377 C  
HETATM   17  C   UNL     1      -9.030   6.829  70.392  1.00  0.00    -0.152 C  
BRANCH  13  18
HETATM   18  C   UNL     1      -9.457   4.744  69.202  1.00  0.00    -0.149 C  
BRANCH  18  19
HETATM   19  O   UNL     1     -10.193   4.450  68.054  1.00  0.00     0.007 OA 
HETATM   20  O   UNL     1      -7.810   4.488  67.148  1.00  0.00    -0.096 OA 
HETATM   21  O   UNL     1      -9.888   3.964  65.586  1.00  0.00    -0.184 OA 
HETATM   22  O   UNL     1      -9.558   6.207  66.517  1.00  0.00    -0.155 OA 
HETATM   23  P   UNL     1      -9.253   4.645  66.751  1.00  0.00    -0.149 P  
ENDBRANCH  18  19
ENDBRANCH  13  18
ENDBRANCH   9  11
BRANCH   8  24
HETATM   24  C   UNL     1     -12.604  13.236  70.735  1.00  0.00    -0.357 A  
HETATM   25  C   UNL     1     -12.611  14.600  70.365  1.00  0.00    -0.399 A  
HETATM   26  C   UNL     1     -13.419  15.563  70.982  1.00  0.00    -0.436 A  
HETATM   27  C   UNL     1     -13.622  11.500  72.388  1.00  0.00     0.234 C  
HETATM   28  C   UNL     1     -13.500  12.882  71.790  1.00  0.00    -0.369 A  
HETATM   29  C   UNL     1     -14.310  15.185  71.969  1.00  0.00    -0.682 A  
HETATM   30  C   UNL     1     -14.361  13.855  72.357  1.00  0.00    -0.396 A  
ENDBRANCH   8  24
ENDBRANCH   2   5
BRANCH   3  31
HETATM   31  C   UNL     1     -11.026  16.335  68.031  1.00  0.00    -0.328 C  
HETATM   32  C   UNL     1     -11.813  17.415  68.837  1.00  0.00     2.054 C  
HETATM   33  C   UNL     1     -11.746  16.300  66.660  1.00  0.00     0.997 C  
BRANCH  31  34
HETATM   34  C   UNL     1      -9.557  16.820  67.969  1.00  0.00    -0.234 A  
HETATM   35  F   UNL     1      -6.152  15.235  70.164  1.00  0.00    -0.132 F  
HETATM   36  C   UNL     1      -7.797  18.200  66.946  1.00  0.00    -0.249 A  
HETATM   37  C   UNL     1      -7.360  19.157  65.860  1.00  0.00    -0.252 C  
HETATM   38  F   UNL     1      -6.819  16.951  71.326  1.00  0.00     2.099 F  
HETATM   39  C   UNL     1      -9.105  17.688  66.960  1.00  0.00    -0.256 A  
HETATM   40  C   UNL     1      -6.910  17.830  67.966  1.00  0.00    -0.191 A  
HETATM   41  F   UNL     1      -6.294  18.688  65.155  1.00  0.00    -0.273 F  
HETATM   42  F   UNL     1      -6.989  20.368  66.351  1.00  0.00    -0.242 F  
HETATM   43  F   UNL     1      -8.333  19.405  64.940  1.00  0.00     0.968 F  
HETATM   44  F   UNL     1      -5.131  17.143  69.971  1.00  0.00    -0.146 F  
HETATM   45  C   UNL     1      -7.316  16.957  68.985  1.00  0.00    -0.231 A  
HETATM   46  C   UNL     1      -8.633  16.453  68.971  1.00  0.00    -0.230 A  
HETATM   47  C   UNL     1      -6.364  16.577  70.101  1.00  0.00     0.101 C  
ENDBRANCH  31  34
ENDBRANCH   3  31
TORSDOF 7
ENDMDL
MODEL      124
REMARK 921   NORMALIZED FREE ENERGY PREDICTED BY IDOCK:   19.43 KCAL/MOL
REMARK 922        TOTAL FREE ENERGY PREDICTED BY IDOCK:   26.74 KCAL/MOL
REMARK 923 INTER-LIGAND FREE ENERGY PREDICTED BY IDOCK:   29.08 KCAL/MOL
REMARK 924 INTRA-LIGAND FREE ENERGY PREDICTED BY IDOCK:   -2.34 KCAL/MOL
REMARK 927      BINDING AFFINITY PREDICTED BY RF-SCORE:    0.00 PKD
ROOT
HETATM    1  C   UNL     1     -12.814  10.335  65.952  1.00  0.00    10.465 C  
HETATM    2  N   UNL     1     -11.615  11.164  65.783  1.00  0.00     0.343 N  
HETATM    3  C   UNL     1     -10.437  10.760  65.141  1.00  0.00    -0.229 C  
HETATM    4  O   UNL     1      -9.406  11.436  65.264  1.00  0.00    -0.217 OA 
ENDROOT
BRANCH   2   5
HETATM    5  C   UNL     1     -11.515  12.212  66.767  1.00  0.00    -0.356 A  
HETATM    6  C   UNL     1     -10.567  13.344  68.643  1.00  0.00    -0.257 A  
HETATM    7  C   UNL     1     -12.054  13.462  66.442  1.00  0.00    -0.409 A  
HETATM    8  C   UNL     1     -10.774  12.111  67.960  1.00  0.00    -0.242 A  
HETATM    9  C   UNL     1     -11.140  14.570  68.264  1.00  0.00    -0.261 A  
HETATM   10  N   UNL     1     -11.899  14.605  67.157  1.00  0.00    -0.383 NA 
BRANCH   9  11
HETATM   11  N   UNL     1     -10.955  15.745  68.968  1.00  0.00    -0.243 NA 
HETATM   12  C   UNL     1     -10.001  15.802  70.100  1.00  0.00     0.015 C  
HETATM   13  N   UNL     1      -9.562  18.280  69.546  1.00  0.00     0.243 N  
HETATM   14  C   UNL     1     -10.167  18.950  70.758  1.00  0.00     2.168 C  
HETATM   15  C   UNL     1     -11.609  17.020  68.665  1.00  0.00     0.555 C  
HETATM   16  C   UNL     1      -8.931  16.912  69.895  1.00  0.00     1.265 C  
HETATM   17  C   UNL     1     -10.562  18.113  68.395  1.00  0.00    -0.197 C  
BRANCH  13  18
HETATM   18  C   UNL     1      -8.465  19.204  68.994  1.00  0.00    -0.201 C  
BRANCH  18  19
HETATM   19  O   UNL     1      -8.035  18.915  67.700  1.00  0.00    -0.247 OA 
HETATM   20  O   UNL     1      -5.821  19.200  68.932  1.00  0.00    -0.206 OA 
HETATM   21  O   UNL     1      -5.914  18.593  66.351  1.00  0.00    -0.152 OA 
HETATM   22  O   UNL     1      -6.627  20.802  67.144  1.00  0.00    -0.255 OA 
HETATM   23  P   UNL     1      -6.459  19.259  67.570  1.00  0.00    -0.204 P  
ENDBRANCH  18  19
ENDBRANCH  13  18
ENDBRANCH   9  11
BRANCH   8  24
HETATM   24  C   UNL     1     -10.163  10.844  68.517  1.00  0.00    -0.197 A  
HETATM   25  C   UNL     1      -8.830  10.498  68.197  1.00  0.00    -0.134 A  
HETATM   26  C   UNL     1      -8.195   9.345  68.676  1.00  0.00    -0.112 A  
HETATM   27  C   UNL     1     -12.281  10.069  69.818  1.00  0.00     0.119 C  
HETATM   28  C   UNL     1     -10.839   9.935  69.388  1.00  0.00    -0.265 A  
HETATM   29  C   UNL     1      -8.858   8.508  69.553  1.00  0.00    -0.141 A  
HETATM   30  C   UNL     1     -10.161   8.809  69.918  1.00  0.00    -0.197 A  
ENDBRANCH   8  24
ENDBRANCH   2   5
BRANCH   3  31
HETATM   31  C   UNL     1     -10.394   9.454  64.264  1.00  0.00     2.549 C  
HETATM   32  C   UNL     1      -9.669   9.786  62.922  1.00  0.00     0.426 C  
HETATM   33  C   UNL     1     -11.817   9.035  63.819  1.00  0.00    15.395 C  
BRANCH  31  34
HETATM   34  C   UNL     1      -9.575   8.326  64.937  1.00  0.00     1.268 A  
HETATM   35  F   UNL     1      -5.258   7.792  64.875  1.00  0.00    -0.028 F  
HETATM   36  C   UNL     1      -9.432   6.390  66.447  1.00  0.00    -0.169 A  
HETATM   37  C   UNL     1     -10.091   5.472  67.452  1.00  0.00    -0.179 C  
HETATM   38  F   UNL     1      -6.006   6.498  63.291  1.00  0.00    -0.028 F  
HETATM   39  C   UNL     1     -10.143   7.469  65.895  1.00  0.00     0.743 A  
HETATM   40  C   UNL     1      -8.112   6.163  66.035  1.00  0.00    -0.118 A  
HETATM   41  F   UNL     1      -9.423   5.440  68.637  1.00  0.00    -0.117 F  
HETATM   42  F   UNL     1     -10.158   4.187  67.016  1.00  0.00    -0.237 F  
HETATM   43  F   UNL     1     -11.367   5.835  67.755  1.00  0.00    -0.254 F  
HETATM   44  F   UNL     1      -5.510   5.664  65.236  1.00  0.00    -0.012 F  
HETATM   45  C   UNL     1      -7.503   7.001  65.090  1.00  0.00    -0.094 A  
HETATM   46  C   UNL     1      -8.238   8.080  64.558  1.00  0.00    -0.097 A  
HETATM   47  C   UNL     1      -6.085   6.739  64.627  1.00  0.00    -0.036 C  
ENDBRANCH  31  34
ENDBRANCH   3  31
TORSDOF 7
ENDMDL
MODEL      125
REMARK 921   NORMALIZED FREE ENERGY PREDICTED BY IDOCK:   19.57 KCAL/MOL
REMARK 922        TOTAL FREE ENERGY PREDICTED BY IDOCK:   26.94 KCAL/MOL
REMARK 923 INTER-LIGAND FREE ENERGY PREDICTED BY IDOCK:   21.59 KCAL/MOL
REMARK 924 INTRA-LIGAND FREE ENERGY PREDICTED BY IDOCK:    5.35 KCAL/MOL
REMARK 927      BINDING AFFINITY PREDICTED BY RF-SCORE:    0.00 PKD
ROOT
HETATM    1  C   UNL     1      -9.424  15.866  69.053  1.00  0.00    -0.247 C  
HETATM    2  N   UNL     1     -10.556  15.288  68.321  1.00  0.00    -0.240 N  
HETATM    3  C   UNL     1     -11.501  16.016  67.586  1.00  0.00    -0.016 C  
HETATM    4  O   UNL     1     -12.546  15.467  67.212  1.00  0.00     0.926 OA 
ENDROOT
BRANCH   2   5
HETATM    5  C   UNL     1     -10.953  13.999  68.829  1.00  0.00    -0.262 A  
HETATM    6  C   UNL     1     -12.142  12.503  70.260  1.00  0.00    -0.373 A  
HETATM    7  C   UNL     1     -10.864  12.903  67.963  1.00  0.00    -0.241 A  
HETATM    8  C   UNL     1     -11.572  13.796  70.077  1.00  0.00    -0.265 A  
HETATM    9  C   UNL     1     -12.015  11.442  69.349  1.00  0.00    -0.339 A  
HETATM   10  N   UNL     1     -11.354  11.660  68.201  1.00  0.00    -0.266 NA 
BRANCH   9  11
HETATM   11  N   UNL     1     -12.545  10.184  69.570  1.00  0.00     0.202 NA 
HETATM   12  C   UNL     1     -12.281   9.079  68.619  1.00  0.00     3.239 C  
HETATM   13  N   UNL     1     -12.427   7.415  70.582  1.00  0.00    -0.077 N  
HETATM   14  C   UNL     1     -13.690   6.669  70.223  1.00  0.00     3.113 C  
HETATM   15  C   UNL     1     -13.346   9.800  70.734  1.00  0.00    -0.080 C  
HETATM   16  C   UNL     1     -11.637   7.853  69.326  1.00  0.00     0.791 C  
HETATM   17  C   UNL     1     -12.686   8.630  71.482  1.00  0.00    -0.316 C  
BRANCH  13  18
HETATM   18  C   UNL     1     -11.545   6.475  71.418  1.00  0.00    -0.318 C  
BRANCH  18  19
HETATM   19  O   UNL     1     -11.045   7.020  72.601  1.00  0.00    -0.257 OA 
HETATM   20  O   UNL     1      -9.605   4.931  72.341  1.00  0.00    -0.142 OA 
HETATM   21  O   UNL     1      -9.285   6.603  74.375  1.00  0.00    -0.178 OA 
HETATM   22  O   UNL     1     -11.302   5.221  74.198  1.00  0.00     0.094 OA 
HETATM   23  P   UNL     1     -10.126   5.919  73.350  1.00  0.00    -0.231 P  
ENDBRANCH  18  19
ENDBRANCH  13  18
ENDBRANCH   9  11
BRANCH   8  24
HETATM   24  C   UNL     1     -11.714  14.831  71.172  1.00  0.00    -0.360 A  
HETATM   25  C   UNL     1     -12.997  15.205  71.634  1.00  0.00    -0.454 A  
HETATM   26  C   UNL     1     -13.208  16.151  72.644  1.00  0.00    -0.294 A  
HETATM   27  C   UNL     1      -9.165  15.281  71.454  1.00  0.00     3.357 C  
HETATM   28  C   UNL     1     -10.617  15.479  71.819  1.00  0.00     0.731 A  
HETATM   29  C   UNL     1     -12.129  16.728  73.284  1.00  0.00    -0.230 A  
HETATM   30  C   UNL     1     -10.846  16.383  72.887  1.00  0.00     2.676 A  
ENDBRANCH   8  24
ENDBRANCH   2   5
BRANCH   3  31
HETATM   31  C   UNL     1     -11.263  17.529  67.226  1.00  0.00     0.342 C  
HETATM   32  C   UNL     1     -12.067  18.409  68.235  1.00  0.00     3.899 C  
HETATM   33  C   UNL     1     -11.887  17.881  65.853  1.00  0.00     3.389 C  
BRANCH  31  34
HETATM   34  C   UNL     1      -9.778  17.937  67.378  1.00  0.00    -0.288 A  
HETATM   35  F   UNL     1      -7.378  20.274  64.602  1.00  0.00    -0.169 F  
HETATM   36  C   UNL     1      -7.726  18.099  68.725  1.00  0.00    -0.277 A  
HETATM   37  C   UNL     1      -7.023  17.919  70.052  1.00  0.00     0.758 C  
HETATM   38  F   UNL     1      -6.908  18.199  64.140  1.00  0.00     1.524 F  
HETATM   39  C   UNL     1      -9.096  17.811  68.601  1.00  0.00    -0.262 A  
HETATM   40  C   UNL     1      -7.016  18.530  67.597  1.00  0.00    -0.212 A  
HETATM   41  F   UNL     1      -6.456  19.074  70.496  1.00  0.00    -0.095 F  
HETATM   42  F   UNL     1      -6.023  17.001  69.991  1.00  0.00    -0.213 F  
HETATM   43  F   UNL     1      -7.854  17.507  71.049  1.00  0.00     3.941 F  
HETATM   44  F   UNL     1      -5.568  19.366  65.392  1.00  0.00    -0.168 F  
HETATM   45  C   UNL     1      -7.659  18.681  66.361  1.00  0.00    -0.284 A  
HETATM   46  C   UNL     1      -9.036  18.392  66.266  1.00  0.00    -0.213 A  
HETATM   47  C   UNL     1      -6.885  19.124  65.137  1.00  0.00    -0.021 C  
ENDBRANCH  31  34
ENDBRANCH   3  31
TORSDOF 7
ENDMDL
MODEL      126
REMARK 921   NORMALIZED FREE ENERGY PREDICTED BY IDOCK:   26.63 KCAL/MOL
REMARK 922        TOTAL FREE ENERGY PREDICTED BY IDOCK:   36.88 KCAL/MOL
REMARK 923 INTER-LIGAND FREE ENERGY PREDICTED BY IDOCK:   28.60 KCAL/MOL
REMARK 924 INTRA-LIGAND FREE ENERGY PREDICTED BY IDOCK:    8.28 KCAL/MOL
REMARK 927      BINDING AFFINITY PREDICTED BY RF-SCORE:    0.00 PKD
ROOT
HETATM    1  C   UNL     1      -9.184  15.185  69.156  1.00  0.00    -0.215 C  
HETATM    2  N   UNL     1     -10.390  14.626  68.535  1.00  0.00    -0.232 N  
HETATM    3  C   UNL     1     -11.400  15.373  67.912  1.00  0.00    -0.325 C  
HETATM    4  O   UNL     1     -12.482  14.836  67.640  1.00  0.00     0.038 OA 
ENDROOT
BRANCH   2   5
HETATM    5  C   UNL     1     -10.744  13.333  69.062  1.00  0.00    -0.121 A  
HETATM    6  C   UNL     1     -11.725  11.823  70.630  1.00  0.00    -0.012 A  
HETATM    7  C   UNL     1     -10.852  12.269  68.159  1.00  0.00    -0.227 A  
HETATM    8  C   UNL     1     -11.144  13.102  70.393  1.00  0.00     0.959 A  
HETATM    9  C   UNL     1     -11.802  10.794  69.677  1.00  0.00    -0.320 A  
HETATM   10  N   UNL     1     -11.342  11.035  68.438  1.00  0.00    -0.270 NA 
BRANCH   9  11
HETATM   11  N   UNL     1     -12.335   9.547  69.946  1.00  0.00     0.450 NA 
HETATM   12  C   UNL     1     -12.297   8.477  68.923  1.00  0.00     3.673 C  
HETATM   13  N   UNL     1     -12.152   6.735  70.818  1.00  0.00    -0.386 N  
HETATM   14  C   UNL     1     -13.490   6.050  70.672  1.00  0.00     3.686 C  
HETATM   15  C   UNL     1     -12.925   9.142  71.223  1.00  0.00    -0.251 C  
HETATM   16  C   UNL     1     -11.587   7.199  69.455  1.00  0.00     0.217 C  
HETATM   17  C   UNL     1     -12.190   7.918  71.794  1.00  0.00    -0.310 C  
BRANCH  13  18
HETATM   18  C   UNL     1     -11.173   5.730  71.443  1.00  0.00    -0.164 C  
BRANCH  18  19
HETATM   19  O   UNL     1     -10.442   6.205  72.532  1.00  0.00    -0.190 OA 
HETATM   20  O   UNL     1      -9.164   4.080  71.935  1.00  0.00    -0.117 OA 
HETATM   21  O   UNL     1      -8.406   5.650  73.935  1.00  0.00    -0.113 OA 
HETATM   22  O   UNL     1     -10.478   4.348  74.083  1.00  0.00    -0.208 OA 
HETATM   23  P   UNL     1      -9.449   5.041  73.058  1.00  0.00    -0.142 P  
ENDBRANCH  18  19
ENDBRANCH  13  18
ENDBRANCH   9  11
BRANCH   8  24
HETATM   24  C   UNL     1     -11.052  14.097  71.530  1.00  0.00     1.615 A  
HETATM   25  C   UNL     1     -12.219  14.501  72.217  1.00  0.00    -0.273 A  
HETATM   26  C   UNL     1     -12.213  15.414  73.279  1.00  0.00    -0.589 A  
HETATM   27  C   UNL     1      -8.474  14.438  71.383  1.00  0.00     5.025 C  
HETATM   28  C   UNL     1      -9.833  14.677  71.998  1.00  0.00     4.413 A  
HETATM   29  C   UNL     1     -11.015  15.924  73.742  1.00  0.00     2.694 A  
HETATM   30  C   UNL     1      -9.836  15.546  73.118  1.00  0.00     7.029 A  
ENDBRANCH   8  24
ENDBRANCH   2   5
BRANCH   3  31
HETATM   31  C   UNL     1     -11.186  16.889  67.552  1.00  0.00     0.109 C  
HETATM   32  C   UNL     1     -11.833  17.759  68.675  1.00  0.00     2.564 C  
HETATM   33  C   UNL     1     -11.982  17.278  66.281  1.00  0.00     3.106 C  
BRANCH  31  34
HETATM   34  C   UNL     1      -9.687  17.273  67.510  1.00  0.00    -0.264 A  
HETATM   35  F   UNL     1      -6.310  14.908  68.895  1.00  0.00    -0.084 F  
HETATM   36  C   UNL     1      -7.877  18.767  66.773  1.00  0.00    -0.255 A  
HETATM   37  C   UNL     1      -7.424  19.963  65.966  1.00  0.00    -0.324 C  
HETATM   38  F   UNL     1      -6.757  16.264  70.539  1.00  0.00     0.166 F  
HETATM   39  C   UNL     1      -9.222  18.360  66.750  1.00  0.00    -0.293 A  
HETATM   40  C   UNL     1      -6.968  18.065  67.575  1.00  0.00    -0.201 A  
HETATM   41  F   UNL     1      -6.446  19.643  65.075  1.00  0.00    -0.257 F  
HETATM   42  F   UNL     1      -6.922  20.957  66.744  1.00  0.00    -0.307 F  
HETATM   43  F   UNL     1      -8.424  20.526  65.233  1.00  0.00     0.024 F  
HETATM   44  F   UNL     1      -5.140  16.721  69.160  1.00  0.00    -0.121 F  
HETATM   45  C   UNL     1      -7.387  16.968  68.340  1.00  0.00    -0.213 A  
HETATM   46  C   UNL     1      -8.741  16.577  68.292  1.00  0.00    -0.209 A  
HETATM   47  C   UNL     1      -6.408  16.224  69.225  1.00  0.00    -0.177 C  
ENDBRANCH  31  34
ENDBRANCH   3  31
TORSDOF 7
ENDMDL
MODEL      127
REMARK 921   NORMALIZED FREE ENERGY PREDICTED BY IDOCK:   39.43 KCAL/MOL
REMARK 922        TOTAL FREE ENERGY PREDICTED BY IDOCK:   54.92 KCAL/MOL
REMARK 923 INTER-LIGAND FREE ENERGY PREDICTED BY IDOCK:   34.27 KCAL/MOL
REMARK 924 INTRA-LIGAND FREE ENERGY PREDICTED BY IDOCK:   20.65 KCAL/MOL
REMARK 927      BINDING AFFINITY PREDICTED BY RF-SCORE:    0.00 PKD
ROOT
HETATM    1  C   UNL     1      -7.842  12.977  69.516  1.00  0.00     0.949 C  
HETATM    2  N   UNL     1      -8.019  12.222  68.270  1.00  0.00    -0.157 N  
HETATM    3  C   UNL     1      -8.678  12.692  67.127  1.00  0.00    -0.201 C  
HETATM    4  O   UNL     1      -8.986  11.900  66.225  1.00  0.00    -0.207 OA 
ENDROOT
BRANCH   2   5
HETATM    5  C   UNL     1      -7.951  10.795  68.464  1.00  0.00    -0.130 A  
HETATM    6  C   UNL     1      -8.757   8.550  68.361  1.00  0.00    -0.143 A  
HETATM    7  C   UNL     1      -6.682  10.206  68.519  1.00  0.00    -0.057 A  
HETATM    8  C   UNL     1      -9.068   9.939  68.441  1.00  0.00    -0.123 A  
HETATM    9  C   UNL     1      -7.457   8.021  68.423  1.00  0.00    -0.103 A  
HETATM   10  N   UNL     1      -6.424   8.874  68.517  1.00  0.00    -0.054 NA 
BRANCH   9  11
HETATM   11  N   UNL     1      -7.186   6.666  68.383  1.00  0.00    -0.083 NA 
HETATM   12  C   UNL     1      -8.287   5.681  68.287  1.00  0.00    -0.102 C  
HETATM   13  N   UNL     1      -6.710   4.113  66.984  1.00  0.00    -0.046 N  
HETATM   14  C   UNL     1      -6.547   2.989  67.980  1.00  0.00    -0.037 C  
HETATM   15  C   UNL     1      -5.846   6.076  68.382  1.00  0.00    -0.012 C  
HETATM   16  C   UNL     1      -8.118   4.749  67.053  1.00  0.00    -0.106 C  
HETATM   17  C   UNL     1      -5.640   5.203  67.133  1.00  0.00    -0.013 C  
BRANCH  13  18
HETATM   18  C   UNL     1      -6.498   3.533  65.577  1.00  0.00    -0.032 C  
BRANCH  18  19
HETATM   19  O   UNL     1      -7.657   3.355  64.823  1.00  0.00    -0.074 OA 
HETATM   20  O   UNL     1      -8.570   4.476  66.924  1.00  0.00    -0.105 OA 
HETATM   21  O   UNL     1     -10.151   3.798  64.904  1.00  0.00    -0.185 OA 
HETATM   22  O   UNL     1      -9.092   2.079  66.295  1.00  0.00    -0.116 OA 
HETATM   23  P   UNL     1      -8.951   3.592  65.766  1.00  0.00    -0.150 P  
ENDBRANCH  18  19
ENDBRANCH  13  18
ENDBRANCH   9  11
BRANCH   8  24
HETATM   24  C   UNL     1     -10.517  10.375  68.441  1.00  0.00    -0.216 A  
HETATM   25  C   UNL     1     -10.999  11.241  67.434  1.00  0.00    -0.337 A  
HETATM   26  C   UNL     1     -12.325  11.685  67.366  1.00  0.00     1.076 A  
HETATM   27  C   UNL     1     -11.189   9.081  70.599  1.00  0.00    -0.318 C  
HETATM   28  C   UNL     1     -11.486   9.956  69.405  1.00  0.00    -0.079 A  
HETATM   29  C   UNL     1     -13.252  11.228  68.284  1.00  0.00     5.042 A  
HETATM   30  C   UNL     1     -12.840  10.360  69.283  1.00  0.00     1.112 A  
ENDBRANCH   8  24
ENDBRANCH   2   5
BRANCH   3  31
HETATM   31  C   UNL     1      -9.042  14.214  66.964  1.00  0.00    -0.255 C  
HETATM   32  C   UNL     1      -9.795  14.399  65.609  1.00  0.00    -0.322 C  
HETATM   33  C   UNL     1      -7.766  15.077  66.797  1.00  0.00     0.174 C  
BRANCH  31  34
HETATM   34  C   UNL     1     -10.006  14.704  68.071  1.00  0.00    -0.220 A  
HETATM   35  F   UNL     1     -14.311  15.255  67.779  1.00  0.00     7.610 F  
HETATM   36  C   UNL     1     -10.451  15.300  70.416  1.00  0.00    -0.168 A  
HETATM   37  C   UNL     1      -9.975  15.390  71.848  1.00  0.00     2.847 C  
HETATM   38  F   UNL     1     -13.468  17.234  67.439  1.00  0.00     4.875 F  
HETATM   39  C   UNL     1      -9.611  14.776  69.418  1.00  0.00    -0.013 A  
HETATM   40  C   UNL     1     -11.724  15.761  70.060  1.00  0.00    -0.362 A  
HETATM   41  F   UNL     1     -10.778  14.699  72.703  1.00  0.00     0.416 F  
HETATM   42  F   UNL     1      -9.941  16.668  72.307  1.00  0.00     3.849 F  
HETATM   43  F   UNL     1      -8.722  14.890  72.031  1.00  0.00     2.665 F  
HETATM   44  F   UNL     1     -14.242  16.703  69.399  1.00  0.00     3.378 F  
HETATM   45  C   UNL     1     -12.163  15.697  68.729  1.00  0.00     0.023 A  
HETATM   46  C   UNL     1     -11.302  15.160  67.750  1.00  0.00    -0.335 A  
HETATM   47  C   UNL     1     -13.531  16.219  68.341  1.00  0.00     5.119 C  
ENDBRANCH  31  34
ENDBRANCH   3  31
TORSDOF 7
ENDMDL
MODEL      128
REMARK 921   NORMALIZED FREE ENERGY PREDICTED BY IDOCK:   45.69 KCAL/MOL
REMARK 922        TOTAL FREE ENERGY PREDICTED BY IDOCK:   63.74 KCAL/MOL
REMARK 923 INTER-LIGAND FREE ENERGY PREDICTED BY IDOCK:   55.79 KCAL/MOL
REMARK 924 INTRA-LIGAND FREE ENERGY PREDICTED BY IDOCK:    7.95 KCAL/MOL
REMARK 927      BINDING AFFINITY PREDICTED BY RF-SCORE:    0.00 PKD
ROOT
HETATM    1  C   UNL     1      -8.685  16.668  70.400  1.00  0.00     2.793 C  
HETATM    2  N   UNL     1      -8.027  15.847  69.377  1.00  0.00    -0.226 N  
HETATM    3  C   UNL     1      -7.963  16.155  68.011  1.00  0.00    -0.145 C  
HETATM    4  O   UNL     1      -7.604  15.288  67.201  1.00  0.00    -0.203 OA 
ENDROOT
BRANCH   2   5
HETATM    5  C   UNL     1      -7.914  14.462  69.756  1.00  0.00     0.447 A  
HETATM    6  C   UNL     1      -8.219  12.108  69.493  1.00  0.00     1.142 A  
HETATM    7  C   UNL     1      -6.869  14.105  70.615  1.00  0.00     0.488 A  
HETATM    8  C   UNL     1      -8.683  13.422  69.197  1.00  0.00     0.583 A  
HETATM    9  C   UNL     1      -7.160  11.816  70.368  1.00  0.00     1.586 A  
HETATM   10  N   UNL     1      -6.499  12.839  70.936  1.00  0.00     0.457 NA 
BRANCH   9  11
HETATM   11  N   UNL     1      -6.755  10.529  70.669  1.00  0.00    -0.331 NA 
HETATM   12  C   UNL     1      -6.812  10.030  72.063  1.00  0.00     1.570 C  
HETATM   13  N   UNL     1      -7.239   7.659  71.147  1.00  0.00    -0.061 N  
HETATM   14  C   UNL     1      -5.956   6.968  71.549  1.00  0.00    -0.037 C  
HETATM   15  C   UNL     1      -6.294   9.541  69.692  1.00  0.00    -0.040 C  
HETATM   16  C   UNL     1      -7.664   8.734  72.175  1.00  0.00     0.063 C  
HETATM   17  C   UNL     1      -7.170   8.278  69.746  1.00  0.00    -0.060 C  
BRANCH  13  18
HETATM   18  C   UNL     1      -8.342   6.593  71.061  1.00  0.00    -0.125 C  
BRANCH  18  19
HETATM   19  O   UNL     1      -8.401   5.705  72.136  1.00  0.00    -0.114 OA 
HETATM   20  O   UNL     1     -10.047   4.650  70.500  1.00  0.00    -0.225 OA 
HETATM   21  O   UNL     1      -9.527   3.554  72.858  1.00  0.00    -0.107 OA 
HETATM   22  O   UNL     1     -10.751   5.673  72.706  1.00  0.00    -0.212 OA 
HETATM   23  P   UNL     1      -9.682   4.733  71.957  1.00  0.00    -0.175 P  
ENDBRANCH  18  19
ENDBRANCH  13  18
ENDBRANCH   9  11
BRANCH   8  24
HETATM   24  C   UNL     1      -9.887  13.598  68.297  1.00  0.00    -0.232 A  
HETATM   25  C   UNL     1     -11.187  13.347  68.792  1.00  0.00    -0.315 A  
HETATM   26  C   UNL     1     -12.348  13.491  68.022  1.00  0.00     0.049 A  
HETATM   27  C   UNL     1      -8.543  14.301  66.180  1.00  0.00     0.630 C  
HETATM   28  C   UNL     1      -9.822  14.030  66.937  1.00  0.00    -0.267 A  
HETATM   29  C   UNL     1     -12.260  13.954  66.723  1.00  0.00    -0.438 A  
HETATM   30  C   UNL     1     -11.011  14.236  66.192  1.00  0.00    -0.313 A  
ENDBRANCH   8  24
ENDBRANCH   2   5
BRANCH   3  31
HETATM   31  C   UNL     1      -8.345  17.586  67.480  1.00  0.00    -0.220 C  
HETATM   32  C   UNL     1      -7.492  17.883  66.206  1.00  0.00    -0.321 C  
HETATM   33  C   UNL     1      -7.909  18.686  68.479  1.00  0.00    -0.355 C  
BRANCH  31  34
HETATM   34  C   UNL     1      -9.827  17.669  67.042  1.00  0.00    -0.307 A  
HETATM   35  F   UNL     1     -11.405  19.302  63.332  1.00  0.00     6.785 F  
HETATM   36  C   UNL     1     -12.196  17.096  67.377  1.00  0.00     2.752 A  
HETATM   37  C   UNL     1     -13.255  16.338  68.145  1.00  0.00     4.330 C  
HETATM   38  F   UNL     1     -11.593  20.917  64.781  1.00  0.00     0.480 F  
HETATM   39  C   UNL     1     -10.838  16.959  67.713  1.00  0.00    -0.281 A  
HETATM   40  C   UNL     1     -12.555  17.962  66.337  1.00  0.00     7.244 A  
HETATM   41  F   UNL     1     -13.996  15.527  67.341  1.00  0.00     4.855 F  
HETATM   42  F   UNL     1     -14.136  17.164  68.769  1.00  0.00     4.737 F  
HETATM   43  F   UNL     1     -12.743  15.532  69.114  1.00  0.00    -0.103 F  
HETATM   44  F   UNL     1     -13.313  19.678  64.301  1.00  0.00    12.183 F  
HETATM   45  C   UNL     1     -11.578  18.680  65.633  1.00  0.00     2.346 A  
HETATM   46  C   UNL     1     -10.222  18.519  65.988  1.00  0.00    -0.371 A  
HETATM   47  C   UNL     1     -11.969  19.635  64.525  1.00  0.00     5.859 C  
ENDBRANCH  31  34
ENDBRANCH   3  31
TORSDOF 7
ENDMDL
MODEL      129
REMARK 921   NORMALIZED FREE ENERGY PREDICTED BY IDOCK:   60.21 KCAL/MOL
REMARK 922        TOTAL FREE ENERGY PREDICTED BY IDOCK:   84.21 KCAL/MOL
REMARK 923 INTER-LIGAND FREE ENERGY PREDICTED BY IDOCK:   67.31 KCAL/MOL
REMARK 924 INTRA-LIGAND FREE ENERGY PREDICTED BY IDOCK:   16.90 KCAL/MOL
REMARK 927      BINDING AFFINITY PREDICTED BY RF-SCORE:    0.00 PKD
ROOT
HETATM    1  C   UNL     1      -9.602  13.880  70.815  1.00  0.00     4.398 C  
HETATM    2  N   UNL     1      -8.434  13.643  69.959  1.00  0.00     2.043 N  
HETATM    3  C   UNL     1      -7.739  14.630  69.247  1.00  0.00    -0.091 C  
HETATM    4  O   UNL     1      -6.929  14.301  68.370  1.00  0.00    -0.085 OA 
ENDROOT
BRANCH   2   5
HETATM    5  C   UNL     1      -8.365  12.291  69.466  1.00  0.00     1.325 A  
HETATM    6  C   UNL     1      -7.498  10.507  68.137  1.00  0.00    -0.090 A  
HETATM    7  C   UNL     1      -8.856  11.272  70.291  1.00  0.00     2.800 A  
HETATM    8  C   UNL     1      -7.694  11.910  68.288  1.00  0.00    -0.127 A  
HETATM    9  C   UNL     1      -8.020   9.532  69.004  1.00  0.00    -0.092 A  
HETATM   10  N   UNL     1      -8.716   9.939  70.078  1.00  0.00    -0.195 NA 
BRANCH   9  11
HETATM   11  N   UNL     1      -7.848   8.174  68.812  1.00  0.00    -0.111 NA 
HETATM   12  C   UNL     1      -8.755   7.421  67.916  1.00  0.00    -0.123 C  
HETATM   13  N   UNL     1      -6.806   5.829  67.357  1.00  0.00    -0.062 N  
HETATM   14  C   UNL     1      -7.295   4.551  67.998  1.00  0.00    -0.065 C  
HETATM   15  C   UNL     1      -6.776   7.370  69.401  1.00  0.00    -0.041 C  
HETATM   16  C   UNL     1      -7.971   6.678  66.796  1.00  0.00    -0.108 C  
HETATM   17  C   UNL     1      -5.950   6.682  68.302  1.00  0.00    -0.021 C  
BRANCH  13  18
HETATM   18  C   UNL     1      -5.870   5.448  66.200  1.00  0.00    -0.018 C  
BRANCH  18  19
HETATM   19  O   UNL     1      -6.418   5.571  64.923  1.00  0.00    -0.036 OA 
HETATM   20  O   UNL     1      -8.440   4.826  66.287  1.00  0.00    -0.111 OA 
HETATM   21  O   UNL     1      -8.616   5.323  63.687  1.00  0.00    -0.126 OA 
HETATM   22  O   UNL     1      -7.362   3.382  64.508  1.00  0.00    -0.067 OA 
HETATM   23  P   UNL     1      -7.871   4.859  64.894  1.00  0.00    -0.097 P  
ENDBRANCH  18  19
ENDBRANCH  13  18
ENDBRANCH   9  11
BRANCH   8  24
HETATM   24  C   UNL     1      -7.144  12.853  67.239  1.00  0.00    -0.071 A  
HETATM   25  C   UNL     1      -5.939  13.553  67.476  1.00  0.00    -0.023 A  
HETATM   26  C   UNL     1      -5.367  14.439  66.554  1.00  0.00     3.309 A  
HETATM   27  C   UNL     1      -9.070  12.503  65.522  1.00  0.00     0.395 C  
HETATM   28  C   UNL     1      -7.754  13.094  65.971  1.00  0.00     2.483 A  
HETATM   29  C   UNL     1      -5.954  14.618  65.317  1.00  0.00    13.686 A  
HETATM   30  C   UNL     1      -7.127  13.941  65.022  1.00  0.00    13.196 A  
ENDBRANCH   8  24
ENDBRANCH   2   5
BRANCH   3  31
HETATM   31  C   UNL     1      -7.969  16.159  69.539  1.00  0.00     0.021 C  
HETATM   32  C   UNL     1      -6.965  16.984  68.674  1.00  0.00    -0.202 C  
HETATM   33  C   UNL     1      -7.578  16.514  70.995  1.00  0.00     4.538 C  
BRANCH  31  34
HETATM   34  C   UNL     1      -9.387  16.624  69.126  1.00  0.00    -0.177 A  
HETATM   35  F   UNL     1     -10.844  20.710  68.803  1.00  0.00    -0.255 F  
HETATM   36  C   UNL     1     -11.628  16.136  68.237  1.00  0.00    -0.181 A  
HETATM   37  C   UNL     1     -12.601  15.150  67.632  1.00  0.00     1.151 C  
HETATM   38  F   UNL     1     -11.483  20.040  70.774  1.00  0.00     2.832 F  
HETATM   39  C   UNL     1     -10.312  15.745  68.536  1.00  0.00    -0.229 A  
HETATM   40  C   UNL     1     -12.032  17.445  68.530  1.00  0.00     2.075 A  
HETATM   41  F   UNL     1     -13.088  15.574  66.433  1.00  0.00     1.376 F  
HETATM   42  F   UNL     1     -13.682  14.931  68.426  1.00  0.00     2.992 F  
HETATM   43  F   UNL     1     -12.051  13.927  67.398  1.00  0.00    -0.385 F  
HETATM   44  F   UNL     1     -12.880  20.015  69.110  1.00  0.00     5.773 F  
HETATM   45  C   UNL     1     -11.138  18.358  69.108  1.00  0.00     1.618 A  
HETATM   46  C   UNL     1      -9.821  17.940  69.391  1.00  0.00     0.081 A  
HETATM   47  C   UNL     1     -11.583  19.765  69.446  1.00  0.00     4.409 C  
ENDBRANCH  31  34
ENDBRANCH   3  31
TORSDOF 7
ENDMDL
