MODEL        1
REMARK 921   NORMALIZED FREE ENERGY PREDICTED BY IDOCK:   -7.34 KCAL/MOL
REMARK 922        TOTAL FREE ENERGY PREDICTED BY IDOCK:   -9.91 KCAL/MOL
REMARK 923 INTER-LIGAND FREE ENERGY PREDICTED BY IDOCK:   -9.06 KCAL/MOL
REMARK 924 INTRA-LIGAND FREE ENERGY PREDICTED BY IDOCK:   -0.85 KCAL/MOL
REMARK 927      BINDING AFFINITY PREDICTED BY RF-SCORE:    0.00 PKD
ROOT
HETATM    1  O   UNL     1     -10.617  17.903  67.039  1.00  0.00    -0.344 OA 
HETATM    2  P   UNL     1     -10.222  16.761  65.999  1.00  0.00    -0.254 P  
HETATM    3  O   UNL     1     -11.043  15.432  66.378  1.00  0.00    -0.313 OA 
HETATM    4  O   UNL     1      -8.743  16.614  65.871  1.00  0.00    -0.483 OA 
HETATM    5  O   UNL     1     -10.949  17.309  64.688  1.00  0.00    -1.013 OA 
ENDROOT
BRANCH   3   6
HETATM    6  C   UNL     1     -10.437  14.306  65.760  1.00  0.00    -0.316 C  
BRANCH   6   7
HETATM    7  N   UNL     1     -10.592  13.055  66.454  1.00  0.00    -0.281 N  
HETATM    8  C   UNL     1     -11.715  12.325  66.203  1.00  0.00    -0.376 C  
HETATM    9  N   UNL     1     -11.975  11.495  67.252  1.00  0.00    -0.554 NA 
HETATM   10  O   UNL     1     -12.460  12.424  65.240  1.00  0.00    -0.611 OA 
HETATM   11  C   UNL     1     -11.084  11.690  68.371  1.00  0.00    -0.234 C  
HETATM   12  O   UNL     1      -9.284  13.422  68.323  1.00  0.00    -0.204 OA 
HETATM   13  C   UNL     1     -10.179  12.815  67.741  1.00  0.00    -0.223 C  
BRANCH  11  14
HETATM   14  C   UNL     1     -11.802  12.280  69.603  1.00  0.00    -0.393 A  
HETATM   15  C   UNL     1     -11.950  13.665  69.815  1.00  0.00    -0.404 A  
HETATM   16  C   UNL     1     -12.310  11.410  70.589  1.00  0.00    -0.466 A  
HETATM   17  C   UNL     1     -12.938  11.900  71.737  1.00  0.00    -0.455 A  
HETATM   18  C   UNL     1     -12.577  14.154  70.965  1.00  0.00    -0.439 A  
HETATM   19  C   UNL     1     -13.068  13.273  71.925  1.00  0.00    -0.483 A  
ENDBRANCH  11  14
BRANCH  11  20
HETATM   20  C   UNL     1     -10.399  10.337  68.617  1.00  0.00    -0.203 A  
HETATM   21  C   UNL     1      -8.674   8.996  69.702  1.00  0.00    -0.143 A  
HETATM   22  C   UNL     1      -8.975   7.912  68.882  1.00  0.00    -0.141 A  
HETATM   23  C   UNL     1      -9.980   8.025  67.926  1.00  0.00    -0.223 A  
HETATM   24  C   UNL     1     -10.679   9.225  67.788  1.00  0.00    -0.270 A  
HETATM   25  C   UNL     1      -9.375  10.197  69.572  1.00  0.00    -0.230 A  
ENDBRANCH  11  20
ENDBRANCH   6   7
ENDBRANCH   3   6
TORSDOF 4
ENDMDL
MODEL        2
REMARK 921   NORMALIZED FREE ENERGY PREDICTED BY IDOCK:   -7.26 KCAL/MOL
REMARK 922        TOTAL FREE ENERGY PREDICTED BY IDOCK:   -9.81 KCAL/MOL
REMARK 923 INTER-LIGAND FREE ENERGY PREDICTED BY IDOCK:   -9.03 KCAL/MOL
REMARK 924 INTRA-LIGAND FREE ENERGY PREDICTED BY IDOCK:   -0.78 KCAL/MOL
REMARK 927      BINDING AFFINITY PREDICTED BY RF-SCORE:    0.00 PKD
ROOT
HETATM    1  O   UNL     1     -10.611  17.973  66.952  1.00  0.00    -0.348 OA 
HETATM    2  P   UNL     1     -10.263  16.775  65.960  1.00  0.00    -0.254 P  
HETATM    3  O   UNL     1     -10.966  15.441  66.517  1.00  0.00    -0.315 OA 
HETATM    4  O   UNL     1      -8.799  16.689  65.684  1.00  0.00    -0.448 OA 
HETATM    5  O   UNL     1     -11.151  17.186  64.698  1.00  0.00    -1.036 OA 
ENDROOT
BRANCH   3   6
HETATM    6  C   UNL     1     -10.366  14.302  65.919  1.00  0.00    -0.314 C  
BRANCH   6   7
HETATM    7  N   UNL     1     -10.573  13.055  66.608  1.00  0.00    -0.265 N  
HETATM    8  C   UNL     1     -11.707  12.353  66.323  1.00  0.00    -0.395 C  
HETATM    9  N   UNL     1     -12.018  11.530  67.363  1.00  0.00    -0.597 NA 
HETATM   10  O   UNL     1     -12.421  12.471  65.339  1.00  0.00    -0.630 OA 
HETATM   11  C   UNL     1     -11.155  11.702  68.508  1.00  0.00    -0.235 C  
HETATM   12  O   UNL     1      -9.310  13.388  68.514  1.00  0.00    -0.181 OA 
HETATM   13  C   UNL     1     -10.203  12.804  67.906  1.00  0.00    -0.229 C  
BRANCH  11  14
HETATM   14  C   UNL     1     -11.893  12.310  69.719  1.00  0.00    -0.388 A  
HETATM   15  C   UNL     1     -12.406  11.531  70.775  1.00  0.00    -0.472 A  
HETATM   16  C   UNL     1     -12.105  13.703  69.771  1.00  0.00    -0.396 A  
HETATM   17  C   UNL     1     -12.796  14.294  70.831  1.00  0.00    -0.416 A  
HETATM   18  C   UNL     1     -13.100  12.125  71.834  1.00  0.00    -0.475 A  
HETATM   19  C   UNL     1     -13.297  13.502  71.861  1.00  0.00    -0.529 A  
ENDBRANCH  11  14
BRANCH  11  20
HETATM   20  C   UNL     1     -10.511  10.332  68.772  1.00  0.00    -0.222 A  
HETATM   21  C   UNL     1     -10.376   7.933  68.354  1.00  0.00    -0.235 A  
HETATM   22  C   UNL     1      -9.512   7.775  69.433  1.00  0.00    -0.156 A  
HETATM   23  C   UNL     1      -9.140   8.881  70.191  1.00  0.00    -0.189 A  
HETATM   24  C   UNL     1      -9.640  10.144  69.870  1.00  0.00    -0.172 A  
HETATM   25  C   UNL     1     -10.874   9.196  68.026  1.00  0.00    -0.135 A  
ENDBRANCH  11  20
ENDBRANCH   6   7
ENDBRANCH   3   6
TORSDOF 4
ENDMDL
MODEL        3
REMARK 921   NORMALIZED FREE ENERGY PREDICTED BY IDOCK:   -7.12 KCAL/MOL
REMARK 922        TOTAL FREE ENERGY PREDICTED BY IDOCK:   -9.64 KCAL/MOL
REMARK 923 INTER-LIGAND FREE ENERGY PREDICTED BY IDOCK:   -8.64 KCAL/MOL
REMARK 924 INTRA-LIGAND FREE ENERGY PREDICTED BY IDOCK:   -1.00 KCAL/MOL
REMARK 927      BINDING AFFINITY PREDICTED BY RF-SCORE:    0.00 PKD
ROOT
HETATM    1  O   UNL     1      -9.627  20.490  67.797  1.00  0.00    -0.355 OA 
HETATM    2  P   UNL     1      -9.317  19.581  66.526  1.00  0.00    -0.399 P  
HETATM    3  O   UNL     1      -9.440  18.040  66.969  1.00  0.00    -0.260 OA 
HETATM    4  O   UNL     1      -8.046  19.979  65.853  1.00  0.00    -0.333 OA 
HETATM    5  O   UNL     1     -10.633  19.844  65.662  1.00  0.00    -0.495 OA 
ENDROOT
BRANCH   3   6
HETATM    6  C   UNL     1      -8.790  17.216  66.013  1.00  0.00    -0.107 C  
BRANCH   6   7
HETATM    7  N   UNL     1      -9.372  15.916  65.811  1.00  0.00    -0.305 N  
HETATM    8  C   UNL     1     -10.603  15.856  65.225  1.00  0.00    -0.419 C  
HETATM    9  N   UNL     1     -11.223  14.692  65.566  1.00  0.00    -0.333 NA 
HETATM   10  O   UNL     1     -11.147  16.724  64.562  1.00  0.00    -0.989 OA 
HETATM   11  C   UNL     1     -10.483  13.907  66.525  1.00  0.00    -0.282 C  
HETATM   12  O   UNL     1      -8.296  14.690  67.446  1.00  0.00    -0.178 OA 
HETATM   13  C   UNL     1      -9.228  14.850  66.663  1.00  0.00    -0.276 C  
BRANCH  11  14
HETATM   14  C   UNL     1     -11.185  13.834  67.897  1.00  0.00    -0.299 A  
HETATM   15  C   UNL     1     -11.542  14.977  68.639  1.00  0.00    -0.347 A  
HETATM   16  C   UNL     1     -11.459  12.573  68.466  1.00  0.00    -0.346 A  
HETATM   17  C   UNL     1     -12.063  12.457  69.721  1.00  0.00    -0.292 A  
HETATM   18  C   UNL     1     -12.144  14.859  69.896  1.00  0.00    -0.379 A  
HETATM   19  C   UNL     1     -12.402  13.602  70.436  1.00  0.00    -0.415 A  
ENDBRANCH  11  14
BRANCH  11  20
HETATM   20  C   UNL     1     -10.228  12.545  65.862  1.00  0.00    -0.280 A  
HETATM   21  C   UNL     1      -8.893  10.519  65.616  1.00  0.00    -0.197 A  
HETATM   22  C   UNL     1      -9.609  10.163  64.478  1.00  0.00    -0.376 A  
HETATM   23  C   UNL     1     -10.633  10.985  64.018  1.00  0.00    -0.395 A  
HETATM   24  C   UNL     1     -10.935  12.167  64.697  1.00  0.00    -0.359 A  
HETATM   25  C   UNL     1      -9.196  11.697  66.302  1.00  0.00    -0.225 A  
ENDBRANCH  11  20
ENDBRANCH   6   7
ENDBRANCH   3   6
TORSDOF 4
ENDMDL
MODEL        4
REMARK 921   NORMALIZED FREE ENERGY PREDICTED BY IDOCK:   -7.07 KCAL/MOL
REMARK 922        TOTAL FREE ENERGY PREDICTED BY IDOCK:   -9.57 KCAL/MOL
REMARK 923 INTER-LIGAND FREE ENERGY PREDICTED BY IDOCK:   -8.69 KCAL/MOL
REMARK 924 INTRA-LIGAND FREE ENERGY PREDICTED BY IDOCK:   -0.88 KCAL/MOL
REMARK 927      BINDING AFFINITY PREDICTED BY RF-SCORE:    0.00 PKD
ROOT
HETATM    1  O   UNL     1     -12.488  11.528  63.156  1.00  0.00    -0.326 OA 
HETATM    2  P   UNL     1     -12.047  12.884  63.866  1.00  0.00    -0.497 P  
HETATM    3  O   UNL     1     -12.517  12.822  65.403  1.00  0.00    -0.539 OA 
HETATM    4  O   UNL     1     -12.478  14.084  63.089  1.00  0.00    -0.733 OA 
HETATM    5  O   UNL     1     -10.467  12.670  63.931  1.00  0.00    -0.410 OA 
ENDROOT
BRANCH   3   6
HETATM    6  C   UNL     1     -12.517  14.130  65.954  1.00  0.00    -0.453 C  
BRANCH   6   7
HETATM    7  N   UNL     1     -11.357  14.480  66.731  1.00  0.00    -0.342 N  
HETATM    8  C   UNL     1     -11.506  14.581  68.082  1.00  0.00    -0.312 C  
HETATM    9  N   UNL     1     -10.538  15.389  68.598  1.00  0.00    -0.233 NA 
HETATM   10  O   UNL     1     -12.404  14.111  68.763  1.00  0.00    -0.272 OA 
HETATM   11  C   UNL     1      -9.706  16.002  67.589  1.00  0.00    -0.224 C  
HETATM   12  O   UNL     1     -10.089  15.594  65.154  1.00  0.00    -0.375 OA 
HETATM   13  C   UNL     1     -10.369  15.341  66.322  1.00  0.00    -0.294 C  
BRANCH  11  14
HETATM   14  C   UNL     1      -9.912  17.529  67.501  1.00  0.00    -0.315 A  
HETATM   15  C   UNL     1     -10.173  18.200  66.290  1.00  0.00    -0.401 A  
HETATM   16  C   UNL     1      -9.803  18.309  68.670  1.00  0.00    -0.400 A  
HETATM   17  C   UNL     1      -9.949  19.698  68.633  1.00  0.00    -0.553 A  
HETATM   18  C   UNL     1     -10.316  19.591  66.255  1.00  0.00    -0.601 A  
HETATM   19  C   UNL     1     -10.202  20.338  67.423  1.00  0.00    -0.494 A  
ENDBRANCH  11  14
BRANCH  11  20
HETATM   20  C   UNL     1      -8.265  15.567  67.896  1.00  0.00    -0.149 A  
HETATM   21  C   UNL     1      -6.637  14.490  69.358  1.00  0.00    -0.138 A  
HETATM   22  C   UNL     1      -5.590  14.987  68.589  1.00  0.00    -0.092 A  
HETATM   23  C   UNL     1      -5.862  15.776  67.475  1.00  0.00    -0.125 A  
HETATM   24  C   UNL     1      -7.183  16.070  67.136  1.00  0.00    -0.257 A  
HETATM   25  C   UNL     1      -7.962  14.776  69.019  1.00  0.00    -0.152 A  
ENDBRANCH  11  20
ENDBRANCH   6   7
ENDBRANCH   3   6
TORSDOF 4
ENDMDL
MODEL        5
REMARK 921   NORMALIZED FREE ENERGY PREDICTED BY IDOCK:   -7.00 KCAL/MOL
REMARK 922        TOTAL FREE ENERGY PREDICTED BY IDOCK:   -9.49 KCAL/MOL
REMARK 923 INTER-LIGAND FREE ENERGY PREDICTED BY IDOCK:   -8.93 KCAL/MOL
REMARK 924 INTRA-LIGAND FREE ENERGY PREDICTED BY IDOCK:   -0.56 KCAL/MOL
REMARK 927      BINDING AFFINITY PREDICTED BY RF-SCORE:    0.00 PKD
ROOT
HETATM    1  O   UNL     1     -12.652  13.603  63.228  1.00  0.00    -0.816 OA 
HETATM    2  P   UNL     1     -11.602  12.862  64.170  1.00  0.00    -0.467 P  
HETATM    3  O   UNL     1     -12.362  12.410  65.513  1.00  0.00    -0.621 OA 
HETATM    4  O   UNL     1     -10.355  13.662  64.350  1.00  0.00    -0.428 OA 
HETATM    5  O   UNL     1     -11.403  11.502  63.358  1.00  0.00    -0.374 OA 
ENDROOT
BRANCH   3   6
HETATM    6  C   UNL     1     -11.410  12.125  66.526  1.00  0.00    -0.350 C  
BRANCH   6   7
HETATM    7  N   UNL     1     -10.812  13.271  67.161  1.00  0.00    -0.256 N  
HETATM    8  C   UNL     1      -9.680  13.070  67.894  1.00  0.00    -0.218 C  
HETATM    9  N   UNL     1      -9.540  14.065  68.814  1.00  0.00    -0.152 NA 
HETATM   10  O   UNL     1      -8.921  12.116  67.835  1.00  0.00    -0.169 OA 
HETATM   11  C   UNL     1     -10.660  14.977  68.847  1.00  0.00    -0.242 C  
HETATM   12  O   UNL     1     -12.637  14.674  67.350  1.00  0.00     0.115 OA 
HETATM   13  C   UNL     1     -11.509  14.328  67.689  1.00  0.00    -0.346 C  
BRANCH  11  14
HETATM   14  C   UNL     1     -11.469  14.873  70.157  1.00  0.00    -0.320 A  
HETATM   15  C   UNL     1     -12.274  13.761  70.475  1.00  0.00    -0.440 A  
HETATM   16  C   UNL     1     -11.440  15.944  71.074  1.00  0.00    -0.461 A  
HETATM   17  C   UNL     1     -12.182  15.908  72.256  1.00  0.00    -0.585 A  
HETATM   18  C   UNL     1     -13.019  13.729  71.659  1.00  0.00    -0.448 A  
HETATM   19  C   UNL     1     -12.975  14.800  72.546  1.00  0.00    -0.481 A  
ENDBRANCH  11  14
BRANCH  11  20
HETATM   20  C   UNL     1     -10.087  16.373  68.558  1.00  0.00    -0.248 A  
HETATM   21  C   UNL     1     -10.312  18.603  67.596  1.00  0.00    -0.455 A  
HETATM   22  C   UNL     1      -8.957  18.847  67.799  1.00  0.00    -0.320 A  
HETATM   23  C   UNL     1      -8.155  17.867  68.377  1.00  0.00    -0.302 A  
HETATM   24  C   UNL     1      -8.711  16.641  68.745  1.00  0.00    -0.260 A  
HETATM   25  C   UNL     1     -10.873  17.379  67.968  1.00  0.00    -0.281 A  
ENDBRANCH  11  20
ENDBRANCH   6   7
ENDBRANCH   3   6
TORSDOF 4
ENDMDL
MODEL        6
REMARK 921   NORMALIZED FREE ENERGY PREDICTED BY IDOCK:   -6.98 KCAL/MOL
REMARK 922        TOTAL FREE ENERGY PREDICTED BY IDOCK:   -9.47 KCAL/MOL
REMARK 923 INTER-LIGAND FREE ENERGY PREDICTED BY IDOCK:   -8.41 KCAL/MOL
REMARK 924 INTRA-LIGAND FREE ENERGY PREDICTED BY IDOCK:   -1.05 KCAL/MOL
REMARK 927      BINDING AFFINITY PREDICTED BY RF-SCORE:    0.00 PKD
ROOT
HETATM    1  O   UNL     1      -7.460  19.510  69.421  1.00  0.00    -0.318 OA 
HETATM    2  P   UNL     1      -7.809  19.176  67.903  1.00  0.00    -0.304 P  
HETATM    3  O   UNL     1      -8.213  17.622  67.810  1.00  0.00    -0.218 OA 
HETATM    4  O   UNL     1      -6.740  19.641  66.971  1.00  0.00    -0.194 OA 
HETATM    5  O   UNL     1      -9.198  19.950  67.754  1.00  0.00    -0.324 OA 
ENDROOT
BRANCH   3   6
HETATM    6  C   UNL     1      -8.133  17.190  66.460  1.00  0.00    -0.283 C  
BRANCH   6   7
HETATM    7  N   UNL     1      -9.081  16.179  66.072  1.00  0.00    -0.341 N  
HETATM    8  C   UNL     1     -10.326  16.589  65.693  1.00  0.00    -0.322 C  
HETATM    9  N   UNL     1     -11.221  15.576  65.863  1.00  0.00    -0.195 NA 
HETATM   10  O   UNL     1     -10.656  17.707  65.332  1.00  0.00    -0.657 OA 
HETATM   11  C   UNL     1     -10.652  14.408  66.494  1.00  0.00    -0.296 C  
HETATM   12  O   UNL     1      -8.257  14.342  67.203  1.00  0.00    -0.199 OA 
HETATM   13  C   UNL     1      -9.171  14.930  66.634  1.00  0.00    -0.276 C  
BRANCH  11  14
HETATM   14  C   UNL     1     -11.216  14.168  67.911  1.00  0.00    -0.299 A  
HETATM   15  C   UNL     1     -11.614  15.215  68.766  1.00  0.00    -0.369 A  
HETATM   16  C   UNL     1     -11.311  12.850  68.402  1.00  0.00    -0.329 A  
HETATM   17  C   UNL     1     -11.784  12.587  69.689  1.00  0.00    -0.372 A  
HETATM   18  C   UNL     1     -12.085  14.949  70.056  1.00  0.00    -0.387 A  
HETATM   19  C   UNL     1     -12.168  13.639  70.517  1.00  0.00    -0.438 A  
ENDBRANCH  11  14
BRANCH  11  20
HETATM   20  C   UNL     1     -10.863  13.243  65.515  1.00  0.00    -0.297 A  
HETATM   21  C   UNL     1     -10.066  11.208  64.433  1.00  0.00    -0.377 A  
HETATM   22  C   UNL     1     -11.132  11.244  63.539  1.00  0.00    -0.261 A  
HETATM   23  C   UNL     1     -12.067  12.271  63.617  1.00  0.00    -0.648 A  
HETATM   24  C   UNL     1     -11.931  13.264  64.589  1.00  0.00    -0.440 A  
HETATM   25  C   UNL     1      -9.929  12.196  65.410  1.00  0.00    -0.269 A  
ENDBRANCH  11  20
ENDBRANCH   6   7
ENDBRANCH   3   6
TORSDOF 4
ENDMDL
MODEL        7
REMARK 921   NORMALIZED FREE ENERGY PREDICTED BY IDOCK:   -6.96 KCAL/MOL
REMARK 922        TOTAL FREE ENERGY PREDICTED BY IDOCK:   -9.44 KCAL/MOL
REMARK 923 INTER-LIGAND FREE ENERGY PREDICTED BY IDOCK:   -8.37 KCAL/MOL
REMARK 924 INTRA-LIGAND FREE ENERGY PREDICTED BY IDOCK:   -1.07 KCAL/MOL
REMARK 927      BINDING AFFINITY PREDICTED BY RF-SCORE:    0.00 PKD
ROOT
HETATM    1  O   UNL     1     -10.161  19.904  66.061  1.00  0.00    -0.468 OA 
HETATM    2  P   UNL     1      -9.477  19.454  67.428  1.00  0.00    -0.346 P  
HETATM    3  O   UNL     1      -9.116  17.891  67.318  1.00  0.00    -0.245 OA 
HETATM    4  O   UNL     1     -10.281  19.868  68.615  1.00  0.00    -0.447 OA 
HETATM    5  O   UNL     1      -8.067  20.190  67.295  1.00  0.00    -0.306 OA 
ENDROOT
BRANCH   3   6
HETATM    6  C   UNL     1      -8.891  17.362  68.616  1.00  0.00    -0.258 C  
BRANCH   6   7
HETATM    7  N   UNL     1      -9.463  16.065  68.868  1.00  0.00    -0.222 N  
HETATM    8  C   UNL     1      -8.627  14.988  68.844  1.00  0.00    -0.189 C  
HETATM    9  N   UNL     1      -9.336  13.855  68.578  1.00  0.00    -0.193 NA 
HETATM   10  O   UNL     1      -7.410  14.995  68.950  1.00  0.00    -0.119 OA 
HETATM   11  C   UNL     1     -10.726  14.106  68.283  1.00  0.00    -0.249 C  
HETATM   12  O   UNL     1     -11.660  16.423  68.253  1.00  0.00    -0.255 OA 
HETATM   13  C   UNL     1     -10.717  15.670  68.474  1.00  0.00    -0.264 C  
BRANCH  11  14
HETATM   14  C   UNL     1     -11.083  13.801  66.812  1.00  0.00    -0.316 A  
HETATM   15  C   UNL     1     -10.113  13.670  65.799  1.00  0.00    -0.311 A  
HETATM   16  C   UNL     1     -12.438  13.681  66.441  1.00  0.00    -0.377 A  
HETATM   17  C   UNL     1     -12.809  13.438  65.116  1.00  0.00    -0.380 A  
HETATM   18  C   UNL     1     -10.487  13.429  64.473  1.00  0.00    -0.431 A  
HETATM   19  C   UNL     1     -11.832  13.316  64.132  1.00  0.00    -0.497 A  
ENDBRANCH  11  14
BRANCH  11  20
HETATM   20  C   UNL     1     -11.537  13.309  69.316  1.00  0.00    -0.370 A  
HETATM   21  C   UNL     1     -12.891  13.219  71.343  1.00  0.00    -0.411 A  
HETATM   22  C   UNL     1     -12.813  11.830  71.356  1.00  0.00    -0.440 A  
HETATM   23  C   UNL     1     -12.101  11.167  70.361  1.00  0.00    -0.475 A  
HETATM   24  C   UNL     1     -11.463  11.897  69.357  1.00  0.00    -0.366 A  
HETATM   25  C   UNL     1     -12.259  13.954  70.336  1.00  0.00    -0.438 A  
ENDBRANCH  11  20
ENDBRANCH   6   7
ENDBRANCH   3   6
TORSDOF 4
ENDMDL
MODEL        8
REMARK 921   NORMALIZED FREE ENERGY PREDICTED BY IDOCK:   -6.94 KCAL/MOL
REMARK 922        TOTAL FREE ENERGY PREDICTED BY IDOCK:   -9.41 KCAL/MOL
REMARK 923 INTER-LIGAND FREE ENERGY PREDICTED BY IDOCK:   -8.62 KCAL/MOL
REMARK 924 INTRA-LIGAND FREE ENERGY PREDICTED BY IDOCK:   -0.79 KCAL/MOL
REMARK 927      BINDING AFFINITY PREDICTED BY RF-SCORE:    0.00 PKD
ROOT
HETATM    1  O   UNL     1      -9.719  18.634  68.136  1.00  0.00    -0.305 OA 
HETATM    2  P   UNL     1      -9.810  18.317  66.577  1.00  0.00    -0.361 P  
HETATM    3  O   UNL     1     -10.901  17.155  66.364  1.00  0.00    -0.126 OA 
HETATM    4  O   UNL     1      -8.464  18.083  65.978  1.00  0.00    -0.494 OA 
HETATM    5  O   UNL     1     -10.543  19.639  66.062  1.00  0.00    -0.485 OA 
ENDROOT
BRANCH   3   6
HETATM    6  C   UNL     1     -10.725  16.567  65.083  1.00  0.00    -0.244 C  
BRANCH   6   7
HETATM    7  N   UNL     1     -10.701  15.129  65.056  1.00  0.00    -0.416 N  
HETATM    8  C   UNL     1     -11.821  14.484  64.621  1.00  0.00    -0.453 C  
HETATM    9  N   UNL     1     -11.853  13.218  65.124  1.00  0.00    -0.331 NA 
HETATM   10  O   UNL     1     -12.731  14.952  63.955  1.00  0.00    -0.792 OA 
HETATM   11  C   UNL     1     -10.783  12.943  66.053  1.00  0.00    -0.277 C  
HETATM   12  O   UNL     1      -9.092  14.683  66.653  1.00  0.00    -0.252 OA 
HETATM   13  C   UNL     1     -10.052  14.337  65.970  1.00  0.00    -0.318 C  
BRANCH  11  14
HETATM   14  C   UNL     1     -11.290  12.748  67.498  1.00  0.00    -0.361 A  
HETATM   15  C   UNL     1     -11.722  13.815  68.310  1.00  0.00    -0.394 A  
HETATM   16  C   UNL     1     -11.294  11.455  68.060  1.00  0.00    -0.372 A  
HETATM   17  C   UNL     1     -11.712  11.236  69.374  1.00  0.00    -0.409 A  
HETATM   18  C   UNL     1     -12.139  13.593  69.626  1.00  0.00    -0.378 A  
HETATM   19  C   UNL     1     -12.132  12.307  70.158  1.00  0.00    -0.364 A  
ENDBRANCH  11  14
BRANCH  11  20
HETATM   20  C   UNL     1     -10.010  11.745  65.479  1.00  0.00    -0.273 A  
HETATM   21  C   UNL     1      -8.080  10.255  65.502  1.00  0.00    -0.156 A  
HETATM   22  C   UNL     1      -8.461   9.712  64.279  1.00  0.00    -0.188 A  
HETATM   23  C   UNL     1      -9.610  10.175  63.643  1.00  0.00    -0.268 A  
HETATM   24  C   UNL     1     -10.372  11.185  64.232  1.00  0.00    -0.413 A  
HETATM   25  C   UNL     1      -8.843  11.262  66.097  1.00  0.00    -0.194 A  
ENDBRANCH  11  20
ENDBRANCH   6   7
ENDBRANCH   3   6
TORSDOF 4
ENDMDL
MODEL        9
REMARK 921   NORMALIZED FREE ENERGY PREDICTED BY IDOCK:   -6.92 KCAL/MOL
REMARK 922        TOTAL FREE ENERGY PREDICTED BY IDOCK:   -9.38 KCAL/MOL
REMARK 923 INTER-LIGAND FREE ENERGY PREDICTED BY IDOCK:   -8.21 KCAL/MOL
REMARK 924 INTRA-LIGAND FREE ENERGY PREDICTED BY IDOCK:   -1.17 KCAL/MOL
REMARK 927      BINDING AFFINITY PREDICTED BY RF-SCORE:    0.00 PKD
ROOT
HETATM    1  O   UNL     1     -11.973  16.455  72.328  1.00  0.00    -0.524 OA 
HETATM    2  P   UNL     1     -12.799  15.151  71.931  1.00  0.00    -0.426 P  
HETATM    3  O   UNL     1     -11.788  14.105  71.245  1.00  0.00    -0.273 OA 
HETATM    4  O   UNL     1     -14.031  15.486  71.159  1.00  0.00    -0.547 OA 
HETATM    5  O   UNL     1     -13.072  14.537  73.379  1.00  0.00    -0.587 OA 
ENDROOT
BRANCH   3   6
HETATM    6  C   UNL     1     -12.527  13.132  70.524  1.00  0.00    -0.248 C  
BRANCH   6   7
HETATM    7  N   UNL     1     -12.023  12.810  69.214  1.00  0.00    -0.276 N  
HETATM    8  C   UNL     1     -11.163  11.757  69.107  1.00  0.00    -0.264 C  
HETATM    9  N   UNL     1     -10.398  11.894  67.988  1.00  0.00    -0.190 NA 
HETATM   10  O   UNL     1     -11.003  10.851  69.908  1.00  0.00    -0.257 OA 
HETATM   11  C   UNL     1     -10.613  13.144  67.296  1.00  0.00    -0.246 C  
HETATM   12  O   UNL     1     -12.226  14.850  68.150  1.00  0.00    -0.173 OA 
HETATM   13  C   UNL     1     -11.732  13.730  68.238  1.00  0.00    -0.359 C  
BRANCH  11  14
HETATM   14  C   UNL     1      -9.385  14.076  67.366  1.00  0.00    -0.220 A  
HETATM   15  C   UNL     1      -9.234  15.208  66.541  1.00  0.00    -0.318 A  
HETATM   16  C   UNL     1      -8.341  13.778  68.265  1.00  0.00    -0.161 A  
HETATM   17  C   UNL     1      -7.196  14.575  68.340  1.00  0.00    -0.116 A  
HETATM   18  C   UNL     1      -8.085  16.003  66.615  1.00  0.00    -0.311 A  
HETATM   19  C   UNL     1      -7.068  15.686  67.511  1.00  0.00    -0.214 A  
ENDBRANCH  11  14
BRANCH  11  20
HETATM   20  C   UNL     1     -11.059  12.777  65.872  1.00  0.00    -0.318 A  
HETATM   21  C   UNL     1     -12.805  12.554  64.185  1.00  0.00    -0.333 A  
HETATM   22  C   UNL     1     -11.932  11.870  63.344  1.00  0.00    -0.528 A  
HETATM   23  C   UNL     1     -10.623  11.630  63.753  1.00  0.00    -0.473 A  
HETATM   24  C   UNL     1     -10.193  12.071  65.005  1.00  0.00    -0.308 A  
HETATM   25  C   UNL     1     -12.377  13.003  65.436  1.00  0.00    -0.538 A  
ENDBRANCH  11  20
ENDBRANCH   6   7
ENDBRANCH   3   6
TORSDOF 4
ENDMDL
MODEL       10
REMARK 921   NORMALIZED FREE ENERGY PREDICTED BY IDOCK:   -6.89 KCAL/MOL
REMARK 922        TOTAL FREE ENERGY PREDICTED BY IDOCK:   -9.35 KCAL/MOL
REMARK 923 INTER-LIGAND FREE ENERGY PREDICTED BY IDOCK:   -8.40 KCAL/MOL
REMARK 924 INTRA-LIGAND FREE ENERGY PREDICTED BY IDOCK:   -0.96 KCAL/MOL
REMARK 927      BINDING AFFINITY PREDICTED BY RF-SCORE:    0.00 PKD
ROOT
HETATM    1  O   UNL     1      -8.197  18.450  65.947  1.00  0.00    -0.505 OA 
HETATM    2  P   UNL     1      -9.428  17.749  66.678  1.00  0.00    -0.293 P  
HETATM    3  O   UNL     1      -9.559  16.249  66.113  1.00  0.00    -0.289 OA 
HETATM    4  O   UNL     1     -10.660  18.590  66.621  1.00  0.00    -0.390 OA 
HETATM    5  O   UNL     1      -8.820  17.564  68.142  1.00  0.00    -0.247 OA 
ENDROOT
BRANCH   3   6
HETATM    6  C   UNL     1     -10.848  15.738  66.416  1.00  0.00    -0.226 C  
BRANCH   6   7
HETATM    7  N   UNL     1     -10.901  14.341  66.756  1.00  0.00    -0.295 N  
HETATM    8  C   UNL     1     -11.980  13.625  66.329  1.00  0.00    -0.423 C  
HETATM    9  N   UNL     1     -12.156  12.532  67.123  1.00  0.00    -0.495 NA 
HETATM   10  O   UNL     1     -12.755  13.920  65.433  1.00  0.00    -0.570 OA 
HETATM   11  C   UNL     1     -11.250  12.488  68.247  1.00  0.00    -0.266 C  
HETATM   12  O   UNL     1      -9.570  14.295  68.644  1.00  0.00    -0.211 OA 
HETATM   13  C   UNL     1     -10.438  13.800  67.929  1.00  0.00    -0.246 C  
BRANCH  11  14
HETATM   14  C   UNL     1     -11.973  12.680  69.597  1.00  0.00    -0.352 A  
HETATM   15  C   UNL     1     -12.254  11.616  70.476  1.00  0.00    -0.451 A  
HETATM   16  C   UNL     1     -12.410  13.968  69.968  1.00  0.00    -0.397 A  
HETATM   17  C   UNL     1     -13.097  14.185  71.165  1.00  0.00    -0.398 A  
HETATM   18  C   UNL     1     -12.944  11.834  71.672  1.00  0.00    -0.467 A  
HETATM   19  C   UNL     1     -13.366  13.115  72.015  1.00  0.00    -0.587 A  
ENDBRANCH  11  14
BRANCH  11  20
HETATM   20  C   UNL     1     -10.470  11.170  68.120  1.00  0.00    -0.215 A  
HETATM   21  C   UNL     1      -8.423   9.877  68.414  1.00  0.00    -0.111 A  
HETATM   22  C   UNL     1      -8.953   8.833  67.661  1.00  0.00    -0.141 A  
HETATM   23  C   UNL     1     -10.235   8.942  67.131  1.00  0.00    -0.339 A  
HETATM   24  C   UNL     1     -10.983  10.100  67.350  1.00  0.00    -0.295 A  
HETATM   25  C   UNL     1      -9.171  11.035  68.641  1.00  0.00    -0.186 A  
ENDBRANCH  11  20
ENDBRANCH   6   7
ENDBRANCH   3   6
TORSDOF 4
ENDMDL
MODEL       11
REMARK 921   NORMALIZED FREE ENERGY PREDICTED BY IDOCK:   -6.89 KCAL/MOL
REMARK 922        TOTAL FREE ENERGY PREDICTED BY IDOCK:   -9.35 KCAL/MOL
REMARK 923 INTER-LIGAND FREE ENERGY PREDICTED BY IDOCK:   -8.42 KCAL/MOL
REMARK 924 INTRA-LIGAND FREE ENERGY PREDICTED BY IDOCK:   -0.93 KCAL/MOL
REMARK 927      BINDING AFFINITY PREDICTED BY RF-SCORE:    0.00 PKD
ROOT
HETATM    1  O   UNL     1     -11.024  19.042  65.116  1.00  0.00    -0.471 OA 
HETATM    2  P   UNL     1      -9.944  18.719  66.243  1.00  0.00    -0.312 P  
HETATM    3  O   UNL     1      -9.320  17.268  65.939  1.00  0.00    -0.507 OA 
HETATM    4  O   UNL     1     -10.492  18.931  67.615  1.00  0.00    -0.402 OA 
HETATM    5  O   UNL     1      -8.788  19.737  65.827  1.00  0.00    -0.375 OA 
ENDROOT
BRANCH   3   6
HETATM    6  C   UNL     1      -8.678  16.773  67.104  1.00  0.00    -0.200 C  
BRANCH   6   7
HETATM    7  N   UNL     1      -9.070  15.452  67.519  1.00  0.00    -0.192 N  
HETATM    8  C   UNL     1      -8.165  14.444  67.366  1.00  0.00    -0.199 C  
HETATM    9  N   UNL     1      -8.810  13.246  67.296  1.00  0.00    -0.207 NA 
HETATM   10  O   UNL     1      -6.957  14.552  67.220  1.00  0.00    -0.214 OA 
HETATM   11  C   UNL     1     -10.249  13.370  67.282  1.00  0.00    -0.241 C  
HETATM   12  O   UNL     1     -11.370  15.602  67.354  1.00  0.00    -0.281 OA 
HETATM   13  C   UNL     1     -10.338  14.939  67.407  1.00  0.00    -0.243 C  
BRANCH  11  14
HETATM   14  C   UNL     1     -10.865  12.957  65.930  1.00  0.00    -0.294 A  
HETATM   15  C   UNL     1     -10.089  12.592  64.812  1.00  0.00    -0.241 A  
HETATM   16  C   UNL     1     -12.267  12.972  65.776  1.00  0.00    -0.511 A  
HETATM   17  C   UNL     1     -12.868  12.637  64.560  1.00  0.00    -0.356 A  
HETATM   18  C   UNL     1     -10.693  12.260  63.595  1.00  0.00    -0.513 A  
HETATM   19  C   UNL     1     -12.079  12.284  63.469  1.00  0.00    -0.649 A  
ENDBRANCH  11  14
BRANCH  11  20
HETATM   20  C   UNL     1     -10.761  12.572  68.491  1.00  0.00    -0.263 A  
HETATM   21  C   UNL     1     -11.048  10.457  69.672  1.00  0.00    -0.328 A  
HETATM   22  C   UNL     1     -11.917  11.059  70.577  1.00  0.00    -0.474 A  
HETATM   23  C   UNL     1     -12.220  12.412  70.452  1.00  0.00    -0.370 A  
HETATM   24  C   UNL     1     -11.655  13.158  69.416  1.00  0.00    -0.360 A  
HETATM   25  C   UNL     1     -10.476  11.202  68.638  1.00  0.00    -0.220 A  
ENDBRANCH  11  20
ENDBRANCH   6   7
ENDBRANCH   3   6
TORSDOF 4
ENDMDL
MODEL       12
REMARK 921   NORMALIZED FREE ENERGY PREDICTED BY IDOCK:   -6.89 KCAL/MOL
REMARK 922        TOTAL FREE ENERGY PREDICTED BY IDOCK:   -9.35 KCAL/MOL
REMARK 923 INTER-LIGAND FREE ENERGY PREDICTED BY IDOCK:   -8.35 KCAL/MOL
REMARK 924 INTRA-LIGAND FREE ENERGY PREDICTED BY IDOCK:   -1.00 KCAL/MOL
REMARK 927      BINDING AFFINITY PREDICTED BY RF-SCORE:    0.00 PKD
ROOT
HETATM    1  O   UNL     1      -6.434  20.548  70.548  1.00  0.00    -0.438 OA 
HETATM    2  P   UNL     1      -6.520  19.601  69.270  1.00  0.00    -0.351 P  
HETATM    3  O   UNL     1      -8.055  19.166  69.069  1.00  0.00    -0.318 OA 
HETATM    4  O   UNL     1      -5.519  18.495  69.330  1.00  0.00    -0.194 OA 
HETATM    5  O   UNL     1      -6.260  20.666  68.110  1.00  0.00    -0.271 OA 
ENDROOT
BRANCH   3   6
HETATM    6  C   UNL     1      -8.120  18.029  68.222  1.00  0.00    -0.291 C  
BRANCH   6   7
HETATM    7  N   UNL     1      -8.908  16.930  68.714  1.00  0.00    -0.266 N  
HETATM    8  C   UNL     1      -8.267  15.751  68.961  1.00  0.00    -0.234 C  
HETATM    9  N   UNL     1      -9.155  14.719  68.906  1.00  0.00    -0.186 NA 
HETATM   10  O   UNL     1      -7.069  15.583  69.125  1.00  0.00    -0.138 OA 
HETATM   11  C   UNL     1     -10.478  15.123  68.494  1.00  0.00    -0.233 C  
HETATM   12  O   UNL     1     -11.003  17.499  67.927  1.00  0.00    -0.323 OA 
HETATM   13  C   UNL     1     -10.205  16.668  68.350  1.00  0.00    -0.284 C  
BRANCH  11  14
HETATM   14  C   UNL     1     -10.861  14.568  67.106  1.00  0.00    -0.296 A  
HETATM   15  C   UNL     1      -9.915  14.319  66.092  1.00  0.00    -0.330 A  
HETATM   16  C   UNL     1     -12.218  14.327  66.808  1.00  0.00    -0.384 A  
HETATM   17  C   UNL     1     -12.614  13.857  65.554  1.00  0.00    -0.560 A  
HETATM   18  C   UNL     1     -10.314  13.850  64.836  1.00  0.00    -0.430 A  
HETATM   19  C   UNL     1     -11.661  13.622  64.567  1.00  0.00    -0.415 A  
ENDBRANCH  11  14
BRANCH  11  20
HETATM   20  C   UNL     1     -11.427  14.713  69.631  1.00  0.00    -0.329 A  
HETATM   21  C   UNL     1     -12.635  12.998  70.874  1.00  0.00    -0.364 A  
HETATM   22  C   UNL     1     -13.363  13.973  71.550  1.00  0.00    -0.422 A  
HETATM   23  C   UNL     1     -13.137  15.319  71.277  1.00  0.00    -0.540 A  
HETATM   24  C   UNL     1     -12.186  15.686  70.323  1.00  0.00    -0.416 A  
HETATM   25  C   UNL     1     -11.679  13.360  69.923  1.00  0.00    -0.337 A  
ENDBRANCH  11  20
ENDBRANCH   6   7
ENDBRANCH   3   6
TORSDOF 4
ENDMDL
MODEL       13
REMARK 921   NORMALIZED FREE ENERGY PREDICTED BY IDOCK:   -6.88 KCAL/MOL
REMARK 922        TOTAL FREE ENERGY PREDICTED BY IDOCK:   -9.34 KCAL/MOL
REMARK 923 INTER-LIGAND FREE ENERGY PREDICTED BY IDOCK:   -8.24 KCAL/MOL
REMARK 924 INTRA-LIGAND FREE ENERGY PREDICTED BY IDOCK:   -1.11 KCAL/MOL
REMARK 927      BINDING AFFINITY PREDICTED BY RF-SCORE:    0.00 PKD
ROOT
HETATM    1  O   UNL     1      -6.394  19.059  67.437  1.00  0.00    -0.181 OA 
HETATM    2  P   UNL     1      -7.295  18.362  68.551  1.00  0.00    -0.293 P  
HETATM    3  O   UNL     1      -7.442  16.805  68.178  1.00  0.00    -0.162 OA 
HETATM    4  O   UNL     1      -8.565  19.111  68.788  1.00  0.00    -0.359 OA 
HETATM    5  O   UNL     1      -6.281  18.374  69.784  1.00  0.00    -0.247 OA 
ENDROOT
BRANCH   3   6
HETATM    6  C   UNL     1      -8.539  16.247  68.886  1.00  0.00    -0.260 C  
BRANCH   6   7
HETATM    7  N   UNL     1      -9.451  15.458  68.101  1.00  0.00    -0.201 N  
HETATM    8  C   UNL     1     -10.702  15.960  67.888  1.00  0.00    -0.312 C  
HETATM    9  N   UNL     1     -11.569  14.945  67.615  1.00  0.00    -0.346 NA 
HETATM   10  O   UNL     1     -11.060  17.122  68.000  1.00  0.00    -0.313 OA 
HETATM   11  C   UNL     1     -10.975  13.635  67.738  1.00  0.00    -0.259 C  
HETATM   12  O   UNL     1      -8.589  13.339  68.419  1.00  0.00    -0.173 OA 
HETATM   13  C   UNL     1      -9.513  14.087  68.111  1.00  0.00    -0.215 C  
BRANCH  11  14
HETATM   14  C   UNL     1     -11.551  12.833  68.924  1.00  0.00    -0.362 A  
HETATM   15  C   UNL     1     -11.621  11.426  68.937  1.00  0.00    -0.388 A  
HETATM   16  C   UNL     1     -12.068  13.524  70.039  1.00  0.00    -0.411 A  
HETATM   17  C   UNL     1     -12.629  12.842  71.120  1.00  0.00    -0.365 A  
HETATM   18  C   UNL     1     -12.186  10.745  70.020  1.00  0.00    -0.409 A  
HETATM   19  C   UNL     1     -12.691  11.451  71.109  1.00  0.00    -0.479 A  
ENDBRANCH  11  14
BRANCH  11  20
HETATM   20  C   UNL     1     -11.138  12.958  66.368  1.00  0.00    -0.316 A  
HETATM   21  C   UNL     1     -10.187  11.794  64.447  1.00  0.00    -0.332 A  
HETATM   22  C   UNL     1     -11.379  11.939  63.745  1.00  0.00    -0.532 A  
HETATM   23  C   UNL     1     -12.457  12.591  64.337  1.00  0.00    -0.530 A  
HETATM   24  C   UNL     1     -12.336  13.102  65.630  1.00  0.00    -0.519 A  
HETATM   25  C   UNL     1     -10.064  12.298  65.744  1.00  0.00    -0.274 A  
ENDBRANCH  11  20
ENDBRANCH   6   7
ENDBRANCH   3   6
TORSDOF 4
ENDMDL
MODEL       14
REMARK 921   NORMALIZED FREE ENERGY PREDICTED BY IDOCK:   -6.86 KCAL/MOL
REMARK 922        TOTAL FREE ENERGY PREDICTED BY IDOCK:   -9.32 KCAL/MOL
REMARK 923 INTER-LIGAND FREE ENERGY PREDICTED BY IDOCK:   -8.29 KCAL/MOL
REMARK 924 INTRA-LIGAND FREE ENERGY PREDICTED BY IDOCK:   -1.03 KCAL/MOL
REMARK 927      BINDING AFFINITY PREDICTED BY RF-SCORE:    0.00 PKD
ROOT
HETATM    1  O   UNL     1      -5.129  18.901  65.486  1.00  0.00    -0.135 OA 
HETATM    2  P   UNL     1      -6.232  18.143  66.351  1.00  0.00    -0.234 P  
HETATM    3  O   UNL     1      -7.503  17.858  65.407  1.00  0.00    -0.436 OA 
HETATM    4  O   UNL     1      -6.506  18.843  67.640  1.00  0.00    -0.200 OA 
HETATM    5  O   UNL     1      -5.536  16.715  66.508  1.00  0.00    -0.348 OA 
ENDROOT
BRANCH   3   6
HETATM    6  C   UNL     1      -8.636  17.566  66.210  1.00  0.00    -0.199 C  
BRANCH   6   7
HETATM    7  N   UNL     1      -9.319  16.338  65.902  1.00  0.00    -0.312 N  
HETATM    8  C   UNL     1     -10.568  16.425  65.362  1.00  0.00    -0.320 C  
HETATM    9  N   UNL     1     -11.262  15.278  65.609  1.00  0.00    -0.297 NA 
HETATM   10  O   UNL     1     -11.069  17.393  64.811  1.00  0.00    -0.973 OA 
HETATM   11  C   UNL     1     -10.551  14.349  66.454  1.00  0.00    -0.297 C  
HETATM   12  O   UNL     1      -8.285  14.878  67.363  1.00  0.00    -0.168 OA 
HETATM   13  C   UNL     1      -9.227  15.182  66.637  1.00  0.00    -0.270 C  
BRANCH  11  14
HETATM   14  C   UNL     1     -11.213  14.184  67.839  1.00  0.00    -0.299 A  
HETATM   15  C   UNL     1     -11.587  15.277  68.646  1.00  0.00    -0.370 A  
HETATM   16  C   UNL     1     -11.429  12.888  68.351  1.00  0.00    -0.347 A  
HETATM   17  C   UNL     1     -11.995  12.691  69.613  1.00  0.00    -0.352 A  
HETATM   18  C   UNL     1     -12.151  15.077  69.910  1.00  0.00    -0.376 A  
HETATM   19  C   UNL     1     -12.352  13.787  70.393  1.00  0.00    -0.423 A  
ENDBRANCH  11  14
BRANCH  11  20
HETATM   20  C   UNL     1     -10.419  13.047  65.649  1.00  0.00    -0.291 A  
HETATM   21  C   UNL     1      -9.212  10.999  65.106  1.00  0.00    -0.227 A  
HETATM   22  C   UNL     1     -10.033  10.786  64.002  1.00  0.00    -0.403 A  
HETATM   23  C   UNL     1     -11.047  11.693  63.707  1.00  0.00    -0.499 A  
HETATM   24  C   UNL     1     -11.234  12.815  64.516  1.00  0.00    -0.373 A  
HETATM   25  C   UNL     1      -9.400  12.118  65.921  1.00  0.00    -0.135 A  
ENDBRANCH  11  20
ENDBRANCH   6   7
ENDBRANCH   3   6
TORSDOF 4
ENDMDL
MODEL       15
REMARK 921   NORMALIZED FREE ENERGY PREDICTED BY IDOCK:   -6.78 KCAL/MOL
REMARK 922        TOTAL FREE ENERGY PREDICTED BY IDOCK:   -9.22 KCAL/MOL
REMARK 923 INTER-LIGAND FREE ENERGY PREDICTED BY IDOCK:   -8.07 KCAL/MOL
REMARK 924 INTRA-LIGAND FREE ENERGY PREDICTED BY IDOCK:   -1.15 KCAL/MOL
REMARK 927      BINDING AFFINITY PREDICTED BY RF-SCORE:    0.00 PKD
ROOT
HETATM    1  O   UNL     1      -9.012   9.041  62.704  1.00  0.00    -0.181 OA 
HETATM    2  P   UNL     1      -9.051  10.491  63.363  1.00  0.00    -0.298 P  
HETATM    3  O   UNL     1     -10.444  10.648  64.150  1.00  0.00    -0.336 OA 
HETATM    4  O   UNL     1      -8.724  11.560  62.374  1.00  0.00    -0.310 OA 
HETATM    5  O   UNL     1      -7.968  10.307  64.520  1.00  0.00    -0.154 OA 
ENDROOT
BRANCH   3   6
HETATM    6  C   UNL     1     -10.700  12.022  64.397  1.00  0.00    -0.323 C  
BRANCH   6   7
HETATM    7  N   UNL     1     -11.199  12.338  65.709  1.00  0.00    -0.323 N  
HETATM    8  C   UNL     1     -12.328  13.098  65.792  1.00  0.00    -0.435 C  
HETATM    9  N   UNL     1     -12.376  13.730  66.999  1.00  0.00    -0.331 NA 
HETATM   10  O   UNL     1     -13.157  13.287  64.916  1.00  0.00    -0.737 OA 
HETATM   11  C   UNL     1     -11.192  13.526  67.799  1.00  0.00    -0.282 C  
HETATM   12  O   UNL     1      -9.271  12.159  66.970  1.00  0.00    -0.189 OA 
HETATM   13  C   UNL     1     -10.415  12.576  66.811  1.00  0.00    -0.225 C  
BRANCH  11  14
HETATM   14  C   UNL     1     -10.368  14.819  67.975  1.00  0.00    -0.237 A  
HETATM   15  C   UNL     1      -9.224  14.895  68.794  1.00  0.00    -0.193 A  
HETATM   16  C   UNL     1     -10.783  15.997  67.321  1.00  0.00    -0.295 A  
HETATM   17  C   UNL     1     -10.087  17.198  67.477  1.00  0.00    -0.301 A  
HETATM   18  C   UNL     1      -8.530  16.099  68.951  1.00  0.00    -0.241 A  
HETATM   19  C   UNL     1      -8.962  17.249  68.296  1.00  0.00    -0.262 A  
ENDBRANCH  11  14
BRANCH  11  20
HETATM   20  C   UNL     1     -11.665  12.885  69.113  1.00  0.00    -0.376 A  
HETATM   21  C   UNL     1     -12.116  10.910  70.470  1.00  0.00    -0.464 A  
HETATM   22  C   UNL     1     -12.766  11.690  71.422  1.00  0.00    -0.445 A  
HETATM   23  C   UNL     1     -12.876  13.064  71.234  1.00  0.00    -0.370 A  
HETATM   24  C   UNL     1     -12.338  13.655  70.090  1.00  0.00    -0.372 A  
HETATM   25  C   UNL     1     -11.572  11.498  69.326  1.00  0.00    -0.388 A  
ENDBRANCH  11  20
ENDBRANCH   6   7
ENDBRANCH   3   6
TORSDOF 4
ENDMDL
MODEL       16
REMARK 921   NORMALIZED FREE ENERGY PREDICTED BY IDOCK:   -6.77 KCAL/MOL
REMARK 922        TOTAL FREE ENERGY PREDICTED BY IDOCK:   -9.21 KCAL/MOL
REMARK 923 INTER-LIGAND FREE ENERGY PREDICTED BY IDOCK:   -8.37 KCAL/MOL
REMARK 924 INTRA-LIGAND FREE ENERGY PREDICTED BY IDOCK:   -0.84 KCAL/MOL
REMARK 927      BINDING AFFINITY PREDICTED BY RF-SCORE:    0.00 PKD
ROOT
HETATM    1  O   UNL     1     -12.423  13.609  63.155  1.00  0.00    -0.786 OA 
HETATM    2  P   UNL     1     -12.280  14.465  64.492  1.00  0.00    -0.321 P  
HETATM    3  O   UNL     1     -10.855  14.127  65.156  1.00  0.00    -0.328 OA 
HETATM    4  O   UNL     1     -13.475  14.320  65.374  1.00  0.00    -0.581 OA 
HETATM    5  O   UNL     1     -12.087  15.924  63.875  1.00  0.00    -0.768 OA 
ENDROOT
BRANCH   3   6
HETATM    6  C   UNL     1     -10.855  14.533  66.516  1.00  0.00    -0.314 C  
BRANCH   6   7
HETATM    7  N   UNL     1     -10.594  13.495  67.477  1.00  0.00    -0.243 N  
HETATM    8  C   UNL     1      -9.364  13.471  68.066  1.00  0.00    -0.213 C  
HETATM    9  N   UNL     1      -9.086  12.214  68.511  1.00  0.00    -0.140 NA 
HETATM   10  O   UNL     1      -8.559  14.387  68.132  1.00  0.00    -0.151 OA 
HETATM   11  C   UNL     1     -10.088  11.242  68.145  1.00  0.00    -0.182 C  
HETATM   12  O   UNL     1     -12.095  11.876  66.799  1.00  0.00    -0.593 OA 
HETATM   13  C   UNL     1     -11.080  12.214  67.401  1.00  0.00    -0.276 C  
BRANCH  11  14
HETATM   14  C   UNL     1      -9.565  10.209  67.125  1.00  0.00    -0.202 A  
HETATM   15  C   UNL     1     -10.106   8.914  66.998  1.00  0.00    -0.331 A  
HETATM   16  C   UNL     1      -8.475  10.547  66.297  1.00  0.00    -0.150 A  
HETATM   17  C   UNL     1      -7.947   9.633  65.382  1.00  0.00    -0.120 A  
HETATM   18  C   UNL     1      -9.574   8.000  66.082  1.00  0.00    -0.159 A  
HETATM   19  C   UNL     1      -8.496   8.358  65.278  1.00  0.00    -0.189 A  
ENDBRANCH  11  14
BRANCH  11  20
HETATM   20  C   UNL     1     -10.603  10.637  69.461  1.00  0.00    -0.265 A  
HETATM   21  C   UNL     1     -10.331   9.120  71.351  1.00  0.00    -0.409 A  
HETATM   22  C   UNL     1     -11.650   9.337  71.739  1.00  0.00    -0.458 A  
HETATM   23  C   UNL     1     -12.457  10.196  70.999  1.00  0.00    -0.474 A  
HETATM   24  C   UNL     1     -11.943  10.833  69.869  1.00  0.00    -0.418 A  
HETATM   25  C   UNL     1      -9.811   9.760  70.224  1.00  0.00    -0.296 A  
ENDBRANCH  11  20
ENDBRANCH   6   7
ENDBRANCH   3   6
TORSDOF 4
ENDMDL
MODEL       17
REMARK 921   NORMALIZED FREE ENERGY PREDICTED BY IDOCK:   -6.75 KCAL/MOL
REMARK 922        TOTAL FREE ENERGY PREDICTED BY IDOCK:   -9.18 KCAL/MOL
REMARK 923 INTER-LIGAND FREE ENERGY PREDICTED BY IDOCK:   -7.95 KCAL/MOL
REMARK 924 INTRA-LIGAND FREE ENERGY PREDICTED BY IDOCK:   -1.23 KCAL/MOL
REMARK 927      BINDING AFFINITY PREDICTED BY RF-SCORE:    0.00 PKD
ROOT
HETATM    1  O   UNL     1      -7.733  20.299  67.585  1.00  0.00    -0.296 OA 
HETATM    2  P   UNL     1      -8.542  19.023  67.077  1.00  0.00    -0.314 P  
HETATM    3  O   UNL     1      -7.505  17.806  66.907  1.00  0.00    -0.184 OA 
HETATM    4  O   UNL     1      -9.393  19.340  65.893  1.00  0.00    -0.429 OA 
HETATM    5  O   UNL     1      -9.356  18.659  68.400  1.00  0.00    -0.313 OA 
ENDROOT
BRANCH   3   6
HETATM    6  C   UNL     1      -8.082  16.800  66.088  1.00  0.00    -0.258 C  
BRANCH   6   7
HETATM    7  N   UNL     1      -8.819  15.778  66.784  1.00  0.00    -0.242 N  
HETATM    8  C   UNL     1      -8.174  14.609  67.063  1.00  0.00    -0.157 C  
HETATM    9  N   UNL     1      -9.081  13.605  67.223  1.00  0.00    -0.218 NA 
HETATM   10  O   UNL     1      -6.969  14.419  67.089  1.00  0.00    -0.173 OA 
HETATM   11  C   UNL     1     -10.439  14.009  66.946  1.00  0.00    -0.276 C  
HETATM   12  O   UNL     1     -10.988  16.335  66.217  1.00  0.00    -0.162 OA 
HETATM   13  C   UNL     1     -10.158  15.523  66.616  1.00  0.00    -0.267 C  
BRANCH  11  14
HETATM   14  C   UNL     1     -11.009  13.335  65.679  1.00  0.00    -0.292 A  
HETATM   15  C   UNL     1     -12.382  13.079  65.498  1.00  0.00    -0.527 A  
HETATM   16  C   UNL     1     -10.126  12.919  64.661  1.00  0.00    -0.254 A  
HETATM   17  C   UNL     1     -10.593  12.276  63.513  1.00  0.00    -0.488 A  
HETATM   18  C   UNL     1     -12.848  12.433  64.348  1.00  0.00    -0.344 A  
HETATM   19  C   UNL     1     -11.955  12.030  63.359  1.00  0.00    -0.571 A  
ENDBRANCH  11  14
BRANCH  11  20
HETATM   20  C   UNL     1     -11.240  13.739  68.229  1.00  0.00    -0.301 A  
HETATM   21  C   UNL     1     -12.396  14.546  70.220  1.00  0.00    -0.408 A  
HETATM   22  C   UNL     1     -12.489  13.248  70.714  1.00  0.00    -0.403 A  
HETATM   23  C   UNL     1     -11.962  12.188  69.981  1.00  0.00    -0.391 A  
HETATM   24  C   UNL     1     -11.337  12.431  68.757  1.00  0.00    -0.339 A  
HETATM   25  C   UNL     1     -11.777  14.792  68.992  1.00  0.00    -0.343 A  
ENDBRANCH  11  20
ENDBRANCH   6   7
ENDBRANCH   3   6
TORSDOF 4
ENDMDL
MODEL       18
REMARK 921   NORMALIZED FREE ENERGY PREDICTED BY IDOCK:   -6.74 KCAL/MOL
REMARK 922        TOTAL FREE ENERGY PREDICTED BY IDOCK:   -9.17 KCAL/MOL
REMARK 923 INTER-LIGAND FREE ENERGY PREDICTED BY IDOCK:   -8.05 KCAL/MOL
REMARK 924 INTRA-LIGAND FREE ENERGY PREDICTED BY IDOCK:   -1.12 KCAL/MOL
REMARK 927      BINDING AFFINITY PREDICTED BY RF-SCORE:    0.00 PKD
ROOT
HETATM    1  O   UNL     1     -10.560  19.652  66.070  1.00  0.00    -0.485 OA 
HETATM    2  P   UNL     1      -9.781  18.583  66.959  1.00  0.00    -0.344 P  
HETATM    3  O   UNL     1     -10.861  17.780  67.840  1.00  0.00    -0.365 OA 
HETATM    4  O   UNL     1      -8.645  19.201  67.703  1.00  0.00    -0.287 OA 
HETATM    5  O   UNL     1      -9.345  17.540  65.832  1.00  0.00    -0.516 OA 
ENDROOT
BRANCH   3   6
HETATM    6  C   UNL     1     -10.206  17.127  68.916  1.00  0.00    -0.332 C  
BRANCH   6   7
HETATM    7  N   UNL     1     -10.153  15.691  68.834  1.00  0.00    -0.207 N  
HETATM    8  C   UNL     1      -9.009  15.124  68.355  1.00  0.00    -0.183 C  
HETATM    9  N   UNL     1      -9.277  13.885  67.857  1.00  0.00    -0.190 NA 
HETATM   10  O   UNL     1      -7.905  15.641  68.279  1.00  0.00    -0.124 OA 
HETATM   11  C   UNL     1     -10.683  13.557  67.861  1.00  0.00    -0.247 C  
HETATM   12  O   UNL     1     -12.400  15.173  68.689  1.00  0.00    -0.091 OA 
HETATM   13  C   UNL     1     -11.218  14.882  68.525  1.00  0.00    -0.279 C  
BRANCH  11  14
HETATM   14  C   UNL     1     -11.271  13.458  66.438  1.00  0.00    -0.323 A  
HETATM   15  C   UNL     1     -11.685  12.241  65.862  1.00  0.00    -0.451 A  
HETATM   16  C   UNL     1     -11.373  14.622  65.650  1.00  0.00    -0.338 A  
HETATM   17  C   UNL     1     -11.868  14.576  64.345  1.00  0.00    -0.419 A  
HETATM   18  C   UNL     1     -12.178  12.195  64.554  1.00  0.00    -0.404 A  
HETATM   19  C   UNL     1     -12.268  13.360  63.796  1.00  0.00    -0.482 A  
ENDBRANCH  11  14
BRANCH  11  20
HETATM   20  C   UNL     1     -10.826  12.280  68.703  1.00  0.00    -0.268 A  
HETATM   21  C   UNL     1     -11.937  11.011  70.465  1.00  0.00    -0.474 A  
HETATM   22  C   UNL     1     -10.937  10.044  70.425  1.00  0.00    -0.384 A  
HETATM   23  C   UNL     1      -9.876  10.181  69.534  1.00  0.00    -0.255 A  
HETATM   24  C   UNL     1      -9.816  11.290  68.689  1.00  0.00    -0.208 A  
HETATM   25  C   UNL     1     -11.884  12.119  69.616  1.00  0.00    -0.391 A  
ENDBRANCH  11  20
ENDBRANCH   6   7
ENDBRANCH   3   6
TORSDOF 4
ENDMDL
MODEL       19
REMARK 921   NORMALIZED FREE ENERGY PREDICTED BY IDOCK:   -6.66 KCAL/MOL
REMARK 922        TOTAL FREE ENERGY PREDICTED BY IDOCK:   -9.07 KCAL/MOL
REMARK 923 INTER-LIGAND FREE ENERGY PREDICTED BY IDOCK:   -8.59 KCAL/MOL
REMARK 924 INTRA-LIGAND FREE ENERGY PREDICTED BY IDOCK:   -0.48 KCAL/MOL
REMARK 927      BINDING AFFINITY PREDICTED BY RF-SCORE:    0.00 PKD
ROOT
HETATM    1  O   UNL     1     -12.561  14.487  63.733  1.00  0.00    -0.825 OA 
HETATM    2  P   UNL     1     -12.015  13.443  64.807  1.00  0.00    -0.441 P  
HETATM    3  O   UNL     1     -12.133  14.113  66.264  1.00  0.00    -0.412 OA 
HETATM    4  O   UNL     1     -10.675  12.907  64.429  1.00  0.00    -0.339 OA 
HETATM    5  O   UNL     1     -13.191  12.365  64.777  1.00  0.00    -0.784 OA 
ENDROOT
BRANCH   3   6
HETATM    6  C   UNL     1     -11.304  13.412  67.178  1.00  0.00    -0.315 C  
BRANCH   6   7
HETATM    7  N   UNL     1     -10.397  14.224  67.947  1.00  0.00    -0.231 N  
HETATM    8  C   UNL     1     -10.814  14.655  69.171  1.00  0.00    -0.259 C  
HETATM    9  N   UNL     1     -10.128  15.776  69.528  1.00  0.00    -0.263 NA 
HETATM   10  O   UNL     1     -11.721  14.194  69.847  1.00  0.00    -0.280 OA 
HETATM   11  C   UNL     1      -9.250  16.265  68.491  1.00  0.00    -0.211 C  
HETATM   12  O   UNL     1      -9.084  15.125  66.274  1.00  0.00    -0.288 OA 
HETATM   13  C   UNL     1      -9.527  15.144  67.418  1.00  0.00    -0.204 C  
BRANCH  11  14
HETATM   14  C   UNL     1      -9.716  17.617  67.910  1.00  0.00    -0.295 A  
HETATM   15  C   UNL     1      -9.949  18.755  68.707  1.00  0.00    -0.442 A  
HETATM   16  C   UNL     1      -9.959  17.727  66.526  1.00  0.00    -0.346 A  
HETATM   17  C   UNL     1     -10.414  18.920  65.960  1.00  0.00    -0.507 A  
HETATM   18  C   UNL     1     -10.407  19.948  68.139  1.00  0.00    -0.533 A  
HETATM   19  C   UNL     1     -10.640  20.030  66.769  1.00  0.00    -0.454 A  
ENDBRANCH  11  14
BRANCH  11  20
HETATM   20  C   UNL     1      -7.837  16.281  69.094  1.00  0.00    -0.231 A  
HETATM   21  C   UNL     1      -5.665  17.350  69.388  1.00  0.00    -0.210 A  
HETATM   22  C   UNL     1      -5.159  16.200  69.986  1.00  0.00    -0.136 A  
HETATM   23  C   UNL     1      -5.976  15.084  70.143  1.00  0.00    -0.147 A  
HETATM   24  C   UNL     1      -7.297  15.120  69.696  1.00  0.00    -0.191 A  
HETATM   25  C   UNL     1      -6.989  17.392  68.944  1.00  0.00    -0.244 A  
ENDBRANCH  11  20
ENDBRANCH   6   7
ENDBRANCH   3   6
TORSDOF 4
ENDMDL
MODEL       20
REMARK 921   NORMALIZED FREE ENERGY PREDICTED BY IDOCK:   -6.64 KCAL/MOL
REMARK 922        TOTAL FREE ENERGY PREDICTED BY IDOCK:   -9.04 KCAL/MOL
REMARK 923 INTER-LIGAND FREE ENERGY PREDICTED BY IDOCK:   -8.18 KCAL/MOL
REMARK 924 INTRA-LIGAND FREE ENERGY PREDICTED BY IDOCK:   -0.86 KCAL/MOL
REMARK 927      BINDING AFFINITY PREDICTED BY RF-SCORE:    0.00 PKD
ROOT
HETATM    1  O   UNL     1      -9.612  11.309  62.619  1.00  0.00    -0.316 OA 
HETATM    2  P   UNL     1     -10.352  11.456  64.022  1.00  0.00    -0.433 P  
HETATM    3  O   UNL     1      -9.946  12.875  64.659  1.00  0.00    -0.235 OA 
HETATM    4  O   UNL     1     -10.147  10.257  64.887  1.00  0.00    -0.334 OA 
HETATM    5  O   UNL     1     -11.856  11.666  63.529  1.00  0.00    -0.431 OA 
ENDROOT
BRANCH   3   6
HETATM    6  C   UNL     1     -10.238  12.875  66.048  1.00  0.00    -0.284 C  
BRANCH   6   7
HETATM    7  N   UNL     1      -9.932  14.093  66.750  1.00  0.00    -0.260 N  
HETATM    8  C   UNL     1      -8.815  14.110  67.533  1.00  0.00    -0.201 C  
HETATM    9  N   UNL     1      -8.934  15.070  68.492  1.00  0.00    -0.179 NA 
HETATM   10  O   UNL     1      -7.864  13.346  67.479  1.00  0.00    -0.157 OA 
HETATM   11  C   UNL     1     -10.226  15.716  68.499  1.00  0.00    -0.211 C  
HETATM   12  O   UNL     1     -12.025  15.059  66.894  1.00  0.00    -0.205 OA 
HETATM   13  C   UNL     1     -10.864  14.951  67.278  1.00  0.00    -0.306 C  
BRANCH  11  14
HETATM   14  C   UNL     1     -11.047  15.382  69.762  1.00  0.00    -0.295 A  
HETATM   15  C   UNL     1     -11.211  16.284  70.832  1.00  0.00    -0.267 A  
HETATM   16  C   UNL     1     -11.639  14.108  69.884  1.00  0.00    -0.329 A  
HETATM   17  C   UNL     1     -12.363  13.750  71.023  1.00  0.00    -0.452 A  
HETATM   18  C   UNL     1     -11.934  15.922  71.973  1.00  0.00    -0.602 A  
HETATM   19  C   UNL     1     -12.508  14.657  72.069  1.00  0.00    -0.407 A  
ENDBRANCH  11  14
BRANCH  11  20
HETATM   20  C   UNL     1      -9.959  17.214  68.286  1.00  0.00    -0.300 A  
HETATM   21  C   UNL     1     -10.610  19.378  67.367  1.00  0.00    -0.603 A  
HETATM   22  C   UNL     1      -9.359  19.905  67.673  1.00  0.00    -0.464 A  
HETATM   23  C   UNL     1      -8.399  19.102  68.282  1.00  0.00    -0.370 A  
HETATM   24  C   UNL     1      -8.692  17.770  68.578  1.00  0.00    -0.284 A  
HETATM   25  C   UNL     1     -10.909  18.047  67.667  1.00  0.00    -0.257 A  
ENDBRANCH  11  20
ENDBRANCH   6   7
ENDBRANCH   3   6
TORSDOF 4
ENDMDL
MODEL       21
REMARK 921   NORMALIZED FREE ENERGY PREDICTED BY IDOCK:   -6.63 KCAL/MOL
REMARK 922        TOTAL FREE ENERGY PREDICTED BY IDOCK:   -9.03 KCAL/MOL
REMARK 923 INTER-LIGAND FREE ENERGY PREDICTED BY IDOCK:   -8.00 KCAL/MOL
REMARK 924 INTRA-LIGAND FREE ENERGY PREDICTED BY IDOCK:   -1.03 KCAL/MOL
REMARK 927      BINDING AFFINITY PREDICTED BY RF-SCORE:    0.00 PKD
ROOT
HETATM    1  O   UNL     1      -7.804  10.419  64.726  1.00  0.00    -0.146 OA 
HETATM    2  P   UNL     1      -9.397  10.408  64.703  1.00  0.00    -0.304 P  
HETATM    3  O   UNL     1      -9.914  11.908  64.964  1.00  0.00    -0.253 OA 
HETATM    4  O   UNL     1      -9.959   9.348  65.592  1.00  0.00    -0.304 OA 
HETATM    5  O   UNL     1      -9.656  10.170  63.146  1.00  0.00    -0.300 OA 
ENDROOT
BRANCH   3   6
HETATM    6  C   UNL     1     -11.279  11.880  65.353  1.00  0.00    -0.295 C  
BRANCH   6   7
HETATM    7  N   UNL     1     -11.625  12.715  66.473  1.00  0.00    -0.360 N  
HETATM    8  C   UNL     1     -12.347  13.845  66.222  1.00  0.00    -0.449 C  
HETATM    9  N   UNL     1     -12.151  14.752  67.219  1.00  0.00    -0.216 NA 
HETATM   10  O   UNL     1     -13.013  14.090  65.228  1.00  0.00    -0.743 OA 
HETATM   11  C   UNL     1     -11.166  14.335  68.189  1.00  0.00    -0.275 C  
HETATM   12  O   UNL     1      -9.959  12.157  67.972  1.00  0.00    -0.191 OA 
HETATM   13  C   UNL     1     -10.830  12.924  67.572  1.00  0.00    -0.235 C  
BRANCH  11  14
HETATM   14  C   UNL     1      -9.888  15.199  68.143  1.00  0.00    -0.218 A  
HETATM   15  C   UNL     1      -8.983  15.289  69.219  1.00  0.00    -0.241 A  
HETATM   16  C   UNL     1      -9.615  15.968  66.993  1.00  0.00    -0.229 A  
HETATM   17  C   UNL     1      -8.488  16.790  66.919  1.00  0.00    -0.242 A  
HETATM   18  C   UNL     1      -7.857  16.115  69.144  1.00  0.00    -0.232 A  
HETATM   19  C   UNL     1      -7.611  16.865  67.998  1.00  0.00    -0.182 A  
ENDBRANCH  11  14
BRANCH  11  20
HETATM   20  C   UNL     1     -11.879  14.319  69.549  1.00  0.00    -0.378 A  
HETATM   21  C   UNL     1     -12.935  13.101  71.380  1.00  0.00    -0.386 A  
HETATM   22  C   UNL     1     -13.412  14.291  71.921  1.00  0.00    -0.485 A  
HETATM   23  C   UNL     1     -13.134  15.500  71.290  1.00  0.00    -0.581 A  
HETATM   24  C   UNL     1     -12.383  15.514  70.113  1.00  0.00    -0.384 A  
HETATM   25  C   UNL     1     -12.179  13.111  70.205  1.00  0.00    -0.376 A  
ENDBRANCH  11  20
ENDBRANCH   6   7
ENDBRANCH   3   6
TORSDOF 4
ENDMDL
MODEL       22
REMARK 921   NORMALIZED FREE ENERGY PREDICTED BY IDOCK:   -6.53 KCAL/MOL
REMARK 922        TOTAL FREE ENERGY PREDICTED BY IDOCK:   -8.91 KCAL/MOL
REMARK 923 INTER-LIGAND FREE ENERGY PREDICTED BY IDOCK:   -7.83 KCAL/MOL
REMARK 924 INTRA-LIGAND FREE ENERGY PREDICTED BY IDOCK:   -1.08 KCAL/MOL
REMARK 927      BINDING AFFINITY PREDICTED BY RF-SCORE:    0.00 PKD
ROOT
HETATM    1  O   UNL     1     -12.246  14.928  73.991  1.00  0.00    -0.537 OA 
HETATM    2  P   UNL     1     -12.620  15.353  72.502  1.00  0.00    -0.484 P  
HETATM    3  O   UNL     1     -12.590  14.035  71.581  1.00  0.00    -0.331 OA 
HETATM    4  O   UNL     1     -11.803  16.509  72.032  1.00  0.00    -0.478 OA 
HETATM    5  O   UNL     1     -14.174  15.670  72.679  1.00  0.00    -0.546 OA 
ENDROOT
BRANCH   3   6
HETATM    6  C   UNL     1     -12.511  14.411  70.214  1.00  0.00    -0.354 C  
BRANCH   6   7
HETATM    7  N   UNL     1     -11.407  13.855  69.477  1.00  0.00    -0.256 N  
HETATM    8  C   UNL     1     -10.459  14.717  69.009  1.00  0.00    -0.246 C  
HETATM    9  N   UNL     1      -9.812  14.162  67.946  1.00  0.00    -0.219 NA 
HETATM   10  O   UNL     1     -10.244  15.856  69.391  1.00  0.00    -0.227 OA 
HETATM   11  C   UNL     1     -10.366  12.894  67.535  1.00  0.00    -0.223 C  
HETATM   12  O   UNL     1     -12.341  11.894  68.693  1.00  0.00    -0.275 OA 
HETATM   13  C   UNL     1     -11.490  12.776  68.633  1.00  0.00    -0.303 C  
BRANCH  11  14
HETATM   14  C   UNL     1     -11.046  12.967  66.152  1.00  0.00    -0.314 A  
HETATM   15  C   UNL     1     -11.110  11.870  65.270  1.00  0.00    -0.354 A  
HETATM   16  C   UNL     1     -11.603  14.187  65.719  1.00  0.00    -0.343 A  
HETATM   17  C   UNL     1     -12.199  14.309  64.462  1.00  0.00    -0.476 A  
HETATM   18  C   UNL     1     -11.706  11.994  64.011  1.00  0.00    -0.498 A  
HETATM   19  C   UNL     1     -12.247  13.211  63.607  1.00  0.00    -0.553 A  
ENDBRANCH  11  14
BRANCH  11  20
HETATM   20  C   UNL     1      -9.223  11.872  67.634  1.00  0.00    -0.183 A  
HETATM   21  C   UNL     1      -8.291   9.809  68.541  1.00  0.00    -0.110 A  
HETATM   22  C   UNL     1      -7.039  10.123  68.019  1.00  0.00    -0.084 A  
HETATM   23  C   UNL     1      -6.863  11.305  67.306  1.00  0.00    -0.108 A  
HETATM   24  C   UNL     1      -7.939  12.174  67.122  1.00  0.00    -0.170 A  
HETATM   25  C   UNL     1      -9.372  10.673  68.354  1.00  0.00    -0.163 A  
ENDBRANCH  11  20
ENDBRANCH   6   7
ENDBRANCH   3   6
TORSDOF 4
ENDMDL
MODEL       23
REMARK 921   NORMALIZED FREE ENERGY PREDICTED BY IDOCK:   -6.51 KCAL/MOL
REMARK 922        TOTAL FREE ENERGY PREDICTED BY IDOCK:   -8.89 KCAL/MOL
REMARK 923 INTER-LIGAND FREE ENERGY PREDICTED BY IDOCK:   -7.83 KCAL/MOL
REMARK 924 INTRA-LIGAND FREE ENERGY PREDICTED BY IDOCK:   -1.06 KCAL/MOL
REMARK 927      BINDING AFFINITY PREDICTED BY RF-SCORE:    0.00 PKD
ROOT
HETATM    1  O   UNL     1      -9.897  18.975  66.051  1.00  0.00    -0.439 OA 
HETATM    2  P   UNL     1     -10.071  17.654  66.925  1.00  0.00    -0.351 P  
HETATM    3  O   UNL     1     -10.881  16.575  66.049  1.00  0.00    -0.210 OA 
HETATM    4  O   UNL     1     -10.618  17.952  68.281  1.00  0.00    -0.368 OA 
HETATM    5  O   UNL     1      -8.570  17.112  66.922  1.00  0.00    -0.212 OA 
ENDROOT
BRANCH   3   6
HETATM    6  C   UNL     1     -11.406  15.568  66.901  1.00  0.00    -0.079 C  
BRANCH   6   7
HETATM    7  N   UNL     1     -11.083  14.213  66.538  1.00  0.00    -0.312 N  
HETATM    8  C   UNL     1     -12.061  13.462  65.956  1.00  0.00    -0.438 C  
HETATM    9  N   UNL     1     -11.806  12.138  66.149  1.00  0.00    -0.582 NA 
HETATM   10  O   UNL     1     -13.076  13.866  65.411  1.00  0.00    -0.752 OA 
HETATM   11  C   UNL     1     -10.664  11.891  66.997  1.00  0.00    -0.240 C  
HETATM   12  O   UNL     1      -9.350  13.766  67.999  1.00  0.00    -0.186 OA 
HETATM   13  C   UNL     1     -10.245  13.389  67.247  1.00  0.00    -0.241 C  
BRANCH  11  14
HETATM   14  C   UNL     1     -11.056  11.266  68.352  1.00  0.00    -0.296 A  
HETATM   15  C   UNL     1     -11.857  11.932  69.301  1.00  0.00    -0.379 A  
HETATM   16  C   UNL     1     -10.573   9.985  68.688  1.00  0.00    -0.239 A  
HETATM   17  C   UNL     1     -10.875   9.394  69.917  1.00  0.00    -0.259 A  
HETATM   18  C   UNL     1     -12.156  11.340  70.532  1.00  0.00    -0.481 A  
HETATM   19  C   UNL     1     -11.665  10.074  70.840  1.00  0.00    -0.462 A  
ENDBRANCH  11  14
BRANCH  11  20
HETATM   20  C   UNL     1      -9.683  11.051  66.165  1.00  0.00    -0.257 A  
HETATM   21  C   UNL     1      -7.405  10.392  65.592  1.00  0.00    -0.148 A  
HETATM   22  C   UNL     1      -7.866   9.704  64.474  1.00  0.00    -0.134 A  
HETATM   23  C   UNL     1      -9.227   9.682  64.186  1.00  0.00    -0.218 A  
HETATM   24  C   UNL     1     -10.125  10.353  65.016  1.00  0.00    -0.379 A  
HETATM   25  C   UNL     1      -8.302  11.061  66.430  1.00  0.00    -0.165 A  
ENDBRANCH  11  20
ENDBRANCH   6   7
ENDBRANCH   3   6
TORSDOF 4
ENDMDL
MODEL       24
REMARK 921   NORMALIZED FREE ENERGY PREDICTED BY IDOCK:   -6.48 KCAL/MOL
REMARK 922        TOTAL FREE ENERGY PREDICTED BY IDOCK:   -8.85 KCAL/MOL
REMARK 923 INTER-LIGAND FREE ENERGY PREDICTED BY IDOCK:   -8.29 KCAL/MOL
REMARK 924 INTRA-LIGAND FREE ENERGY PREDICTED BY IDOCK:   -0.56 KCAL/MOL
REMARK 927      BINDING AFFINITY PREDICTED BY RF-SCORE:    0.00 PKD
ROOT
HETATM    1  O   UNL     1     -13.164   9.028  72.677  1.00  0.00    -0.443 OA 
HETATM    2  P   UNL     1     -11.922   8.509  71.824  1.00  0.00    -0.387 P  
HETATM    3  O   UNL     1     -11.166   9.788  71.208  1.00  0.00    -0.361 OA 
HETATM    4  O   UNL     1     -12.318   7.444  70.857  1.00  0.00    -0.285 OA 
HETATM    5  O   UNL     1     -10.959   8.014  72.996  1.00  0.00    -0.374 OA 
ENDROOT
BRANCH   3   6
HETATM    6  C   UNL     1     -10.330   9.377  70.138  1.00  0.00    -0.233 C  
BRANCH   6   7
HETATM    7  N   UNL     1     -10.294  10.258  69.000  1.00  0.00    -0.198 N  
HETATM    8  C   UNL     1      -9.128  10.917  68.744  1.00  0.00    -0.171 C  
HETATM    9  N   UNL     1      -9.381  12.044  68.021  1.00  0.00    -0.190 NA 
HETATM   10  O   UNL     1      -8.014  10.631  69.153  1.00  0.00    -0.129 OA 
HETATM   11  C   UNL     1     -10.789  12.296  67.825  1.00  0.00    -0.221 C  
HETATM   12  O   UNL     1     -12.533  10.782  68.777  1.00  0.00    -0.366 OA 
HETATM   13  C   UNL     1     -11.348  11.024  68.567  1.00  0.00    -0.287 C  
BRANCH  11  14
HETATM   14  C   UNL     1     -11.276  13.550  68.581  1.00  0.00    -0.311 A  
HETATM   15  C   UNL     1     -11.132  14.856  68.073  1.00  0.00    -0.301 A  
HETATM   16  C   UNL     1     -11.862  13.405  69.855  1.00  0.00    -0.385 A  
HETATM   17  C   UNL     1     -12.287  14.514  70.590  1.00  0.00    -0.407 A  
HETATM   18  C   UNL     1     -11.556  15.966  68.811  1.00  0.00    -0.389 A  
HETATM   19  C   UNL     1     -12.131  15.795  70.068  1.00  0.00    -0.344 A  
ENDBRANCH  11  14
BRANCH  11  20
HETATM   20  C   UNL     1     -11.011  12.338  66.305  1.00  0.00    -0.327 A  
HETATM   21  C   UNL     1     -12.495  12.551  64.381  1.00  0.00    -0.530 A  
HETATM   22  C   UNL     1     -11.470  12.163  63.524  1.00  0.00    -0.544 A  
HETATM   23  C   UNL     1     -10.214  11.857  64.040  1.00  0.00    -0.394 A  
HETATM   24  C   UNL     1      -9.988  11.935  65.415  1.00  0.00    -0.281 A  
HETATM   25  C   UNL     1     -12.272  12.637  65.757  1.00  0.00    -0.427 A  
ENDBRANCH  11  20
ENDBRANCH   6   7
ENDBRANCH   3   6
TORSDOF 4
ENDMDL
MODEL       25
REMARK 921   NORMALIZED FREE ENERGY PREDICTED BY IDOCK:   -6.46 KCAL/MOL
REMARK 922        TOTAL FREE ENERGY PREDICTED BY IDOCK:   -8.82 KCAL/MOL
REMARK 923 INTER-LIGAND FREE ENERGY PREDICTED BY IDOCK:   -8.05 KCAL/MOL
REMARK 924 INTRA-LIGAND FREE ENERGY PREDICTED BY IDOCK:   -0.77 KCAL/MOL
REMARK 927      BINDING AFFINITY PREDICTED BY RF-SCORE:    0.00 PKD
ROOT
HETATM    1  O   UNL     1      -9.617  19.437  67.472  1.00  0.00    -0.309 OA 
HETATM    2  P   UNL     1      -9.816  18.205  66.481  1.00  0.00    -0.361 P  
HETATM    3  O   UNL     1     -10.666  17.075  67.247  1.00  0.00    -0.299 OA 
HETATM    4  O   UNL     1      -8.525  17.766  65.873  1.00  0.00    -0.522 OA 
HETATM    5  O   UNL     1     -10.853  18.838  65.446  1.00  0.00    -0.563 OA 
ENDROOT
BRANCH   3   6
HETATM    6  C   UNL     1     -10.519  15.833  66.577  1.00  0.00    -0.303 C  
BRANCH   6   7
HETATM    7  N   UNL     1     -10.884  14.667  67.338  1.00  0.00    -0.291 N  
HETATM    8  C   UNL     1     -12.109  14.115  67.103  1.00  0.00    -0.397 C  
HETATM    9  N   UNL     1     -12.513  13.402  68.192  1.00  0.00     0.144 NA 
HETATM   10  O   UNL     1     -12.816  14.275  66.121  1.00  0.00    -0.326 OA 
HETATM   11  C   UNL     1     -11.616  13.516  69.317  1.00  0.00    -0.316 C  
HETATM   12  O   UNL     1      -9.557  14.928  69.210  1.00  0.00    -0.195 OA 
HETATM   13  C   UNL     1     -10.531  14.440  68.644  1.00  0.00    -0.247 C  
BRANCH  11  14
HETATM   14  C   UNL     1     -12.243  14.288  70.498  1.00  0.00    -0.427 A  
HETATM   15  C   UNL     1     -11.476  14.933  71.487  1.00  0.00    -0.307 A  
HETATM   16  C   UNL     1     -13.647  14.329  70.628  1.00  0.00     0.167 A  
HETATM   17  C   UNL     1     -14.258  14.987  71.698  1.00  0.00    -0.649 A  
HETATM   18  C   UNL     1     -12.090  15.589  72.559  1.00  0.00    -0.536 A  
HETATM   19  C   UNL     1     -13.477  15.614  72.665  1.00  0.00    -0.655 A  
ENDBRANCH  11  14
BRANCH  11  20
HETATM   20  C   UNL     1     -11.164  12.087  69.655  1.00  0.00    -0.168 A  
HETATM   21  C   UNL     1      -9.821  10.112  69.160  1.00  0.00    -0.225 A  
HETATM   22  C   UNL     1     -10.516   9.378  70.117  1.00  0.00    -0.280 A  
HETATM   23  C   UNL     1     -11.536   9.981  70.847  1.00  0.00    -0.452 A  
HETATM   24  C   UNL     1     -11.862  11.317  70.614  1.00  0.00    -0.368 A  
HETATM   25  C   UNL     1     -10.140  11.452  68.928  1.00  0.00    -0.166 A  
ENDBRANCH  11  20
ENDBRANCH   6   7
ENDBRANCH   3   6
TORSDOF 4
ENDMDL
MODEL       26
REMARK 921   NORMALIZED FREE ENERGY PREDICTED BY IDOCK:   -6.40 KCAL/MOL
REMARK 922        TOTAL FREE ENERGY PREDICTED BY IDOCK:   -8.74 KCAL/MOL
REMARK 923 INTER-LIGAND FREE ENERGY PREDICTED BY IDOCK:   -7.92 KCAL/MOL
REMARK 924 INTRA-LIGAND FREE ENERGY PREDICTED BY IDOCK:   -0.82 KCAL/MOL
REMARK 927      BINDING AFFINITY PREDICTED BY RF-SCORE:    0.00 PKD
ROOT
HETATM    1  O   UNL     1     -10.216   8.715  66.218  1.00  0.00    -0.264 OA 
HETATM    2  P   UNL     1     -10.040  10.196  66.778  1.00  0.00    -0.224 P  
HETATM    3  O   UNL     1     -10.543  11.224  65.649  1.00  0.00    -0.258 OA 
HETATM    4  O   UNL     1      -8.668  10.426  67.320  1.00  0.00    -0.126 OA 
HETATM    5  O   UNL     1     -11.198  10.225  67.876  1.00  0.00    -0.301 OA 
ENDROOT
BRANCH   3   6
HETATM    6  C   UNL     1     -10.037  12.521  65.925  1.00  0.00    -0.254 C  
BRANCH   6   7
HETATM    7  N   UNL     1     -10.690  13.230  66.994  1.00  0.00    -0.259 N  
HETATM    8  C   UNL     1     -11.825  13.924  66.694  1.00  0.00    -0.420 C  
HETATM    9  N   UNL     1     -12.018  14.916  67.609  1.00  0.00    -0.248 NA 
HETATM   10  O   UNL     1     -12.544  13.777  65.719  1.00  0.00    -0.484 OA 
HETATM   11  C   UNL     1     -10.936  15.040  68.557  1.00  0.00    -0.256 C  
HETATM   12  O   UNL     1      -8.925  13.562  68.447  1.00  0.00    -0.184 OA 
HETATM   13  C   UNL     1     -10.044  13.852  68.033  1.00  0.00    -0.244 C  
BRANCH  11  14
HETATM   14  C   UNL     1     -10.145  16.354  68.382  1.00  0.00    -0.245 A  
HETATM   15  C   UNL     1     -10.651  17.467  67.683  1.00  0.00    -0.355 A  
HETATM   16  C   UNL     1      -8.840  16.449  68.908  1.00  0.00    -0.256 A  
HETATM   17  C   UNL     1      -8.074  17.606  68.745  1.00  0.00    -0.233 A  
HETATM   18  C   UNL     1      -9.881  18.624  67.519  1.00  0.00    -0.350 A  
HETATM   19  C   UNL     1      -8.595  18.692  68.047  1.00  0.00    -0.321 A  
ENDBRANCH  11  14
BRANCH  11  20
HETATM   20  C   UNL     1     -11.559  14.849  69.948  1.00  0.00    -0.328 A  
HETATM   21  C   UNL     1     -12.862  13.524  71.528  1.00  0.00    -0.440 A  
HETATM   22  C   UNL     1     -12.918  14.598  72.411  1.00  0.00    -0.453 A  
HETATM   23  C   UNL     1     -12.304  15.802  72.078  1.00  0.00    -0.534 A  
HETATM   24  C   UNL     1     -11.639  15.929  70.858  1.00  0.00    -0.456 A  
HETATM   25  C   UNL     1     -12.192  13.645  70.308  1.00  0.00    -0.423 A  
ENDBRANCH  11  20
ENDBRANCH   6   7
ENDBRANCH   3   6
TORSDOF 4
ENDMDL
MODEL       27
REMARK 921   NORMALIZED FREE ENERGY PREDICTED BY IDOCK:   -6.37 KCAL/MOL
REMARK 922        TOTAL FREE ENERGY PREDICTED BY IDOCK:   -8.71 KCAL/MOL
REMARK 923 INTER-LIGAND FREE ENERGY PREDICTED BY IDOCK:   -7.62 KCAL/MOL
REMARK 924 INTRA-LIGAND FREE ENERGY PREDICTED BY IDOCK:   -1.08 KCAL/MOL
REMARK 927      BINDING AFFINITY PREDICTED BY RF-SCORE:    0.00 PKD
ROOT
HETATM    1  O   UNL     1      -6.124  14.775  70.807  1.00  0.00    -0.148 OA 
HETATM    2  P   UNL     1      -6.406  15.724  69.558  1.00  0.00    -0.180 P  
HETATM    3  O   UNL     1      -7.997  15.906  69.414  1.00  0.00    -0.232 OA 
HETATM    4  O   UNL     1      -5.676  15.269  68.338  1.00  0.00    -0.094 OA 
HETATM    5  O   UNL     1      -5.905  17.121  70.145  1.00  0.00    -0.238 OA 
ENDROOT
BRANCH   3   6
HETATM    6  C   UNL     1      -8.305  16.387  68.114  1.00  0.00    -0.186 C  
BRANCH   6   7
HETATM    7  N   UNL     1      -9.340  15.673  67.414  1.00  0.00    -0.208 N  
HETATM    8  C   UNL     1     -10.596  16.206  67.424  1.00  0.00    -0.311 C  
HETATM    9  N   UNL     1     -11.518  15.227  67.205  1.00  0.00    -0.281 NA 
HETATM   10  O   UNL     1     -10.906  17.360  67.673  1.00  0.00    -0.338 OA 
HETATM   11  C   UNL     1     -10.945  13.903  67.142  1.00  0.00    -0.291 C  
HETATM   12  O   UNL     1      -8.493  13.524  67.444  1.00  0.00    -0.179 OA 
HETATM   13  C   UNL     1      -9.433  14.306  67.331  1.00  0.00    -0.211 C  
BRANCH  11  14
HETATM   14  C   UNL     1     -11.363  13.020  68.337  1.00  0.00    -0.326 A  
HETATM   15  C   UNL     1     -11.714  13.547  69.595  1.00  0.00    -0.378 A  
HETATM   16  C   UNL     1     -11.366  11.618  68.191  1.00  0.00    -0.358 A  
HETATM   17  C   UNL     1     -11.705  10.778  69.254  1.00  0.00    -0.374 A  
HETATM   18  C   UNL     1     -12.051  12.704  70.659  1.00  0.00    -0.315 A  
HETATM   19  C   UNL     1     -12.045  11.323  70.490  1.00  0.00    -0.481 A  
ENDBRANCH  11  14
BRANCH  11  20
HETATM   20  C   UNL     1     -11.320  13.336  65.764  1.00  0.00    -0.328 A  
HETATM   21  C   UNL     1     -12.985  12.471  64.206  1.00  0.00    -0.253 A  
HETATM   22  C   UNL     1     -11.981  12.060  63.333  1.00  0.00    -0.571 A  
HETATM   23  C   UNL     1     -10.646  12.277  63.661  1.00  0.00    -0.501 A  
HETATM   24  C   UNL     1     -10.318  12.901  64.866  1.00  0.00    -0.329 A  
HETATM   25  C   UNL     1     -12.661  13.100  65.410  1.00  0.00    -0.512 A  
ENDBRANCH  11  20
ENDBRANCH   6   7
ENDBRANCH   3   6
TORSDOF 4
ENDMDL
MODEL       28
REMARK 921   NORMALIZED FREE ENERGY PREDICTED BY IDOCK:   -6.36 KCAL/MOL
REMARK 922        TOTAL FREE ENERGY PREDICTED BY IDOCK:   -8.70 KCAL/MOL
REMARK 923 INTER-LIGAND FREE ENERGY PREDICTED BY IDOCK:   -7.99 KCAL/MOL
REMARK 924 INTRA-LIGAND FREE ENERGY PREDICTED BY IDOCK:   -0.70 KCAL/MOL
REMARK 927      BINDING AFFINITY PREDICTED BY RF-SCORE:    0.00 PKD
ROOT
HETATM    1  O   UNL     1     -12.588   6.561  71.830  1.00  0.00    -0.341 OA 
HETATM    2  P   UNL     1     -11.910   8.003  71.809  1.00  0.00    -0.337 P  
HETATM    3  O   UNL     1     -11.402   8.296  70.312  1.00  0.00    -0.234 OA 
HETATM    4  O   UNL     1     -10.899   8.157  72.896  1.00  0.00    -0.357 OA 
HETATM    5  O   UNL     1     -13.201   8.926  71.971  1.00  0.00    -0.351 OA 
ENDROOT
BRANCH   3   6
HETATM    6  C   UNL     1     -10.454   9.353  70.330  1.00  0.00    -0.256 C  
BRANCH   6   7
HETATM    7  N   UNL     1     -10.470  10.225  69.186  1.00  0.00    -0.209 N  
HETATM    8  C   UNL     1      -9.275  10.703  68.735  1.00  0.00    -0.180 C  
HETATM    9  N   UNL     1      -9.469  11.860  68.041  1.00  0.00    -0.191 NA 
HETATM   10  O   UNL     1      -8.165  10.251  68.965  1.00  0.00    -0.118 OA 
HETATM   11  C   UNL     1     -10.836  12.322  68.068  1.00  0.00    -0.220 C  
HETATM   12  O   UNL     1     -12.612  11.082  69.314  1.00  0.00    -0.361 OA 
HETATM   13  C   UNL     1     -11.453  11.144  68.913  1.00  0.00    -0.295 C  
BRANCH  11  14
HETATM   14  C   UNL     1     -11.003  13.630  68.869  1.00  0.00    -0.281 A  
HETATM   15  C   UNL     1     -12.159  13.931  69.615  1.00  0.00    -0.404 A  
HETATM   16  C   UNL     1      -9.976  14.596  68.835  1.00  0.00    -0.228 A  
HETATM   17  C   UNL     1     -10.097  15.809  69.517  1.00  0.00    -0.279 A  
HETATM   18  C   UNL     1     -12.279  15.147  70.296  1.00  0.00    -0.395 A  
HETATM   19  C   UNL     1     -11.251  16.085  70.245  1.00  0.00    -0.397 A  
ENDBRANCH  11  14
BRANCH  11  20
HETATM   20  C   UNL     1     -11.292  12.406  66.603  1.00  0.00    -0.394 A  
HETATM   21  C   UNL     1     -11.034  11.781  64.259  1.00  0.00    -0.419 A  
HETATM   22  C   UNL     1     -11.958  12.750  63.880  1.00  0.00    -0.554 A  
HETATM   23  C   UNL     1     -12.555  13.554  64.847  1.00  0.00    -0.392 A  
HETATM   24  C   UNL     1     -12.221  13.390  66.191  1.00  0.00    -0.471 A  
HETATM   25  C   UNL     1     -10.701  11.610  65.605  1.00  0.00    -0.330 A  
ENDBRANCH  11  20
ENDBRANCH   6   7
ENDBRANCH   3   6
TORSDOF 4
ENDMDL
MODEL       29
REMARK 921   NORMALIZED FREE ENERGY PREDICTED BY IDOCK:   -6.31 KCAL/MOL
REMARK 922        TOTAL FREE ENERGY PREDICTED BY IDOCK:   -8.64 KCAL/MOL
REMARK 923 INTER-LIGAND FREE ENERGY PREDICTED BY IDOCK:   -7.99 KCAL/MOL
REMARK 924 INTRA-LIGAND FREE ENERGY PREDICTED BY IDOCK:   -0.65 KCAL/MOL
REMARK 927      BINDING AFFINITY PREDICTED BY RF-SCORE:    0.00 PKD
ROOT
HETATM    1  O   UNL     1     -12.492   6.566  71.873  1.00  0.00    -0.347 OA 
HETATM    2  P   UNL     1     -11.844   8.022  71.862  1.00  0.00    -0.352 P  
HETATM    3  O   UNL     1     -11.321   8.328  70.373  1.00  0.00    -0.254 OA 
HETATM    4  O   UNL     1     -10.851   8.197  72.963  1.00  0.00    -0.331 OA 
HETATM    5  O   UNL     1     -13.157   8.918  72.007  1.00  0.00    -0.346 OA 
ENDROOT
BRANCH   3   6
HETATM    6  C   UNL     1     -10.396   9.404  70.405  1.00  0.00    -0.262 C  
BRANCH   6   7
HETATM    7  N   UNL     1     -10.323  10.199  69.207  1.00  0.00    -0.208 N  
HETATM    8  C   UNL     1      -9.104  10.696  68.850  1.00  0.00    -0.176 C  
HETATM    9  N   UNL     1      -9.264  11.796  68.062  1.00  0.00    -0.174 NA 
HETATM   10  O   UNL     1      -8.009  10.307  69.224  1.00  0.00    -0.123 OA 
HETATM   11  C   UNL     1     -10.642  12.201  67.916  1.00  0.00    -0.207 C  
HETATM   12  O   UNL     1     -12.494  10.971  69.056  1.00  0.00    -0.449 OA 
HETATM   13  C   UNL     1     -11.303  11.056  68.773  1.00  0.00    -0.283 C  
BRANCH  11  14
HETATM   14  C   UNL     1     -10.937  13.551  68.604  1.00  0.00    -0.289 A  
HETATM   15  C   UNL     1     -11.921  13.705  69.601  1.00  0.00    -0.402 A  
HETATM   16  C   UNL     1     -10.225  14.700  68.205  1.00  0.00    -0.227 A  
HETATM   17  C   UNL     1     -10.481  15.949  68.776  1.00  0.00    -0.237 A  
HETATM   18  C   UNL     1     -12.178  14.957  70.170  1.00  0.00    -0.387 A  
HETATM   19  C   UNL     1     -11.461  16.076  69.757  1.00  0.00    -0.318 A  
ENDBRANCH  11  14
BRANCH  11  20
HETATM   20  C   UNL     1     -10.943  12.171  66.410  1.00  0.00    -0.327 A  
HETATM   21  C   UNL     1     -12.432  12.626  64.532  1.00  0.00    -0.525 A  
HETATM   22  C   UNL     1     -11.613  11.891  63.681  1.00  0.00    -0.559 A  
HETATM   23  C   UNL     1     -10.460  11.290  64.177  1.00  0.00    -0.431 A  
HETATM   24  C   UNL     1     -10.132  11.421  65.527  1.00  0.00    -0.293 A  
HETATM   25  C   UNL     1     -12.105  12.765  65.883  1.00  0.00    -0.485 A  
ENDBRANCH  11  20
ENDBRANCH   6   7
ENDBRANCH   3   6
TORSDOF 4
ENDMDL
MODEL       30
REMARK 921   NORMALIZED FREE ENERGY PREDICTED BY IDOCK:   -6.31 KCAL/MOL
REMARK 922        TOTAL FREE ENERGY PREDICTED BY IDOCK:   -8.63 KCAL/MOL
REMARK 923 INTER-LIGAND FREE ENERGY PREDICTED BY IDOCK:   -8.01 KCAL/MOL
REMARK 924 INTRA-LIGAND FREE ENERGY PREDICTED BY IDOCK:   -0.62 KCAL/MOL
REMARK 927      BINDING AFFINITY PREDICTED BY RF-SCORE:    0.00 PKD
ROOT
HETATM    1  O   UNL     1     -10.358   8.587  66.485  1.00  0.00    -0.283 OA 
HETATM    2  P   UNL     1      -9.665   9.887  65.878  1.00  0.00    -0.283 P  
HETATM    3  O   UNL     1     -10.464  11.177  66.411  1.00  0.00    -0.244 OA 
HETATM    4  O   UNL     1      -9.486   9.782  64.400  1.00  0.00    -0.274 OA 
HETATM    5  O   UNL     1      -8.304   9.899  66.711  1.00  0.00    -0.123 OA 
ENDROOT
BRANCH   3   6
HETATM    6  C   UNL     1     -10.155  12.298  65.596  1.00  0.00    -0.252 C  
BRANCH   6   7
HETATM    7  N   UNL     1     -10.050  13.558  66.283  1.00  0.00    -0.291 N  
HETATM    8  C   UNL     1      -8.992  13.735  67.125  1.00  0.00    -0.235 C  
HETATM    9  N   UNL     1      -9.290  14.688  68.052  1.00  0.00    -0.194 NA 
HETATM   10  O   UNL     1      -7.949  13.101  67.142  1.00  0.00    -0.157 OA 
HETATM   11  C   UNL     1     -10.652  15.159  67.973  1.00  0.00    -0.258 C  
HETATM   12  O   UNL     1     -12.256  14.244  66.290  1.00  0.00    -0.436 OA 
HETATM   13  C   UNL     1     -11.115  14.295  66.739  1.00  0.00    -0.314 C  
BRANCH  11  14
HETATM   14  C   UNL     1     -11.494  14.742  69.197  1.00  0.00    -0.323 A  
HETATM   15  C   UNL     1     -11.566  13.415  69.664  1.00  0.00    -0.334 A  
HETATM   16  C   UNL     1     -12.261  15.714  69.871  1.00  0.00    -0.317 A  
HETATM   17  C   UNL     1     -13.063  15.378  70.964  1.00  0.00    -0.565 A  
HETATM   18  C   UNL     1     -12.372  13.079  70.756  1.00  0.00    -0.394 A  
HETATM   19  C   UNL     1     -13.120  14.058  71.404  1.00  0.00    -0.423 A  
ENDBRANCH  11  14
BRANCH  11  20
HETATM   20  C   UNL     1     -10.571  16.675  67.738  1.00  0.00    -0.342 A  
HETATM   21  C   UNL     1     -10.397  18.584  66.230  1.00  0.00    -0.459 A  
HETATM   22  C   UNL     1     -10.168  19.437  67.306  1.00  0.00    -0.525 A  
HETATM   23  C   UNL     1     -10.135  18.926  68.600  1.00  0.00    -0.447 A  
HETATM   24  C   UNL     1     -10.326  17.560  68.814  1.00  0.00    -0.358 A  
HETATM   25  C   UNL     1     -10.595  17.218  66.440  1.00  0.00    -0.179 A  
ENDBRANCH  11  20
ENDBRANCH   6   7
ENDBRANCH   3   6
TORSDOF 4
ENDMDL
MODEL       31
REMARK 921   NORMALIZED FREE ENERGY PREDICTED BY IDOCK:   -6.29 KCAL/MOL
REMARK 922        TOTAL FREE ENERGY PREDICTED BY IDOCK:   -8.61 KCAL/MOL
REMARK 923 INTER-LIGAND FREE ENERGY PREDICTED BY IDOCK:   -7.57 KCAL/MOL
REMARK 924 INTRA-LIGAND FREE ENERGY PREDICTED BY IDOCK:   -1.05 KCAL/MOL
REMARK 927      BINDING AFFINITY PREDICTED BY RF-SCORE:    0.00 PKD
ROOT
HETATM    1  O   UNL     1     -12.776  15.711  63.922  1.00  0.00    -0.697 OA 
HETATM    2  P   UNL     1     -12.204  14.339  64.494  1.00  0.00    -0.349 P  
HETATM    3  O   UNL     1     -10.820  14.648  65.253  1.00  0.00    -0.328 OA 
HETATM    4  O   UNL     1     -12.163  13.275  63.448  1.00  0.00    -0.664 OA 
HETATM    5  O   UNL     1     -13.244  14.067  65.673  1.00  0.00    -0.634 OA 
ENDROOT
BRANCH   3   6
HETATM    6  C   UNL     1     -10.086  13.445  65.415  1.00  0.00    -0.254 C  
BRANCH   6   7
HETATM    7  N   UNL     1     -10.254  12.776  66.678  1.00  0.00    -0.235 N  
HETATM    8  C   UNL     1      -9.254  12.897  67.597  1.00  0.00    -0.193 C  
HETATM    9  N   UNL     1      -9.294  11.849  68.468  1.00  0.00    -0.177 NA 
HETATM   10  O   UNL     1      -8.376  13.745  67.627  1.00  0.00    -0.155 OA 
HETATM   11  C   UNL     1     -10.284  10.856  68.124  1.00  0.00    -0.176 C  
HETATM   12  O   UNL     1     -11.724  11.092  66.096  1.00  0.00    -0.065 OA 
HETATM   13  C   UNL     1     -10.879  11.566  66.850  1.00  0.00    -0.284 C  
BRANCH  11  14
HETATM   14  C   UNL     1      -9.651   9.520  67.682  1.00  0.00    -0.163 A  
HETATM   15  C   UNL     1     -10.414   8.407  67.274  1.00  0.00    -0.373 A  
HETATM   16  C   UNL     1      -8.249   9.375  67.714  1.00  0.00    -0.114 A  
HETATM   17  C   UNL     1      -7.634   8.173  67.355  1.00  0.00    -0.101 A  
HETATM   18  C   UNL     1      -9.796   7.204  66.917  1.00  0.00    -0.271 A  
HETATM   19  C   UNL     1      -8.410   7.087  66.959  1.00  0.00    -0.121 A  
ENDBRANCH  11  14
BRANCH  11  20
HETATM   20  C   UNL     1     -11.225  10.749  69.333  1.00  0.00    -0.337 A  
HETATM   21  C   UNL     1     -12.840  11.750  70.863  1.00  0.00    -0.243 A  
HETATM   22  C   UNL     1     -12.763  10.641  71.700  1.00  0.00    -0.531 A  
HETATM   23  C   UNL     1     -11.923   9.582  71.370  1.00  0.00    -0.464 A  
HETATM   24  C   UNL     1     -11.157   9.637  70.205  1.00  0.00    -0.314 A  
HETATM   25  C   UNL     1     -12.079  11.808  69.693  1.00  0.00    -0.323 A  
ENDBRANCH  11  20
ENDBRANCH   6   7
ENDBRANCH   3   6
TORSDOF 4
ENDMDL
MODEL       32
REMARK 921   NORMALIZED FREE ENERGY PREDICTED BY IDOCK:   -6.29 KCAL/MOL
REMARK 922        TOTAL FREE ENERGY PREDICTED BY IDOCK:   -8.61 KCAL/MOL
REMARK 923 INTER-LIGAND FREE ENERGY PREDICTED BY IDOCK:   -7.76 KCAL/MOL
REMARK 924 INTRA-LIGAND FREE ENERGY PREDICTED BY IDOCK:   -0.85 KCAL/MOL
REMARK 927      BINDING AFFINITY PREDICTED BY RF-SCORE:    0.00 PKD
ROOT
HETATM    1  O   UNL     1     -12.989  16.361  74.154  1.00  0.00    -0.690 OA 
HETATM    2  P   UNL     1     -13.041  15.559  72.778  1.00  0.00    -0.587 P  
HETATM    3  O   UNL     1     -11.853  16.097  71.837  1.00  0.00    -0.480 OA 
HETATM    4  O   UNL     1     -14.411  15.562  72.185  1.00  0.00    -0.548 OA 
HETATM    5  O   UNL     1     -12.535  14.126  73.265  1.00  0.00    -0.199 OA 
ENDROOT
BRANCH   3   6
HETATM    6  C   UNL     1     -12.105  15.722  70.491  1.00  0.00    -0.374 C  
BRANCH   6   7
HETATM    7  N   UNL     1     -10.977  15.196  69.769  1.00  0.00    -0.266 N  
HETATM    8  C   UNL     1     -10.168  16.083  69.123  1.00  0.00    -0.242 C  
HETATM    9  N   UNL     1      -9.508  15.457  68.109  1.00  0.00    -0.201 NA 
HETATM   10  O   UNL     1     -10.078  17.284  69.326  1.00  0.00    -0.267 OA 
HETATM   11  C   UNL     1      -9.919  14.086  67.918  1.00  0.00    -0.237 C  
HETATM   12  O   UNL     1     -11.696  13.045  69.332  1.00  0.00    -0.295 OA 
HETATM   13  C   UNL     1     -10.965  14.002  69.093  1.00  0.00    -0.230 C  
BRANCH  11  14
HETATM   14  C   UNL     1     -10.669  13.873  66.586  1.00  0.00    -0.281 A  
HETATM   15  C   UNL     1     -10.057  13.328  65.440  1.00  0.00    -0.267 A  
HETATM   16  C   UNL     1     -12.018  14.269  66.482  1.00  0.00    -0.448 A  
HETATM   17  C   UNL     1     -12.727  14.127  65.287  1.00  0.00    -0.425 A  
HETATM   18  C   UNL     1     -10.768  13.188  64.244  1.00  0.00    -0.431 A  
HETATM   19  C   UNL     1     -12.099  13.588  64.167  1.00  0.00    -0.488 A  
ENDBRANCH  11  14
BRANCH  11  20
HETATM   20  C   UNL     1      -8.654  13.229  68.085  1.00  0.00    -0.177 A  
HETATM   21  C   UNL     1      -6.250  12.917  67.817  1.00  0.00    -0.144 A  
HETATM   22  C   UNL     1      -6.369  11.572  68.151  1.00  0.00    -0.046 A  
HETATM   23  C   UNL     1      -7.619  11.040  68.452  1.00  0.00    -0.108 A  
HETATM   24  C   UNL     1      -8.750  11.857  68.412  1.00  0.00    -0.157 A  
HETATM   25  C   UNL     1      -7.379  13.739  67.781  1.00  0.00    -0.170 A  
ENDBRANCH  11  20
ENDBRANCH   6   7
ENDBRANCH   3   6
TORSDOF 4
ENDMDL
MODEL       33
REMARK 921   NORMALIZED FREE ENERGY PREDICTED BY IDOCK:   -6.24 KCAL/MOL
REMARK 922        TOTAL FREE ENERGY PREDICTED BY IDOCK:   -8.55 KCAL/MOL
REMARK 923 INTER-LIGAND FREE ENERGY PREDICTED BY IDOCK:   -7.85 KCAL/MOL
REMARK 924 INTRA-LIGAND FREE ENERGY PREDICTED BY IDOCK:   -0.70 KCAL/MOL
REMARK 927      BINDING AFFINITY PREDICTED BY RF-SCORE:    0.00 PKD
ROOT
HETATM    1  O   UNL     1     -10.602   8.233  72.943  1.00  0.00    -0.320 OA 
HETATM    2  P   UNL     1      -9.733   8.390  71.617  1.00  0.00    -0.273 P  
HETATM    3  O   UNL     1     -10.290   9.657  70.799  1.00  0.00    -0.291 OA 
HETATM    4  O   UNL     1      -9.630   7.106  70.864  1.00  0.00    -0.167 OA 
HETATM    5  O   UNL     1      -8.356   8.903  72.241  1.00  0.00    -0.384 OA 
ENDROOT
BRANCH   3   6
HETATM    6  C   UNL     1      -9.836   9.592  69.455  1.00  0.00    -0.206 C  
BRANCH   6   7
HETATM    7  N   UNL     1     -10.003  10.794  68.682  1.00  0.00    -0.174 N  
HETATM    8  C   UNL     1      -8.941  11.645  68.595  1.00  0.00    -0.084 C  
HETATM    9  N   UNL     1      -9.376  12.905  68.311  1.00  0.00    -0.210 NA 
HETATM   10  O   UNL     1      -7.768  11.387  68.817  1.00  0.00    -0.132 OA 
HETATM   11  C   UNL     1     -10.815  13.024  68.296  1.00  0.00    -0.246 C  
HETATM   12  O   UNL     1     -12.295  11.070  68.782  1.00  0.00    -0.533 OA 
HETATM   13  C   UNL     1     -11.166  11.518  68.596  1.00  0.00    -0.248 C  
BRANCH  11  14
HETATM   14  C   UNL     1     -11.349  13.887  69.458  1.00  0.00    -0.293 A  
HETATM   15  C   UNL     1     -12.239  13.394  70.433  1.00  0.00    -0.415 A  
HETATM   16  C   UNL     1     -10.969  15.242  69.545  1.00  0.00    -0.280 A  
HETATM   17  C   UNL     1     -11.453  16.069  70.560  1.00  0.00    -0.409 A  
HETATM   18  C   UNL     1     -12.725  14.225  71.448  1.00  0.00    -0.424 A  
HETATM   19  C   UNL     1     -12.335  15.560  71.510  1.00  0.00    -0.465 A  
ENDBRANCH  11  14
BRANCH  11  20
HETATM   20  C   UNL     1     -11.190  13.533  66.896  1.00  0.00    -0.329 A  
HETATM   21  C   UNL     1     -10.627  14.744  64.854  1.00  0.00    -0.431 A  
HETATM   22  C   UNL     1     -11.952  14.688  64.434  1.00  0.00    -0.454 A  
HETATM   23  C   UNL     1     -12.906  14.063  65.231  1.00  0.00    -0.418 A  
HETATM   24  C   UNL     1     -12.532  13.499  66.451  1.00  0.00    -0.349 A  
HETATM   25  C   UNL     1     -10.247  14.175  66.072  1.00  0.00    -0.318 A  
ENDBRANCH  11  20
ENDBRANCH   6   7
ENDBRANCH   3   6
TORSDOF 4
ENDMDL
MODEL       34
REMARK 921   NORMALIZED FREE ENERGY PREDICTED BY IDOCK:   -6.17 KCAL/MOL
REMARK 922        TOTAL FREE ENERGY PREDICTED BY IDOCK:   -8.47 KCAL/MOL
REMARK 923 INTER-LIGAND FREE ENERGY PREDICTED BY IDOCK:   -7.87 KCAL/MOL
REMARK 924 INTRA-LIGAND FREE ENERGY PREDICTED BY IDOCK:   -0.60 KCAL/MOL
REMARK 927      BINDING AFFINITY PREDICTED BY RF-SCORE:    0.00 PKD
ROOT
HETATM    1  O   UNL     1     -12.787  14.257  64.258  1.00  0.00    -0.598 OA 
HETATM    2  P   UNL     1     -11.711  13.142  64.633  1.00  0.00    -0.413 P  
HETATM    3  O   UNL     1     -12.252  12.333  65.913  1.00  0.00    -0.634 OA 
HETATM    4  O   UNL     1     -10.336  13.711  64.740  1.00  0.00    -0.400 OA 
HETATM    5  O   UNL     1     -11.915  12.130  63.417  1.00  0.00    -0.480 OA 
ENDROOT
BRANCH   3   6
HETATM    6  C   UNL     1     -11.179  11.630  66.520  1.00  0.00    -0.294 C  
BRANCH   6   7
HETATM    7  N   UNL     1     -11.431  11.131  67.846  1.00  0.00    -0.297 N  
HETATM    8  C   UNL     1     -11.432  12.029  68.872  1.00  0.00    -0.301 C  
HETATM    9  N   UNL     1     -11.162  11.393  70.047  1.00  0.00    -0.160 NA 
HETATM   10  O   UNL     1     -11.562  13.240  68.793  1.00  0.00    -0.267 OA 
HETATM   11  C   UNL     1     -10.838   9.996  69.881  1.00  0.00    -0.285 C  
HETATM   12  O   UNL     1     -10.770   8.929  67.622  1.00  0.00    -0.244 OA 
HETATM   13  C   UNL     1     -11.017   9.910  68.317  1.00  0.00    -0.196 C  
BRANCH  11  14
HETATM   14  C   UNL     1      -9.364   9.687  70.217  1.00  0.00    -0.292 A  
HETATM   15  C   UNL     1      -8.978   8.867  71.296  1.00  0.00    -0.312 A  
HETATM   16  C   UNL     1      -8.341  10.271  69.441  1.00  0.00    -0.169 A  
HETATM   17  C   UNL     1      -6.993  10.047  69.728  1.00  0.00    -0.107 A  
HETATM   18  C   UNL     1      -7.627   8.646  71.583  1.00  0.00    -0.139 A  
HETATM   19  C   UNL     1      -6.637   9.236  70.803  1.00  0.00    -0.084 A  
ENDBRANCH  11  14
BRANCH  11  20
HETATM   20  C   UNL     1     -11.862   9.213  70.716  1.00  0.00    -0.280 A  
HETATM   21  C   UNL     1     -12.894   7.106  71.384  1.00  0.00    -0.431 A  
HETATM   22  C   UNL     1     -13.904   7.791  72.052  1.00  0.00    -0.300 A  
HETATM   23  C   UNL     1     -13.909   9.183  72.060  1.00  0.00    -0.480 A  
HETATM   24  C   UNL     1     -12.905   9.887  71.394  1.00  0.00    -0.505 A  
HETATM   25  C   UNL     1     -11.884   7.807  70.720  1.00  0.00    -0.205 A  
ENDBRANCH  11  20
ENDBRANCH   6   7
ENDBRANCH   3   6
TORSDOF 4
ENDMDL
MODEL       35
REMARK 921   NORMALIZED FREE ENERGY PREDICTED BY IDOCK:   -6.17 KCAL/MOL
REMARK 922        TOTAL FREE ENERGY PREDICTED BY IDOCK:   -8.46 KCAL/MOL
REMARK 923 INTER-LIGAND FREE ENERGY PREDICTED BY IDOCK:   -7.93 KCAL/MOL
REMARK 924 INTRA-LIGAND FREE ENERGY PREDICTED BY IDOCK:   -0.52 KCAL/MOL
REMARK 927      BINDING AFFINITY PREDICTED BY RF-SCORE:    0.00 PKD
ROOT
HETATM    1  O   UNL     1     -13.400  11.628  63.217  1.00  0.00    -0.445 OA 
HETATM    2  P   UNL     1     -11.991  12.118  63.779  1.00  0.00    -0.514 P  
HETATM    3  O   UNL     1     -11.948  11.818  65.358  1.00  0.00    -0.294 OA 
HETATM    4  O   UNL     1     -11.683  13.517  63.360  1.00  0.00    -0.281 OA 
HETATM    5  O   UNL     1     -11.033  11.010  63.145  1.00  0.00    -0.072 OA 
ENDROOT
BRANCH   3   6
HETATM    6  C   UNL     1     -10.918  12.587  65.960  1.00  0.00    -0.283 C  
BRANCH   6   7
HETATM    7  N   UNL     1     -11.299  13.328  67.134  1.00  0.00    -0.303 N  
HETATM    8  C   UNL     1     -12.154  14.378  66.971  1.00  0.00    -0.342 C  
HETATM    9  N   UNL     1     -12.010  15.258  68.001  1.00  0.00    -0.152 NA 
HETATM   10  O   UNL     1     -12.892  14.588  66.022  1.00  0.00    -0.203 OA 
HETATM   11  C   UNL     1     -10.937  14.915  68.903  1.00  0.00    -0.251 C  
HETATM   12  O   UNL     1      -9.506  12.901  68.527  1.00  0.00    -0.190 OA 
HETATM   13  C   UNL     1     -10.477  13.580  68.204  1.00  0.00    -0.244 C  
BRANCH  11  14
HETATM   14  C   UNL     1      -9.768  15.921  68.840  1.00  0.00    -0.230 A  
HETATM   15  C   UNL     1      -8.455  15.597  69.237  1.00  0.00    -0.265 A  
HETATM   16  C   UNL     1     -10.013  17.239  68.403  1.00  0.00    -0.322 A  
HETATM   17  C   UNL     1      -8.993  18.192  68.361  1.00  0.00    -0.305 A  
HETATM   18  C   UNL     1      -7.436  16.554  69.196  1.00  0.00    -0.218 A  
HETATM   19  C   UNL     1      -7.704  17.849  68.762  1.00  0.00    -0.263 A  
ENDBRANCH  11  14
BRANCH  11  20
HETATM   20  C   UNL     1     -11.574  14.760  70.292  1.00  0.00    -0.333 A  
HETATM   21  C   UNL     1     -13.143  13.655  71.798  1.00  0.00    -0.468 A  
HETATM   22  C   UNL     1     -12.930  14.632  72.766  1.00  0.00    -0.564 A  
HETATM   23  C   UNL     1     -12.048  15.678  72.513  1.00  0.00    -0.563 A  
HETATM   24  C   UNL     1     -11.383  15.746  71.288  1.00  0.00    -0.437 A  
HETATM   25  C   UNL     1     -12.475  13.717  70.573  1.00  0.00    -0.394 A  
ENDBRANCH  11  20
ENDBRANCH   6   7
ENDBRANCH   3   6
TORSDOF 4
ENDMDL
MODEL       36
REMARK 921   NORMALIZED FREE ENERGY PREDICTED BY IDOCK:   -6.16 KCAL/MOL
REMARK 922        TOTAL FREE ENERGY PREDICTED BY IDOCK:   -8.45 KCAL/MOL
REMARK 923 INTER-LIGAND FREE ENERGY PREDICTED BY IDOCK:   -7.55 KCAL/MOL
REMARK 924 INTRA-LIGAND FREE ENERGY PREDICTED BY IDOCK:   -0.90 KCAL/MOL
REMARK 927      BINDING AFFINITY PREDICTED BY RF-SCORE:    0.00 PKD
ROOT
HETATM    1  O   UNL     1      -7.465  18.290  65.332  1.00  0.00    -0.502 OA 
HETATM    2  P   UNL     1      -7.196  17.470  66.671  1.00  0.00    -0.290 P  
HETATM    3  O   UNL     1      -8.159  16.182  66.673  1.00  0.00    -0.237 OA 
HETATM    4  O   UNL     1      -7.254  18.344  67.879  1.00  0.00    -0.222 OA 
HETATM    5  O   UNL     1      -5.750  16.875  66.354  1.00  0.00    -0.330 OA 
ENDROOT
BRANCH   3   6
HETATM    6  C   UNL     1      -8.254  15.661  67.990  1.00  0.00    -0.144 C  
BRANCH   6   7
HETATM    7  N   UNL     1      -8.753  14.315  68.094  1.00  0.00    -0.167 N  
HETATM    8  C   UNL     1      -7.945  13.304  67.662  1.00  0.00    -0.176 C  
HETATM    9  N   UNL     1      -8.697  12.216  67.336  1.00  0.00    -0.169 NA 
HETATM   10  O   UNL     1      -6.737  13.347  67.491  1.00  0.00    -0.163 OA 
HETATM   11  C   UNL     1     -10.118  12.454  67.420  1.00  0.00    -0.201 C  
HETATM   12  O   UNL     1     -11.033  14.685  68.077  1.00  0.00    -0.254 OA 
HETATM   13  C   UNL     1     -10.064  13.947  67.921  1.00  0.00    -0.242 C  
BRANCH  11  14
HETATM   14  C   UNL     1     -10.803  12.432  66.038  1.00  0.00    -0.308 A  
HETATM   15  C   UNL     1     -12.153  12.789  65.844  1.00  0.00    -0.485 A  
HETATM   16  C   UNL     1     -10.072  12.005  64.911  1.00  0.00    -0.289 A  
HETATM   17  C   UNL     1     -10.660  11.937  63.646  1.00  0.00    -0.500 A  
HETATM   18  C   UNL     1     -12.741  12.718  64.577  1.00  0.00    -0.405 A  
HETATM   19  C   UNL     1     -11.997  12.291  63.481  1.00  0.00    -0.625 A  
ENDBRANCH  11  14
BRANCH  11  20
HETATM   20  C   UNL     1     -10.669  11.430  68.424  1.00  0.00    -0.237 A  
HETATM   21  C   UNL     1     -12.078  10.876  70.336  1.00  0.00    -0.453 A  
HETATM   22  C   UNL     1     -11.492   9.617  70.427  1.00  0.00    -0.325 A  
HETATM   23  C   UNL     1     -10.495   9.251  69.528  1.00  0.00    -0.229 A  
HETATM   24  C   UNL     1     -10.081  10.149  68.543  1.00  0.00    -0.186 A  
HETATM   25  C   UNL     1     -11.671  11.776  69.348  1.00  0.00    -0.405 A  
ENDBRANCH  11  20
ENDBRANCH   6   7
ENDBRANCH   3   6
TORSDOF 4
ENDMDL
MODEL       37
REMARK 921   NORMALIZED FREE ENERGY PREDICTED BY IDOCK:   -6.16 KCAL/MOL
REMARK 922        TOTAL FREE ENERGY PREDICTED BY IDOCK:   -8.45 KCAL/MOL
REMARK 923 INTER-LIGAND FREE ENERGY PREDICTED BY IDOCK:   -7.77 KCAL/MOL
REMARK 924 INTRA-LIGAND FREE ENERGY PREDICTED BY IDOCK:   -0.68 KCAL/MOL
REMARK 927      BINDING AFFINITY PREDICTED BY RF-SCORE:    0.00 PKD
ROOT
HETATM    1  O   UNL     1     -10.129  20.355  68.106  1.00  0.00    -0.348 OA 
HETATM    2  P   UNL     1      -9.867  19.191  67.049  1.00  0.00    -0.392 P  
HETATM    3  O   UNL     1     -10.814  17.948  67.425  1.00  0.00    -0.339 OA 
HETATM    4  O   UNL     1      -8.412  18.895  66.898  1.00  0.00    -0.269 OA 
HETATM    5  O   UNL     1     -10.551  19.825  65.754  1.00  0.00    -0.523 OA 
ENDROOT
BRANCH   3   6
HETATM    6  C   UNL     1     -10.335  16.774  66.787  1.00  0.00    -0.293 C  
BRANCH   6   7
HETATM    7  N   UNL     1     -10.341  15.580  67.591  1.00  0.00    -0.263 N  
HETATM    8  C   UNL     1      -9.173  15.214  68.191  1.00  0.00    -0.184 C  
HETATM    9  N   UNL     1      -9.184  13.877  68.453  1.00  0.00    -0.203 NA 
HETATM   10  O   UNL     1      -8.199  15.919  68.404  1.00  0.00    -0.151 OA 
HETATM   11  C   UNL     1     -10.348  13.201  67.932  1.00  0.00    -0.231 C  
HETATM   12  O   UNL     1     -12.113  14.428  66.658  1.00  0.00    -0.419 OA 
HETATM   13  C   UNL     1     -11.079  14.455  67.320  1.00  0.00    -0.311 C  
BRANCH  11  14
HETATM   14  C   UNL     1     -10.004  12.233  66.780  1.00  0.00    -0.217 A  
HETATM   15  C   UNL     1      -8.773  11.553  66.691  1.00  0.00    -0.182 A  
HETATM   16  C   UNL     1     -10.938  12.034  65.743  1.00  0.00    -0.351 A  
HETATM   17  C   UNL     1     -10.656  11.193  64.663  1.00  0.00    -0.386 A  
HETATM   18  C   UNL     1      -8.492  10.713  65.608  1.00  0.00    -0.180 A  
HETATM   19  C   UNL     1      -9.431  10.535  64.596  1.00  0.00    -0.316 A  
ENDBRANCH  11  14
BRANCH  11  20
HETATM   20  C   UNL     1     -11.040  12.543  69.136  1.00  0.00    -0.254 A  
HETATM   21  C   UNL     1     -11.653  10.553  70.407  1.00  0.00    -0.430 A  
HETATM   22  C   UNL     1     -12.516  11.304  71.200  1.00  0.00    -0.479 A  
HETATM   23  C   UNL     1     -12.655  12.670  70.973  1.00  0.00    -0.354 A  
HETATM   24  C   UNL     1     -11.931  13.282  69.948  1.00  0.00    -0.400 A  
HETATM   25  C   UNL     1     -10.923  11.163  69.384  1.00  0.00    -0.298 A  
ENDBRANCH  11  20
ENDBRANCH   6   7
ENDBRANCH   3   6
TORSDOF 4
ENDMDL
MODEL       38
REMARK 921   NORMALIZED FREE ENERGY PREDICTED BY IDOCK:   -6.15 KCAL/MOL
REMARK 922        TOTAL FREE ENERGY PREDICTED BY IDOCK:   -8.45 KCAL/MOL
REMARK 923 INTER-LIGAND FREE ENERGY PREDICTED BY IDOCK:   -7.59 KCAL/MOL
REMARK 924 INTRA-LIGAND FREE ENERGY PREDICTED BY IDOCK:   -0.85 KCAL/MOL
REMARK 927      BINDING AFFINITY PREDICTED BY RF-SCORE:    0.00 PKD
ROOT
HETATM    1  O   UNL     1      -9.667   8.887  65.888  1.00  0.00    -0.255 OA 
HETATM    2  P   UNL     1      -9.579  10.399  65.394  1.00  0.00    -0.295 P  
HETATM    3  O   UNL     1      -9.500  11.347  66.691  1.00  0.00    -0.181 OA 
HETATM    4  O   UNL     1     -10.645  10.722  64.400  1.00  0.00    -0.347 OA 
HETATM    5  O   UNL     1      -8.097  10.419  64.804  1.00  0.00    -0.160 OA 
ENDROOT
BRANCH   3   6
HETATM    6  C   UNL     1      -9.828  12.679  66.327  1.00  0.00    -0.262 C  
BRANCH   6   7
HETATM    7  N   UNL     1     -10.619  13.410  67.282  1.00  0.00    -0.254 N  
HETATM    8  C   UNL     1     -11.849  13.845  66.886  1.00  0.00    -0.423 C  
HETATM    9  N   UNL     1     -12.232  14.909  67.646  1.00  0.00    -0.028 NA 
HETATM   10  O   UNL     1     -12.508  13.437  65.943  1.00  0.00    -0.439 OA 
HETATM   11  C   UNL     1     -11.212  15.354  68.565  1.00  0.00    -0.318 C  
HETATM   12  O   UNL     1      -8.973  14.248  68.669  1.00  0.00    -0.189 OA 
HETATM   13  C   UNL     1     -10.115  14.277  68.219  1.00  0.00    -0.238 C  
BRANCH  11  14
HETATM   14  C   UNL     1     -10.654  16.746  68.201  1.00  0.00    -0.350 A  
HETATM   15  C   UNL     1     -10.204  17.669  69.165  1.00  0.00    -0.238 A  
HETATM   16  C   UNL     1     -10.619  17.144  66.848  1.00  0.00    -0.209 A  
HETATM   17  C   UNL     1     -10.154  18.407  66.474  1.00  0.00    -0.406 A  
HETATM   18  C   UNL     1      -9.741  18.934  68.788  1.00  0.00    -0.454 A  
HETATM   19  C   UNL     1      -9.718  19.303  67.446  1.00  0.00    -0.405 A  
ENDBRANCH  11  14
BRANCH  11  20
HETATM   20  C   UNL     1     -11.825  15.258  69.971  1.00  0.00    -0.365 A  
HETATM   21  C   UNL     1     -13.761  15.329  71.452  1.00  0.00    -0.602 A  
HETATM   22  C   UNL     1     -12.930  15.337  72.568  1.00  0.00    -0.488 A  
HETATM   23  C   UNL     1     -11.549  15.309  72.403  1.00  0.00    -0.515 A  
HETATM   24  C   UNL     1     -11.001  15.278  71.120  1.00  0.00    -0.249 A  
HETATM   25  C   UNL     1     -13.218  15.292  70.166  1.00  0.00     0.078 A  
ENDBRANCH  11  20
ENDBRANCH   6   7
ENDBRANCH   3   6
TORSDOF 4
ENDMDL
MODEL       39
REMARK 921   NORMALIZED FREE ENERGY PREDICTED BY IDOCK:   -6.10 KCAL/MOL
REMARK 922        TOTAL FREE ENERGY PREDICTED BY IDOCK:   -8.38 KCAL/MOL
REMARK 923 INTER-LIGAND FREE ENERGY PREDICTED BY IDOCK:   -7.29 KCAL/MOL
REMARK 924 INTRA-LIGAND FREE ENERGY PREDICTED BY IDOCK:   -1.09 KCAL/MOL
REMARK 927      BINDING AFFINITY PREDICTED BY RF-SCORE:    0.00 PKD
ROOT
HETATM    1  O   UNL     1     -11.587  15.930  70.542  1.00  0.00    -0.332 OA 
HETATM    2  P   UNL     1     -10.665  15.789  69.250  1.00  0.00    -0.300 P  
HETATM    3  O   UNL     1     -11.441  14.879  68.176  1.00  0.00    -0.304 OA 
HETATM    4  O   UNL     1      -9.277  15.365  69.601  1.00  0.00    -0.264 OA 
HETATM    5  O   UNL     1     -10.775  17.269  68.661  1.00  0.00    -0.340 OA 
ENDROOT
BRANCH   3   6
HETATM    6  C   UNL     1     -10.521  14.396  67.208  1.00  0.00    -0.269 C  
BRANCH   6   7
HETATM    7  N   UNL     1     -10.485  12.967  67.041  1.00  0.00    -0.246 N  
HETATM    8  C   UNL     1     -11.603  12.358  66.554  1.00  0.00    -0.387 C  
HETATM    9  N   UNL     1     -11.620  11.049  66.931  1.00  0.00    -0.311 NA 
HETATM   10  O   UNL     1     -12.522  12.880  65.942  1.00  0.00    -0.527 OA 
HETATM   11  C   UNL     1     -10.540  10.695  67.822  1.00  0.00    -0.236 C  
HETATM   12  O   UNL     1      -8.860  12.384  68.575  1.00  0.00    -0.151 OA 
HETATM   13  C   UNL     1      -9.822  12.096  67.869  1.00  0.00    -0.199 C  
BRANCH  11  14
HETATM   14  C   UNL     1     -11.034  10.356  69.244  1.00  0.00    -0.287 A  
HETATM   15  C   UNL     1     -10.308   9.540  70.135  1.00  0.00    -0.300 A  
HETATM   16  C   UNL     1     -12.283  10.847  69.677  1.00  0.00    -0.354 A  
HETATM   17  C   UNL     1     -12.785  10.539  70.944  1.00  0.00    -0.495 A  
HETATM   18  C   UNL     1     -10.814   9.231  71.402  1.00  0.00    -0.434 A  
HETATM   19  C   UNL     1     -12.050   9.728  71.804  1.00  0.00    -0.425 A  
ENDBRANCH  11  14
BRANCH  11  20
HETATM   20  C   UNL     1      -9.762   9.566  67.129  1.00  0.00    -0.221 A  
HETATM   21  C   UNL     1      -9.573   7.239  66.423  1.00  0.00    -0.169 A  
HETATM   22  C   UNL     1      -8.237   7.430  66.085  1.00  0.00    -0.130 A  
HETATM   23  C   UNL     1      -7.649   8.679  66.264  1.00  0.00    -0.094 A  
HETATM   24  C   UNL     1      -8.400   9.733  66.787  1.00  0.00    -0.124 A  
HETATM   25  C   UNL     1     -10.330   8.292  66.941  1.00  0.00    -0.391 A  
ENDBRANCH  11  20
ENDBRANCH   6   7
ENDBRANCH   3   6
TORSDOF 4
ENDMDL
MODEL       40
REMARK 921   NORMALIZED FREE ENERGY PREDICTED BY IDOCK:   -6.07 KCAL/MOL
REMARK 922        TOTAL FREE ENERGY PREDICTED BY IDOCK:   -8.34 KCAL/MOL
REMARK 923 INTER-LIGAND FREE ENERGY PREDICTED BY IDOCK:   -7.70 KCAL/MOL
REMARK 924 INTRA-LIGAND FREE ENERGY PREDICTED BY IDOCK:   -0.64 KCAL/MOL
REMARK 927      BINDING AFFINITY PREDICTED BY RF-SCORE:    0.00 PKD
ROOT
HETATM    1  O   UNL     1      -8.386  19.433  66.693  1.00  0.00    -0.280 OA 
HETATM    2  P   UNL     1      -9.122  18.657  67.874  1.00  0.00    -0.308 P  
HETATM    3  O   UNL     1      -8.462  17.197  68.003  1.00  0.00    -0.208 OA 
HETATM    4  O   UNL     1     -10.607  18.704  67.730  1.00  0.00    -0.406 OA 
HETATM    5  O   UNL     1      -8.554  19.455  69.134  1.00  0.00    -0.301 OA 
ENDROOT
BRANCH   3   6
HETATM    6  C   UNL     1      -9.330  16.346  68.738  1.00  0.00    -0.245 C  
BRANCH   6   7
HETATM    7  N   UNL     1     -10.070  15.388  67.959  1.00  0.00    -0.225 N  
HETATM    8  C   UNL     1     -11.405  15.267  68.206  1.00  0.00    -0.336 C  
HETATM    9  N   UNL     1     -11.841  14.037  67.812  1.00  0.00    -0.369 NA 
HETATM   10  O   UNL     1     -12.128  16.072  68.771  1.00  0.00    -0.255 OA 
HETATM   11  C   UNL     1     -10.778  13.170  67.361  1.00  0.00    -0.253 C  
HETATM   12  O   UNL     1      -8.393  13.916  67.360  1.00  0.00    -0.178 OA 
HETATM   13  C   UNL     1      -9.580  14.180  67.530  1.00  0.00    -0.223 C  
BRANCH  11  14
HETATM   14  C   UNL     1     -10.544  11.978  68.313  1.00  0.00    -0.233 A  
HETATM   15  C   UNL     1     -11.558  11.431  69.123  1.00  0.00    -0.381 A  
HETATM   16  C   UNL     1      -9.253  11.420  68.416  1.00  0.00    -0.183 A  
HETATM   17  C   UNL     1      -8.986  10.362  69.288  1.00  0.00    -0.176 A  
HETATM   18  C   UNL     1     -11.289  10.374  69.997  1.00  0.00    -0.384 A  
HETATM   19  C   UNL     1     -10.005   9.841  70.081  1.00  0.00    -0.315 A  
ENDBRANCH  11  14
BRANCH  11  20
HETATM   20  C   UNL     1     -11.126  12.777  65.917  1.00  0.00    -0.318 A  
HETATM   21  C   UNL     1     -12.690  12.733  64.046  1.00  0.00    -0.297 A  
HETATM   22  C   UNL     1     -11.871  11.843  63.358  1.00  0.00    -0.512 A  
HETATM   23  C   UNL     1     -10.681  11.410  63.935  1.00  0.00    -0.462 A  
HETATM   24  C   UNL     1     -10.315  11.865  65.202  1.00  0.00    -0.318 A  
HETATM   25  C   UNL     1     -12.326  13.195  65.313  1.00  0.00    -0.532 A  
ENDBRANCH  11  20
ENDBRANCH   6   7
ENDBRANCH   3   6
TORSDOF 4
ENDMDL
MODEL       41
REMARK 921   NORMALIZED FREE ENERGY PREDICTED BY IDOCK:   -6.07 KCAL/MOL
REMARK 922        TOTAL FREE ENERGY PREDICTED BY IDOCK:   -8.34 KCAL/MOL
REMARK 923 INTER-LIGAND FREE ENERGY PREDICTED BY IDOCK:   -7.62 KCAL/MOL
REMARK 924 INTRA-LIGAND FREE ENERGY PREDICTED BY IDOCK:   -0.72 KCAL/MOL
REMARK 927      BINDING AFFINITY PREDICTED BY RF-SCORE:    0.00 PKD
ROOT
HETATM    1  O   UNL     1     -10.597  16.624  69.797  1.00  0.00    -0.302 OA 
HETATM    2  P   UNL     1     -10.358  16.737  68.226  1.00  0.00    -0.358 P  
HETATM    3  O   UNL     1     -11.357  15.713  67.491  1.00  0.00    -0.300 OA 
HETATM    4  O   UNL     1      -8.912  16.621  67.874  1.00  0.00    -0.211 OA 
HETATM    5  O   UNL     1     -10.994  18.173  67.945  1.00  0.00    -0.298 OA 
ENDROOT
BRANCH   3   6
HETATM    6  C   UNL     1     -10.909  15.481  66.164  1.00  0.00    -0.295 C  
BRANCH   6   7
HETATM    7  N   UNL     1     -10.848  14.102  65.759  1.00  0.00    -0.290 N  
HETATM    8  C   UNL     1     -12.028  13.436  65.597  1.00  0.00    -0.401 C  
HETATM    9  N   UNL     1     -11.827  12.095  65.733  1.00  0.00    -0.513 NA 
HETATM   10  O   UNL     1     -13.136  13.924  65.441  1.00  0.00    -0.752 OA 
HETATM   11  C   UNL     1     -10.478  11.754  66.120  1.00  0.00    -0.245 C  
HETATM   12  O   UNL     1      -8.746  13.512  66.511  1.00  0.00    -0.069 OA 
HETATM   13  C   UNL     1      -9.879  13.211  66.147  1.00  0.00    -0.280 C  
BRANCH  11  14
HETATM   14  C   UNL     1     -10.401  11.173  67.547  1.00  0.00    -0.228 A  
HETATM   15  C   UNL     1      -9.189  10.797  68.159  1.00  0.00    -0.151 A  
HETATM   16  C   UNL     1     -11.591  10.968  68.275  1.00  0.00    -0.354 A  
HETATM   17  C   UNL     1     -11.573  10.414  69.557  1.00  0.00    -0.288 A  
HETATM   18  C   UNL     1      -9.173  10.240  69.442  1.00  0.00    -0.206 A  
HETATM   19  C   UNL     1     -10.362  10.047  70.138  1.00  0.00    -0.321 A  
ENDBRANCH  11  14
BRANCH  11  20
HETATM   20  C   UNL     1      -9.936  10.826  65.021  1.00  0.00    -0.361 A  
HETATM   21  C   UNL     1      -8.611   8.899  64.332  1.00  0.00    -0.140 A  
HETATM   22  C   UNL     1      -8.732   9.270  62.996  1.00  0.00    -0.203 A  
HETATM   23  C   UNL     1      -9.447  10.414  62.657  1.00  0.00    -0.324 A  
HETATM   24  C   UNL     1     -10.037  11.189  63.657  1.00  0.00    -0.432 A  
HETATM   25  C   UNL     1      -9.204   9.668  65.336  1.00  0.00    -0.295 A  
ENDBRANCH  11  20
ENDBRANCH   6   7
ENDBRANCH   3   6
TORSDOF 4
ENDMDL
MODEL       42
REMARK 921   NORMALIZED FREE ENERGY PREDICTED BY IDOCK:   -6.05 KCAL/MOL
REMARK 922        TOTAL FREE ENERGY PREDICTED BY IDOCK:   -8.32 KCAL/MOL
REMARK 923 INTER-LIGAND FREE ENERGY PREDICTED BY IDOCK:   -7.51 KCAL/MOL
REMARK 924 INTRA-LIGAND FREE ENERGY PREDICTED BY IDOCK:   -0.81 KCAL/MOL
REMARK 927      BINDING AFFINITY PREDICTED BY RF-SCORE:    0.00 PKD
ROOT
HETATM    1  O   UNL     1     -10.701   5.734  68.793  1.00  0.00    -0.254 OA 
HETATM    2  P   UNL     1     -10.661   6.915  69.862  1.00  0.00    -0.275 P  
HETATM    3  O   UNL     1     -10.657   8.313  69.068  1.00  0.00    -0.215 OA 
HETATM    4  O   UNL     1      -9.575   6.718  70.867  1.00  0.00    -0.168 OA 
HETATM    5  O   UNL     1     -12.139   6.808  70.457  1.00  0.00    -0.386 OA 
ENDROOT
BRANCH   3   6
HETATM    6  C   UNL     1     -10.217   9.350  69.932  1.00  0.00    -0.222 C  
BRANCH   6   7
HETATM    7  N   UNL     1     -10.619  10.681  69.562  1.00  0.00    -0.236 N  
HETATM    8  C   UNL     1     -11.951  10.971  69.585  1.00  0.00    -0.353 C  
HETATM    9  N   UNL     1     -12.213  12.018  68.753  1.00  0.00    -0.230 NA 
HETATM   10  O   UNL     1     -12.829  10.362  70.175  1.00  0.00    -0.235 OA 
HETATM   11  C   UNL     1     -11.062  12.453  67.999  1.00  0.00    -0.245 C  
HETATM   12  O   UNL     1      -8.844  11.324  68.231  1.00  0.00    -0.145 OA 
HETATM   13  C   UNL     1     -10.009  11.447  68.600  1.00  0.00    -0.202 C  
BRANCH  11  14
HETATM   14  C   UNL     1     -11.200  12.163  66.489  1.00  0.00    -0.378 A  
HETATM   15  C   UNL     1     -10.401  11.220  65.813  1.00  0.00    -0.310 A  
HETATM   16  C   UNL     1     -12.137  12.892  65.729  1.00  0.00    -0.513 A  
HETATM   17  C   UNL     1     -12.274  12.687  64.354  1.00  0.00    -0.518 A  
HETATM   18  C   UNL     1     -10.538  11.018  64.435  1.00  0.00    -0.395 A  
HETATM   19  C   UNL     1     -11.471  11.751  63.707  1.00  0.00    -0.510 A  
ENDBRANCH  11  14
BRANCH  11  20
HETATM   20  C   UNL     1     -10.850  13.934  68.350  1.00  0.00    -0.269 A  
HETATM   21  C   UNL     1     -11.652  16.020  69.326  1.00  0.00    -0.331 A  
HETATM   22  C   UNL     1     -10.578  16.713  68.773  1.00  0.00    -0.340 A  
HETATM   23  C   UNL     1      -9.636  16.033  68.007  1.00  0.00    -0.215 A  
HETATM   24  C   UNL     1      -9.774  14.661  67.790  1.00  0.00    -0.215 A  
HETATM   25  C   UNL     1     -11.790  14.646  69.116  1.00  0.00    -0.347 A  
ENDBRANCH  11  20
ENDBRANCH   6   7
ENDBRANCH   3   6
TORSDOF 4
ENDMDL
MODEL       43
REMARK 921   NORMALIZED FREE ENERGY PREDICTED BY IDOCK:   -6.00 KCAL/MOL
REMARK 922        TOTAL FREE ENERGY PREDICTED BY IDOCK:   -8.26 KCAL/MOL
REMARK 923 INTER-LIGAND FREE ENERGY PREDICTED BY IDOCK:   -7.19 KCAL/MOL
REMARK 924 INTRA-LIGAND FREE ENERGY PREDICTED BY IDOCK:   -1.07 KCAL/MOL
REMARK 927      BINDING AFFINITY PREDICTED BY RF-SCORE:    0.00 PKD
ROOT
HETATM    1  O   UNL     1      -8.195   7.478  65.847  1.00  0.00    -0.119 OA 
HETATM    2  P   UNL     1      -8.870   7.961  67.207  1.00  0.00    -0.131 P  
HETATM    3  O   UNL     1      -8.408   9.476  67.486  1.00  0.00    -0.123 OA 
HETATM    4  O   UNL     1      -8.649   6.985  68.314  1.00  0.00    -0.128 OA 
HETATM    5  O   UNL     1     -10.389   8.097  66.737  1.00  0.00    -0.311 OA 
ENDROOT
BRANCH   3   6
HETATM    6  C   UNL     1      -8.638   9.800  68.849  1.00  0.00    -0.134 C  
BRANCH   6   7
HETATM    7  N   UNL     1      -9.623  10.822  69.089  1.00  0.00    -0.187 N  
HETATM    8  C   UNL     1     -10.908  10.425  69.312  1.00  0.00    -0.241 C  
HETATM    9  N   UNL     1     -11.768  11.436  69.006  1.00  0.00    -0.314 NA 
HETATM   10  O   UNL     1     -11.289   9.315  69.651  1.00  0.00    -0.112 OA 
HETATM   11  C   UNL     1     -11.115  12.587  68.428  1.00  0.00    -0.258 C  
HETATM   12  O   UNL     1      -8.648  12.632  68.034  1.00  0.00    -0.172 OA 
HETATM   13  C   UNL     1      -9.632  12.059  68.493  1.00  0.00    -0.143 C  
BRANCH  11  14
HETATM   14  C   UNL     1     -11.490  12.798  66.946  1.00  0.00    -0.396 A  
HETATM   15  C   UNL     1     -12.261  13.888  66.496  1.00  0.00    -0.482 A  
HETATM   16  C   UNL     1     -11.080  11.847  65.988  1.00  0.00    -0.369 A  
HETATM   17  C   UNL     1     -11.423  11.978  64.641  1.00  0.00    -0.371 A  
HETATM   18  C   UNL     1     -12.606  14.016  65.147  1.00  0.00    -0.453 A  
HETATM   19  C   UNL     1     -12.190  13.063  64.222  1.00  0.00    -0.464 A  
ENDBRANCH  11  14
BRANCH  11  20
HETATM   20  C   UNL     1     -11.444  13.775  69.346  1.00  0.00    -0.341 A  
HETATM   21  C   UNL     1     -10.937  16.001  70.203  1.00  0.00    -0.369 A  
HETATM   22  C   UNL     1     -11.891  15.853  71.206  1.00  0.00    -0.502 A  
HETATM   23  C   UNL     1     -12.627  14.675  71.293  1.00  0.00    -0.403 A  
HETATM   24  C   UNL     1     -12.401  13.644  70.380  1.00  0.00    -0.415 A  
HETATM   25  C   UNL     1     -10.712  14.974  69.283  1.00  0.00    -0.250 A  
ENDBRANCH  11  20
ENDBRANCH   6   7
ENDBRANCH   3   6
TORSDOF 4
ENDMDL
MODEL       44
REMARK 921   NORMALIZED FREE ENERGY PREDICTED BY IDOCK:   -5.97 KCAL/MOL
REMARK 922        TOTAL FREE ENERGY PREDICTED BY IDOCK:   -8.22 KCAL/MOL
REMARK 923 INTER-LIGAND FREE ENERGY PREDICTED BY IDOCK:   -7.52 KCAL/MOL
REMARK 924 INTRA-LIGAND FREE ENERGY PREDICTED BY IDOCK:   -0.70 KCAL/MOL
REMARK 927      BINDING AFFINITY PREDICTED BY RF-SCORE:    0.00 PKD
ROOT
HETATM    1  O   UNL     1      -9.954  10.348  66.743  1.00  0.00    -0.190 OA 
HETATM    2  P   UNL     1     -10.877  11.302  67.625  1.00  0.00    -0.276 P  
HETATM    3  O   UNL     1     -11.761  12.204  66.631  1.00  0.00    -0.493 OA 
HETATM    4  O   UNL     1     -10.090  12.033  68.661  1.00  0.00    -0.212 OA 
HETATM    5  O   UNL     1     -11.911  10.236  68.209  1.00  0.00    -0.236 OA 
ENDROOT
BRANCH   3   6
HETATM    6  C   UNL     1     -12.278  13.323  67.336  1.00  0.00    -0.186 C  
BRANCH   6   7
HETATM    7  N   UNL     1     -11.651  14.586  67.047  1.00  0.00    -0.374 N  
HETATM    8  C   UNL     1     -11.310  14.843  65.752  1.00  0.00    -0.314 C  
HETATM    9  N   UNL     1     -10.310  15.768  65.710  1.00  0.00    -0.345 NA 
HETATM   10  O   UNL     1     -11.742  14.293  64.752  1.00  0.00    -0.373 OA 
HETATM   11  C   UNL     1      -9.810  16.131  67.015  1.00  0.00    -0.245 C  
HETATM   12  O   UNL     1     -10.721  15.097  69.099  1.00  0.00    -0.233 OA 
HETATM   13  C   UNL     1     -10.776  15.236  67.880  1.00  0.00    -0.275 C  
BRANCH  11  14
HETATM   14  C   UNL     1      -8.363  15.646  67.249  1.00  0.00    -0.209 A  
HETATM   15  C   UNL     1      -8.013  14.284  67.331  1.00  0.00    -0.211 A  
HETATM   16  C   UNL     1      -7.337  16.597  67.426  1.00  0.00    -0.189 A  
HETATM   17  C   UNL     1      -6.019  16.205  67.673  1.00  0.00    -0.175 A  
HETATM   18  C   UNL     1      -6.694  13.894  67.581  1.00  0.00    -0.189 A  
HETATM   19  C   UNL     1      -5.699  14.853  67.754  1.00  0.00    -0.098 A  
ENDBRANCH  11  14
BRANCH  11  20
HETATM   20  C   UNL     1     -10.005  17.649  67.144  1.00  0.00    -0.316 A  
HETATM   21  C   UNL     1     -10.096  19.872  66.145  1.00  0.00    -0.611 A  
HETATM   22  C   UNL     1     -10.110  20.459  67.406  1.00  0.00    -0.500 A  
HETATM   23  C   UNL     1     -10.070  19.658  68.544  1.00  0.00    -0.557 A  
HETATM   24  C   UNL     1     -10.010  18.269  68.415  1.00  0.00    -0.401 A  
HETATM   25  C   UNL     1     -10.042  18.482  66.012  1.00  0.00    -0.309 A  
ENDBRANCH  11  20
ENDBRANCH   6   7
ENDBRANCH   3   6
TORSDOF 4
ENDMDL
MODEL       45
REMARK 921   NORMALIZED FREE ENERGY PREDICTED BY IDOCK:   -5.96 KCAL/MOL
REMARK 922        TOTAL FREE ENERGY PREDICTED BY IDOCK:   -8.20 KCAL/MOL
REMARK 923 INTER-LIGAND FREE ENERGY PREDICTED BY IDOCK:   -7.42 KCAL/MOL
REMARK 924 INTRA-LIGAND FREE ENERGY PREDICTED BY IDOCK:   -0.78 KCAL/MOL
REMARK 927      BINDING AFFINITY PREDICTED BY RF-SCORE:    0.00 PKD
ROOT
HETATM    1  O   UNL     1     -10.907   5.806  69.742  1.00  0.00    -0.324 OA 
HETATM    2  P   UNL     1     -10.093   7.063  70.286  1.00  0.00    -0.190 P  
HETATM    3  O   UNL     1     -11.086   8.328  70.320  1.00  0.00    -0.255 OA 
HETATM    4  O   UNL     1      -8.805   7.250  69.557  1.00  0.00    -0.137 OA 
HETATM    5  O   UNL     1      -9.931   6.653  71.820  1.00  0.00    -0.176 OA 
ENDROOT
BRANCH   3   6
HETATM    6  C   UNL     1     -10.328   9.525  70.400  1.00  0.00    -0.276 C  
BRANCH   6   7
HETATM    7  N   UNL     1     -10.295  10.323  69.203  1.00  0.00    -0.208 N  
HETATM    8  C   UNL     1      -9.090  10.827  68.811  1.00  0.00    -0.178 C  
HETATM    9  N   UNL     1      -9.279  11.928  68.030  1.00  0.00    -0.184 NA 
HETATM   10  O   UNL     1      -7.982  10.443  69.151  1.00  0.00    -0.118 OA 
HETATM   11  C   UNL     1     -10.662  12.326  67.926  1.00  0.00    -0.215 C  
HETATM   12  O   UNL     1     -12.474  11.084  69.117  1.00  0.00    -0.432 OA 
HETATM   13  C   UNL     1     -11.292  11.175  68.799  1.00  0.00    -0.277 C  
BRANCH  11  14
HETATM   14  C   UNL     1     -10.944  13.673  68.625  1.00  0.00    -0.290 A  
HETATM   15  C   UNL     1     -12.061  13.887  69.457  1.00  0.00    -0.393 A  
HETATM   16  C   UNL     1     -10.075  14.761  68.404  1.00  0.00    -0.225 A  
HETATM   17  C   UNL     1     -10.308  16.008  68.989  1.00  0.00    -0.242 A  
HETATM   18  C   UNL     1     -12.294  15.137  70.040  1.00  0.00    -0.356 A  
HETATM   19  C   UNL     1     -11.421  16.195  69.805  1.00  0.00    -0.282 A  
ENDBRANCH  11  14
BRANCH  11  20
HETATM   20  C   UNL     1     -11.008  12.297  66.429  1.00  0.00    -0.326 A  
HETATM   21  C   UNL     1     -12.527  12.806  64.590  1.00  0.00    -0.525 A  
HETATM   22  C   UNL     1     -11.768  12.026  63.723  1.00  0.00    -0.575 A  
HETATM   23  C   UNL     1     -10.632  11.374  64.192  1.00  0.00    -0.430 A  
HETATM   24  C   UNL     1     -10.259  11.501  65.531  1.00  0.00    -0.303 A  
HETATM   25  C   UNL     1     -12.155  12.941  65.929  1.00  0.00    -0.503 A  
ENDBRANCH  11  20
ENDBRANCH   6   7
ENDBRANCH   3   6
TORSDOF 4
ENDMDL
MODEL       46
REMARK 921   NORMALIZED FREE ENERGY PREDICTED BY IDOCK:   -5.95 KCAL/MOL
REMARK 922        TOTAL FREE ENERGY PREDICTED BY IDOCK:   -8.19 KCAL/MOL
REMARK 923 INTER-LIGAND FREE ENERGY PREDICTED BY IDOCK:   -7.13 KCAL/MOL
REMARK 924 INTRA-LIGAND FREE ENERGY PREDICTED BY IDOCK:   -1.07 KCAL/MOL
REMARK 927      BINDING AFFINITY PREDICTED BY RF-SCORE:    0.00 PKD
ROOT
HETATM    1  O   UNL     1     -10.830  10.667  69.938  1.00  0.00    -0.267 OA 
HETATM    2  P   UNL     1     -11.107  11.781  68.833  1.00  0.00    -0.261 P  
HETATM    3  O   UNL     1     -11.541  13.135  69.583  1.00  0.00    -0.283 OA 
HETATM    4  O   UNL     1     -12.028  11.289  67.767  1.00  0.00    -0.637 OA 
HETATM    5  O   UNL     1      -9.617  12.068  68.340  1.00  0.00    -0.204 OA 
ENDROOT
BRANCH   3   6
HETATM    6  C   UNL     1     -12.179  14.006  68.661  1.00  0.00    -0.183 C  
BRANCH   6   7
HETATM    7  N   UNL     1     -11.379  15.105  68.186  1.00  0.00    -0.322 N  
HETATM    8  C   UNL     1     -10.765  14.966  66.977  1.00  0.00    -0.307 C  
HETATM    9  N   UNL     1      -9.686  15.794  66.906  1.00  0.00    -0.225 NA 
HETATM   10  O   UNL     1     -11.046  14.172  66.093  1.00  0.00    -0.305 OA 
HETATM   11  C   UNL     1      -9.417  16.493  68.140  1.00  0.00    -0.222 C  
HETATM   12  O   UNL     1     -10.823  16.140  70.175  1.00  0.00    -0.332 OA 
HETATM   13  C   UNL     1     -10.622  15.927  68.983  1.00  0.00    -0.247 C  
BRANCH  11  14
HETATM   14  C   UNL     1      -8.103  16.032  68.806  1.00  0.00    -0.212 A  
HETATM   15  C   UNL     1      -7.898  14.719  69.273  1.00  0.00    -0.122 A  
HETATM   16  C   UNL     1      -7.062  16.964  68.997  1.00  0.00    -0.232 A  
HETATM   17  C   UNL     1      -5.868  16.600  69.625  1.00  0.00    -0.199 A  
HETATM   18  C   UNL     1      -6.703  14.358  69.903  1.00  0.00    -0.101 A  
HETATM   19  C   UNL     1      -5.691  15.297  70.080  1.00  0.00    -0.135 A  
ENDBRANCH  11  14
BRANCH  11  20
HETATM   20  C   UNL     1      -9.475  17.992  67.809  1.00  0.00    -0.264 A  
HETATM   21  C   UNL     1     -10.036  20.283  68.428  1.00  0.00    -0.341 A  
HETATM   22  C   UNL     1      -9.823  20.708  67.120  1.00  0.00    -0.497 A  
HETATM   23  C   UNL     1      -9.439  19.790  66.147  1.00  0.00    -0.464 A  
HETATM   24  C   UNL     1      -9.274  18.446  66.485  1.00  0.00    -0.300 A  
HETATM   25  C   UNL     1      -9.867  18.940  68.771  1.00  0.00    -0.461 A  
ENDBRANCH  11  20
ENDBRANCH   6   7
ENDBRANCH   3   6
TORSDOF 4
ENDMDL
MODEL       47
REMARK 921   NORMALIZED FREE ENERGY PREDICTED BY IDOCK:   -5.86 KCAL/MOL
REMARK 922        TOTAL FREE ENERGY PREDICTED BY IDOCK:   -8.08 KCAL/MOL
REMARK 923 INTER-LIGAND FREE ENERGY PREDICTED BY IDOCK:   -7.74 KCAL/MOL
REMARK 924 INTRA-LIGAND FREE ENERGY PREDICTED BY IDOCK:   -0.34 KCAL/MOL
REMARK 927      BINDING AFFINITY PREDICTED BY RF-SCORE:    0.00 PKD
ROOT
HETATM    1  O   UNL     1     -12.102  16.492  64.140  1.00  0.00    -0.774 OA 
HETATM    2  P   UNL     1     -11.958  14.926  64.397  1.00  0.00    -0.152 P  
HETATM    3  O   UNL     1     -10.459  14.635  64.902  1.00  0.00    -0.414 OA 
HETATM    4  O   UNL     1     -12.431  14.125  63.230  1.00  0.00    -0.758 OA 
HETATM    5  O   UNL     1     -12.849  14.770  65.712  1.00  0.00    -0.020 OA 
ENDROOT
BRANCH   3   6
HETATM    6  C   UNL     1     -10.165  13.255  64.751  1.00  0.00    -0.304 C  
BRANCH   6   7
HETATM    7  N   UNL     1     -10.347  12.446  65.928  1.00  0.00    -0.251 N  
HETATM    8  C   UNL     1     -11.523  11.767  66.054  1.00  0.00    -0.215 C  
HETATM    9  N   UNL     1     -11.766  11.499  67.367  1.00  0.00    -0.609 NA 
HETATM   10  O   UNL     1     -12.316  11.493  65.167  1.00  0.00     0.110 OA 
HETATM   11  C   UNL     1     -10.801  12.093  68.262  1.00  0.00    -0.223 C  
HETATM   12  O   UNL     1      -8.913  13.490  67.408  1.00  0.00    -0.197 OA 
HETATM   13  C   UNL     1      -9.873  12.760  67.177  1.00  0.00    -0.216 C  
BRANCH  11  14
HETATM   14  C   UNL     1     -11.411  13.213  69.130  1.00  0.00    -0.358 A  
HETATM   15  C   UNL     1     -11.259  14.582  68.835  1.00  0.00    -0.283 A  
HETATM   16  C   UNL     1     -12.127  12.871  70.296  1.00  0.00    -0.377 A  
HETATM   17  C   UNL     1     -12.669  13.851  71.130  1.00  0.00    -0.441 A  
HETATM   18  C   UNL     1     -11.800  15.563  69.673  1.00  0.00    -0.384 A  
HETATM   19  C   UNL     1     -12.502  15.198  70.819  1.00  0.00    -0.429 A  
ENDBRANCH  11  14
BRANCH  11  20
HETATM   20  C   UNL     1     -10.178  10.934  69.056  1.00  0.00    -0.219 A  
HETATM   21  C   UNL     1     -10.382   9.107  70.658  1.00  0.00    -0.306 A  
HETATM   22  C   UNL     1      -8.998   8.971  70.707  1.00  0.00    -0.286 A  
HETATM   23  C   UNL     1      -8.192   9.808  69.941  1.00  0.00    -0.196 A  
HETATM   24  C   UNL     1      -8.774  10.784  69.131  1.00  0.00    -0.101 A  
HETATM   25  C   UNL     1     -10.969  10.078  69.844  1.00  0.00    -0.339 A  
ENDBRANCH  11  20
ENDBRANCH   6   7
ENDBRANCH   3   6
TORSDOF 4
ENDMDL
MODEL       48
REMARK 921   NORMALIZED FREE ENERGY PREDICTED BY IDOCK:   -5.85 KCAL/MOL
REMARK 922        TOTAL FREE ENERGY PREDICTED BY IDOCK:   -8.07 KCAL/MOL
REMARK 923 INTER-LIGAND FREE ENERGY PREDICTED BY IDOCK:   -7.67 KCAL/MOL
REMARK 924 INTRA-LIGAND FREE ENERGY PREDICTED BY IDOCK:   -0.40 KCAL/MOL
REMARK 927      BINDING AFFINITY PREDICTED BY RF-SCORE:    0.00 PKD
ROOT
HETATM    1  O   UNL     1     -12.862  14.522  64.549  1.00  0.00    -0.613 OA 
HETATM    2  P   UNL     1     -11.978  13.198  64.626  1.00  0.00    -0.443 P  
HETATM    3  O   UNL     1     -12.194  12.532  66.073  1.00  0.00    -0.605 OA 
HETATM    4  O   UNL     1     -10.565  13.449  64.215  1.00  0.00    -0.420 OA 
HETATM    5  O   UNL     1     -12.797  12.253  63.634  1.00  0.00    -0.753 OA 
ENDROOT
BRANCH   3   6
HETATM    6  C   UNL     1     -11.147  11.611  66.335  1.00  0.00    -0.291 C  
BRANCH   6   7
HETATM    7  N   UNL     1     -11.211  10.939  67.606  1.00  0.00    -0.313 N  
HETATM    8  C   UNL     1     -11.502  11.689  68.706  1.00  0.00    -0.285 C  
HETATM    9  N   UNL     1     -11.028  11.075  69.827  1.00  0.00    -0.231 NA 
HETATM   10  O   UNL     1     -12.026  12.792  68.730  1.00  0.00    -0.305 OA 
HETATM   11  C   UNL     1     -10.261   9.885  69.547  1.00  0.00    -0.225 C  
HETATM   12  O   UNL     1      -9.860   9.108  67.206  1.00  0.00    -0.166 OA 
HETATM   13  C   UNL     1     -10.412   9.886  67.978  1.00  0.00    -0.222 C  
BRANCH  11  14
HETATM   14  C   UNL     1      -8.765  10.051  69.889  1.00  0.00    -0.169 A  
HETATM   15  C   UNL     1      -7.937  11.006  69.265  1.00  0.00    -0.034 A  
HETATM   16  C   UNL     1      -8.175   9.195  70.840  1.00  0.00    -0.220 A  
HETATM   17  C   UNL     1      -6.818   9.287  71.158  1.00  0.00    -0.069 A  
HETATM   18  C   UNL     1      -6.578  11.095  69.583  1.00  0.00    -0.139 A  
HETATM   19  C   UNL     1      -6.019  10.236  70.525  1.00  0.00    -0.106 A  
ENDBRANCH  11  14
BRANCH  11  20
HETATM   20  C   UNL     1     -10.963   8.736  70.287  1.00  0.00    -0.255 A  
HETATM   21  C   UNL     1     -12.249   7.904  72.185  1.00  0.00    -0.353 A  
HETATM   22  C   UNL     1     -12.035   6.590  71.778  1.00  0.00    -0.394 A  
HETATM   23  C   UNL     1     -11.287   6.333  70.633  1.00  0.00    -0.409 A  
HETATM   24  C   UNL     1     -10.751   7.392  69.899  1.00  0.00    -0.254 A  
HETATM   25  C   UNL     1     -11.718   8.967  71.451  1.00  0.00    -0.392 A  
ENDBRANCH  11  20
ENDBRANCH   6   7
ENDBRANCH   3   6
TORSDOF 4
ENDMDL
MODEL       49
REMARK 921   NORMALIZED FREE ENERGY PREDICTED BY IDOCK:   -5.78 KCAL/MOL
REMARK 922        TOTAL FREE ENERGY PREDICTED BY IDOCK:   -7.98 KCAL/MOL
REMARK 923 INTER-LIGAND FREE ENERGY PREDICTED BY IDOCK:   -6.89 KCAL/MOL
REMARK 924 INTRA-LIGAND FREE ENERGY PREDICTED BY IDOCK:   -1.09 KCAL/MOL
REMARK 927      BINDING AFFINITY PREDICTED BY RF-SCORE:    0.00 PKD
ROOT
HETATM    1  O   UNL     1     -13.043  12.497  64.911  1.00  0.00    -0.833 OA 
HETATM    2  P   UNL     1     -11.898  12.841  65.964  1.00  0.00    -0.408 P  
HETATM    3  O   UNL     1     -12.055  11.848  67.220  1.00  0.00    -0.582 OA 
HETATM    4  O   UNL     1     -11.848  14.300  66.275  1.00  0.00    -0.380 OA 
HETATM    5  O   UNL     1     -10.620  12.286  65.186  1.00  0.00    -0.268 OA 
ENDROOT
BRANCH   3   6
HETATM    6  C   UNL     1     -11.344  12.370  68.331  1.00  0.00    -0.285 C  
BRANCH   6   7
HETATM    7  N   UNL     1     -10.475  11.442  69.007  1.00  0.00    -0.197 N  
HETATM    8  C   UNL     1      -9.199  11.314  68.541  1.00  0.00    -0.181 C  
HETATM    9  N   UNL     1      -8.694  10.100  68.899  1.00  0.00    -0.140 NA 
HETATM   10  O   UNL     1      -8.590  12.099  67.833  1.00  0.00    -0.150 OA 
HETATM   11  C   UNL     1      -9.658   9.249  69.555  1.00  0.00    -0.173 C  
HETATM   12  O   UNL     1     -12.014   9.990  69.934  1.00  0.00    -0.148 OA 
HETATM   13  C   UNL     1     -10.875  10.250  69.556  1.00  0.00    -0.256 C  
BRANCH  11  14
HETATM   14  C   UNL     1     -10.042   8.022  68.701  1.00  0.00    -0.212 A  
HETATM   15  C   UNL     1     -10.681   6.885  69.234  1.00  0.00    -0.265 A  
HETATM   16  C   UNL     1      -9.714   8.005  67.330  1.00  0.00    -0.232 A  
HETATM   17  C   UNL     1     -10.012   6.903  66.525  1.00  0.00    -0.150 A  
HETATM   18  C   UNL     1     -10.976   5.782  68.427  1.00  0.00    -0.159 A  
HETATM   19  C   UNL     1     -10.640   5.790  67.076  1.00  0.00    -0.373 A  
ENDBRANCH  11  14
BRANCH  11  20
HETATM   20  C   UNL     1      -9.067   8.910  70.933  1.00  0.00    -0.283 A  
HETATM   21  C   UNL     1      -7.170   8.296  72.337  1.00  0.00    -0.127 A  
HETATM   22  C   UNL     1      -8.021   8.041  73.408  1.00  0.00    -0.236 A  
HETATM   23  C   UNL     1      -9.394   8.212  73.257  1.00  0.00    -0.308 A  
HETATM   24  C   UNL     1      -9.913   8.634  72.032  1.00  0.00    -0.399 A  
HETATM   25  C   UNL     1      -7.684   8.724  71.111  1.00  0.00    -0.146 A  
ENDBRANCH  11  20
ENDBRANCH   6   7
ENDBRANCH   3   6
TORSDOF 4
ENDMDL
MODEL       50
REMARK 921   NORMALIZED FREE ENERGY PREDICTED BY IDOCK:   -5.78 KCAL/MOL
REMARK 922        TOTAL FREE ENERGY PREDICTED BY IDOCK:   -7.98 KCAL/MOL
REMARK 923 INTER-LIGAND FREE ENERGY PREDICTED BY IDOCK:   -7.19 KCAL/MOL
REMARK 924 INTRA-LIGAND FREE ENERGY PREDICTED BY IDOCK:   -0.79 KCAL/MOL
REMARK 927      BINDING AFFINITY PREDICTED BY RF-SCORE:    0.00 PKD
ROOT
HETATM    1  O   UNL     1     -13.103  14.376  64.912  1.00  0.00    -0.593 OA 
HETATM    2  P   UNL     1     -12.131  13.124  64.751  1.00  0.00    -0.453 P  
HETATM    3  O   UNL     1     -12.254  12.218  66.074  1.00  0.00    -0.646 OA 
HETATM    4  O   UNL     1     -10.752  13.538  64.357  1.00  0.00    -0.408 OA 
HETATM    5  O   UNL     1     -12.917  12.296  63.636  1.00  0.00    -0.777 OA 
ENDROOT
BRANCH   3   6
HETATM    6  C   UNL     1     -11.139  11.343  66.158  1.00  0.00    -0.198 C  
BRANCH   6   7
HETATM    7  N   UNL     1     -10.940  10.707  67.434  1.00  0.00    -0.301 N  
HETATM    8  C   UNL     1     -10.425  11.463  68.445  1.00  0.00    -0.200 C  
HETATM    9  N   UNL     1      -9.825  10.658  69.367  1.00  0.00    -0.184 NA 
HETATM   10  O   UNL     1     -10.400  12.681  68.518  1.00  0.00    -0.234 OA 
HETATM   11  C   UNL     1      -9.791   9.268  68.978  1.00  0.00    -0.166 C  
HETATM   12  O   UNL     1     -10.736   8.496  66.798  1.00  0.00    -0.238 OA 
HETATM   13  C   UNL     1     -10.558   9.401  67.608  1.00  0.00    -0.271 C  
BRANCH  11  14
HETATM   14  C   UNL     1      -8.360   8.771  68.686  1.00  0.00    -0.128 A  
HETATM   15  C   UNL     1      -7.632   9.157  67.543  1.00  0.00    -0.088 A  
HETATM   16  C   UNL     1      -7.751   7.859  69.572  1.00  0.00    -0.104 A  
HETATM   17  C   UNL     1      -6.470   7.356  69.331  1.00  0.00    -0.036 A  
HETATM   18  C   UNL     1      -6.351   8.651  67.302  1.00  0.00    -0.057 A  
HETATM   19  C   UNL     1      -5.772   7.751  68.192  1.00  0.00    -0.032 A  
ENDBRANCH  11  14
BRANCH  11  20
HETATM   20  C   UNL     1     -10.524   8.494  70.084  1.00  0.00    -0.226 A  
HETATM   21  C   UNL     1     -11.796   6.551  70.832  1.00  0.00    -0.391 A  
HETATM   22  C   UNL     1     -12.087   7.183  72.037  1.00  0.00    -0.329 A  
HETATM   23  C   UNL     1     -11.608   8.467  72.280  1.00  0.00    -0.453 A  
HETATM   24  C   UNL     1     -10.842   9.118  71.313  1.00  0.00    -0.402 A  
HETATM   25  C   UNL     1     -11.025   7.198  69.863  1.00  0.00    -0.278 A  
ENDBRANCH  11  20
ENDBRANCH   6   7
ENDBRANCH   3   6
TORSDOF 4
ENDMDL
MODEL       51
REMARK 921   NORMALIZED FREE ENERGY PREDICTED BY IDOCK:   -5.76 KCAL/MOL
REMARK 922        TOTAL FREE ENERGY PREDICTED BY IDOCK:   -7.96 KCAL/MOL
REMARK 923 INTER-LIGAND FREE ENERGY PREDICTED BY IDOCK:   -7.37 KCAL/MOL
REMARK 924 INTRA-LIGAND FREE ENERGY PREDICTED BY IDOCK:   -0.59 KCAL/MOL
REMARK 927      BINDING AFFINITY PREDICTED BY RF-SCORE:    0.00 PKD
ROOT
HETATM    1  O   UNL     1     -13.265  13.907  65.306  1.00  0.00    -0.774 OA 
HETATM    2  P   UNL     1     -11.863  14.189  66.009  1.00  0.00    -0.412 P  
HETATM    3  O   UNL     1     -10.930  12.895  65.807  1.00  0.00    -0.274 OA 
HETATM    4  O   UNL     1     -12.032  14.674  67.411  1.00  0.00    -0.384 OA 
HETATM    5  O   UNL     1     -11.254  15.270  65.005  1.00  0.00    -0.384 OA 
ENDROOT
BRANCH   3   6
HETATM    6  C   UNL     1      -9.859  12.931  66.739  1.00  0.00    -0.241 C  
BRANCH   6   7
HETATM    7  N   UNL     1      -9.968  12.020  67.848  1.00  0.00    -0.192 N  
HETATM    8  C   UNL     1      -8.826  11.705  68.524  1.00  0.00    -0.131 C  
HETATM    9  N   UNL     1      -8.975  10.507  69.154  1.00  0.00    -0.176 NA 
HETATM   10  O   UNL     1      -7.774  12.325  68.524  1.00  0.00    -0.125 OA 
HETATM   11  C   UNL     1     -10.224   9.851  68.851  1.00  0.00    -0.196 C  
HETATM   12  O   UNL     1     -11.888  10.866  67.287  1.00  0.00    -0.389 OA 
HETATM   13  C   UNL     1     -10.835  10.958  67.910  1.00  0.00    -0.247 C  
BRANCH  11  14
HETATM   14  C   UNL     1     -10.030   8.564  68.020  1.00  0.00    -0.221 A  
HETATM   15  C   UNL     1     -11.035   7.589  67.870  1.00  0.00    -0.027 A  
HETATM   16  C   UNL     1      -8.785   8.320  67.405  1.00  0.00    -0.125 A  
HETATM   17  C   UNL     1      -8.553   7.155  66.672  1.00  0.00    -0.124 A  
HETATM   18  C   UNL     1     -10.800   6.421  67.137  1.00  0.00    -0.467 A  
HETATM   19  C   UNL     1      -9.561   6.203  66.541  1.00  0.00    -0.183 A  
ENDBRANCH  11  14
BRANCH  11  20
HETATM   20  C   UNL     1     -10.940   9.643  70.194  1.00  0.00    -0.320 A  
HETATM   21  C   UNL     1     -11.269   8.375  72.251  1.00  0.00    -0.446 A  
HETATM   22  C   UNL     1     -12.417   9.106  72.540  1.00  0.00    -0.260 A  
HETATM   23  C   UNL     1     -12.840  10.105  71.668  1.00  0.00    -0.559 A  
HETATM   24  C   UNL     1     -12.115  10.366  70.505  1.00  0.00    -0.423 A  
HETATM   25  C   UNL     1     -10.538   8.636  71.091  1.00  0.00    -0.291 A  
ENDBRANCH  11  20
ENDBRANCH   6   7
ENDBRANCH   3   6
TORSDOF 4
ENDMDL
MODEL       52
REMARK 921   NORMALIZED FREE ENERGY PREDICTED BY IDOCK:   -5.74 KCAL/MOL
REMARK 922        TOTAL FREE ENERGY PREDICTED BY IDOCK:   -7.94 KCAL/MOL
REMARK 923 INTER-LIGAND FREE ENERGY PREDICTED BY IDOCK:   -7.23 KCAL/MOL
REMARK 924 INTRA-LIGAND FREE ENERGY PREDICTED BY IDOCK:   -0.70 KCAL/MOL
REMARK 927      BINDING AFFINITY PREDICTED BY RF-SCORE:    0.00 PKD
ROOT
HETATM    1  O   UNL     1     -10.521   7.942  73.138  1.00  0.00    -0.345 OA 
HETATM    2  P   UNL     1     -11.578   8.426  72.048  1.00  0.00    -0.397 P  
HETATM    3  O   UNL     1     -10.839   9.444  71.047  1.00  0.00    -0.281 OA 
HETATM    4  O   UNL     1     -12.841   8.913  72.677  1.00  0.00    -0.393 OA 
HETATM    5  O   UNL     1     -11.739   7.087  71.195  1.00  0.00    -0.290 OA 
ENDROOT
BRANCH   3   6
HETATM    6  C   UNL     1     -11.807  10.198  70.334  1.00  0.00    -0.288 C  
BRANCH   6   7
HETATM    7  N   UNL     1     -11.459  10.537  68.979  1.00  0.00    -0.254 N  
HETATM    8  C   UNL     1     -10.709   9.643  68.274  1.00  0.00    -0.217 C  
HETATM    9  N   UNL     1     -10.044  10.282  67.272  1.00  0.00    -0.193 NA 
HETATM   10  O   UNL     1     -10.554   8.456  68.516  1.00  0.00    -0.191 OA 
HETATM   11  C   UNL     1     -10.211  11.716  67.296  1.00  0.00    -0.201 C  
HETATM   12  O   UNL     1     -11.581  12.843  69.056  1.00  0.00    -0.282 OA 
HETATM   13  C   UNL     1     -11.181  11.806  68.534  1.00  0.00    -0.252 C  
BRANCH  11  14
HETATM   14  C   UNL     1      -8.905  12.458  67.649  1.00  0.00    -0.177 A  
HETATM   15  C   UNL     1      -7.892  11.891  68.448  1.00  0.00    -0.141 A  
HETATM   16  C   UNL     1      -8.715  13.778  67.191  1.00  0.00    -0.231 A  
HETATM   17  C   UNL     1      -7.564  14.500  67.514  1.00  0.00    -0.211 A  
HETATM   18  C   UNL     1      -6.742  12.617  68.772  1.00  0.00    -0.093 A  
HETATM   19  C   UNL     1      -6.579  13.919  68.308  1.00  0.00    -0.110 A  
ENDBRANCH  11  14
BRANCH  11  20
HETATM   20  C   UNL     1     -10.820  12.102  65.939  1.00  0.00    -0.316 A  
HETATM   21  C   UNL     1     -12.623  13.082  64.621  1.00  0.00    -0.425 A  
HETATM   22  C   UNL     1     -12.060  12.586  63.449  1.00  0.00    -0.621 A  
HETATM   23  C   UNL     1     -10.883  11.846  63.504  1.00  0.00    -0.502 A  
HETATM   24  C   UNL     1     -10.273  11.600  64.735  1.00  0.00    -0.321 A  
HETATM   25  C   UNL     1     -12.012  12.843  65.854  1.00  0.00    -0.504 A  
ENDBRANCH  11  20
ENDBRANCH   6   7
ENDBRANCH   3   6
TORSDOF 4
ENDMDL
MODEL       53
REMARK 921   NORMALIZED FREE ENERGY PREDICTED BY IDOCK:   -5.73 KCAL/MOL
REMARK 922        TOTAL FREE ENERGY PREDICTED BY IDOCK:   -7.93 KCAL/MOL
REMARK 923 INTER-LIGAND FREE ENERGY PREDICTED BY IDOCK:   -7.68 KCAL/MOL
REMARK 924 INTRA-LIGAND FREE ENERGY PREDICTED BY IDOCK:   -0.25 KCAL/MOL
REMARK 927      BINDING AFFINITY PREDICTED BY RF-SCORE:    0.00 PKD
ROOT
HETATM    1  O   UNL     1     -13.342  13.850  65.375  1.00  0.00    -0.710 OA 
HETATM    2  P   UNL     1     -12.193  12.859  64.888  1.00  0.00    -0.476 P  
HETATM    3  O   UNL     1     -11.863  11.842  66.090  1.00  0.00    -0.528 OA 
HETATM    4  O   UNL     1     -11.033  13.597  64.306  1.00  0.00    -0.382 OA 
HETATM    5  O   UNL     1     -13.007  11.973  63.840  1.00  0.00    -0.669 OA 
ENDROOT
BRANCH   3   6
HETATM    6  C   UNL     1     -10.603  11.230  65.863  1.00  0.00    -0.253 C  
BRANCH   6   7
HETATM    7  N   UNL     1      -9.985  10.628  67.015  1.00  0.00    -0.195 N  
HETATM    8  C   UNL     1     -10.099   9.277  67.163  1.00  0.00    -0.236 C  
HETATM    9  N   UNL     1      -9.950   8.940  68.475  1.00  0.00    -0.172 NA 
HETATM   10  O   UNL     1     -10.379   8.461  66.299  1.00  0.00    -0.154 OA 
HETATM   11  C   UNL     1      -9.834  10.081  69.351  1.00  0.00    -0.224 C  
HETATM   12  O   UNL     1      -9.935  12.419  68.474  1.00  0.00    -0.219 OA 
HETATM   13  C   UNL     1      -9.902  11.211  68.255  1.00  0.00    -0.189 C  
BRANCH  11  14
HETATM   14  C   UNL     1     -11.053  10.237  70.284  1.00  0.00    -0.388 A  
HETATM   15  C   UNL     1     -11.537   9.193  71.096  1.00  0.00    -0.386 A  
HETATM   16  C   UNL     1     -11.749  11.463  70.312  1.00  0.00    -0.397 A  
HETATM   17  C   UNL     1     -12.877  11.640  71.115  1.00  0.00    -0.392 A  
HETATM   18  C   UNL     1     -12.669   9.371  71.898  1.00  0.00    -0.484 A  
HETATM   19  C   UNL     1     -13.339  10.591  71.906  1.00  0.00    -0.461 A  
ENDBRANCH  11  14
BRANCH  11  20
HETATM   20  C   UNL     1      -8.488   9.931  70.077  1.00  0.00    -0.191 A  
HETATM   21  C   UNL     1      -6.147  10.554  70.359  1.00  0.00    -0.125 A  
HETATM   22  C   UNL     1      -5.949   9.487  71.230  1.00  0.00    -0.069 A  
HETATM   23  C   UNL     1      -7.006   8.634  71.532  1.00  0.00    -0.091 A  
HETATM   24  C   UNL     1      -8.259   8.848  70.956  1.00  0.00    -0.217 A  
HETATM   25  C   UNL     1      -7.401  10.775  69.785  1.00  0.00    -0.072 A  
ENDBRANCH  11  20
ENDBRANCH   6   7
ENDBRANCH   3   6
TORSDOF 4
ENDMDL
MODEL       54
REMARK 921   NORMALIZED FREE ENERGY PREDICTED BY IDOCK:   -5.71 KCAL/MOL
REMARK 922        TOTAL FREE ENERGY PREDICTED BY IDOCK:   -7.89 KCAL/MOL
REMARK 923 INTER-LIGAND FREE ENERGY PREDICTED BY IDOCK:   -6.84 KCAL/MOL
REMARK 924 INTRA-LIGAND FREE ENERGY PREDICTED BY IDOCK:   -1.05 KCAL/MOL
REMARK 927      BINDING AFFINITY PREDICTED BY RF-SCORE:    0.00 PKD
ROOT
HETATM    1  O   UNL     1     -10.688   6.481  66.931  1.00  0.00    -0.297 OA 
HETATM    2  P   UNL     1      -9.780   7.776  66.729  1.00  0.00    -0.222 P  
HETATM    3  O   UNL     1     -10.743   9.013  66.373  1.00  0.00    -0.050 OA 
HETATM    4  O   UNL     1      -8.651   7.521  65.788  1.00  0.00    -0.149 OA 
HETATM    5  O   UNL     1      -9.336   8.049  68.238  1.00  0.00    -0.141 OA 
ENDROOT
BRANCH   3   6
HETATM    6  C   UNL     1      -9.978  10.060  65.795  1.00  0.00    -0.276 C  
BRANCH   6   7
HETATM    7  N   UNL     1      -9.891  11.270  66.570  1.00  0.00    -0.203 N  
HETATM    8  C   UNL     1      -8.836  11.401  67.425  1.00  0.00    -0.150 C  
HETATM    9  N   UNL     1      -9.148  12.282  68.417  1.00  0.00    -0.178 NA 
HETATM   10  O   UNL     1      -7.785  10.782  67.400  1.00  0.00    -0.103 OA 
HETATM   11  C   UNL     1     -10.517  12.739  68.368  1.00  0.00    -0.243 C  
HETATM   12  O   UNL     1     -12.106  11.924  66.620  1.00  0.00    -0.587 OA 
HETATM   13  C   UNL     1     -10.966  11.958  67.074  1.00  0.00    -0.278 C  
BRANCH  11  14
HETATM   14  C   UNL     1     -11.355  12.225  69.558  1.00  0.00    -0.258 A  
HETATM   15  C   UNL     1     -11.454  10.860  69.894  1.00  0.00    -0.402 A  
HETATM   16  C   UNL     1     -12.090  13.144  70.333  1.00  0.00    -0.392 A  
HETATM   17  C   UNL     1     -12.888  12.722  71.399  1.00  0.00    -0.371 A  
HETATM   18  C   UNL     1     -12.255  10.439  70.960  1.00  0.00    -0.498 A  
HETATM   19  C   UNL     1     -12.972  11.367  71.709  1.00  0.00    -0.519 A  
ENDBRANCH  11  14
BRANCH  11  20
HETATM   20  C   UNL     1     -10.457  14.269  68.241  1.00  0.00    -0.247 A  
HETATM   21  C   UNL     1     -10.859  16.312  66.972  1.00  0.00    -0.173 A  
HETATM   22  C   UNL     1     -10.119  17.050  67.891  1.00  0.00    -0.306 A  
HETATM   23  C   UNL     1      -9.541  16.415  68.985  1.00  0.00    -0.264 A  
HETATM   24  C   UNL     1      -9.701  15.039  69.155  1.00  0.00    -0.212 A  
HETATM   25  C   UNL     1     -11.026  14.936  67.141  1.00  0.00    -0.323 A  
ENDBRANCH  11  20
ENDBRANCH   6   7
ENDBRANCH   3   6
TORSDOF 4
ENDMDL
MODEL       55
REMARK 921   NORMALIZED FREE ENERGY PREDICTED BY IDOCK:   -5.66 KCAL/MOL
REMARK 922        TOTAL FREE ENERGY PREDICTED BY IDOCK:   -7.83 KCAL/MOL
REMARK 923 INTER-LIGAND FREE ENERGY PREDICTED BY IDOCK:   -7.06 KCAL/MOL
REMARK 924 INTRA-LIGAND FREE ENERGY PREDICTED BY IDOCK:   -0.77 KCAL/MOL
REMARK 927      BINDING AFFINITY PREDICTED BY RF-SCORE:    0.00 PKD
ROOT
HETATM    1  O   UNL     1      -6.445   9.709  63.780  1.00  0.00    -0.100 OA 
HETATM    2  P   UNL     1      -7.283   9.212  65.041  1.00  0.00    -0.101 P  
HETATM    3  O   UNL     1      -7.596  10.487  65.970  1.00  0.00    -0.131 OA 
HETATM    4  O   UNL     1      -6.638   8.045  65.712  1.00  0.00    -0.045 OA 
HETATM    5  O   UNL     1      -8.680   8.885  64.343  1.00  0.00    -0.160 OA 
ENDROOT
BRANCH   3   6
HETATM    6  C   UNL     1      -7.966  10.050  67.269  1.00  0.00    -0.106 C  
BRANCH   6   7
HETATM    7  N   UNL     1      -9.210  10.572  67.771  1.00  0.00    -0.145 N  
HETATM    8  C   UNL     1     -10.354   9.899  67.455  1.00  0.00    -0.236 C  
HETATM    9  N   UNL     1     -11.423  10.740  67.530  1.00  0.00    -0.487 NA 
HETATM   10  O   UNL     1     -10.449   8.744  67.072  1.00  0.00    -0.283 OA 
HETATM   11  C   UNL     1     -11.058  12.110  67.800  1.00  0.00    -0.250 C  
HETATM   12  O   UNL     1      -8.670  12.799  68.062  1.00  0.00    -0.178 OA 
HETATM   13  C   UNL     1      -9.500  11.905  67.919  1.00  0.00    -0.194 C  
BRANCH  11  14
HETATM   14  C   UNL     1     -11.333  13.043  66.602  1.00  0.00    -0.366 A  
HETATM   15  C   UNL     1     -10.741  14.314  66.467  1.00  0.00    -0.297 A  
HETATM   16  C   UNL     1     -12.243  12.636  65.604  1.00  0.00    -0.474 A  
HETATM   17  C   UNL     1     -12.548  13.461  64.519  1.00  0.00    -0.286 A  
HETATM   18  C   UNL     1     -11.050  15.140  65.381  1.00  0.00    -0.371 A  
HETATM   19  C   UNL     1     -11.953  14.715  64.410  1.00  0.00    -0.454 A  
ENDBRANCH  11  14
BRANCH  11  20
HETATM   20  C   UNL     1     -11.783  12.502  69.096  1.00  0.00    -0.375 A  
HETATM   21  C   UNL     1     -12.542  14.199  70.675  1.00  0.00    -0.421 A  
HETATM   22  C   UNL     1     -12.888  13.214  71.596  1.00  0.00    -0.388 A  
HETATM   23  C   UNL     1     -12.686  11.873  71.284  1.00  0.00    -0.401 A  
HETATM   24  C   UNL     1     -12.133  11.520  70.052  1.00  0.00    -0.408 A  
HETATM   25  C   UNL     1     -11.993  13.850  69.439  1.00  0.00    -0.402 A  
ENDBRANCH  11  20
ENDBRANCH   6   7
ENDBRANCH   3   6
TORSDOF 4
ENDMDL
MODEL       56
REMARK 921   NORMALIZED FREE ENERGY PREDICTED BY IDOCK:   -5.66 KCAL/MOL
REMARK 922        TOTAL FREE ENERGY PREDICTED BY IDOCK:   -7.83 KCAL/MOL
REMARK 923 INTER-LIGAND FREE ENERGY PREDICTED BY IDOCK:   -7.55 KCAL/MOL
REMARK 924 INTRA-LIGAND FREE ENERGY PREDICTED BY IDOCK:   -0.28 KCAL/MOL
REMARK 927      BINDING AFFINITY PREDICTED BY RF-SCORE:    0.00 PKD
ROOT
HETATM    1  O   UNL     1     -11.118   7.951  73.049  1.00  0.00    -0.402 OA 
HETATM    2  P   UNL     1     -12.118   8.544  71.960  1.00  0.00    -0.401 P  
HETATM    3  O   UNL     1     -11.341   9.681  71.130  1.00  0.00    -0.327 OA 
HETATM    4  O   UNL     1     -13.425   8.939  72.563  1.00  0.00    -0.438 OA 
HETATM    5  O   UNL     1     -12.201   7.311  70.950  1.00  0.00    -0.320 OA 
ENDROOT
BRANCH   3   6
HETATM    6  C   UNL     1     -12.280  10.500  70.450  1.00  0.00    -0.328 C  
BRANCH   6   7
HETATM    7  N   UNL     1     -11.892  10.931  69.133  1.00  0.00    -0.323 N  
HETATM    8  C   UNL     1     -11.008  10.154  68.445  1.00  0.00    -0.244 C  
HETATM    9  N   UNL     1     -10.360  10.903  67.510  1.00  0.00    -0.193 NA 
HETATM   10  O   UNL     1     -10.736   8.982  68.655  1.00  0.00    -0.188 OA 
HETATM   11  C   UNL     1     -10.687  12.308  67.573  1.00  0.00    -0.225 C  
HETATM   12  O   UNL     1     -12.275  13.205  69.282  1.00  0.00    -0.249 OA 
HETATM   13  C   UNL     1     -11.732  12.240  68.751  1.00  0.00    -0.340 C  
BRANCH  11  14
HETATM   14  C   UNL     1      -9.495  13.173  68.034  1.00  0.00    -0.220 A  
HETATM   15  C   UNL     1      -9.622  14.532  68.382  1.00  0.00    -0.213 A  
HETATM   16  C   UNL     1      -8.206  12.603  68.082  1.00  0.00    -0.170 A  
HETATM   17  C   UNL     1      -7.092  13.356  68.461  1.00  0.00    -0.108 A  
HETATM   18  C   UNL     1      -8.505  15.285  68.759  1.00  0.00    -0.181 A  
HETATM   19  C   UNL     1      -7.243  14.699  68.797  1.00  0.00    -0.124 A  
ENDBRANCH  11  14
BRANCH  11  20
HETATM   20  C   UNL     1     -11.254  12.682  66.195  1.00  0.00    -0.350 A  
HETATM   21  C   UNL     1     -11.294  12.412  63.771  1.00  0.00    -0.536 A  
HETATM   22  C   UNL     1     -12.103  13.537  63.641  1.00  0.00    -0.459 A  
HETATM   23  C   UNL     1     -12.493  14.245  64.774  1.00  0.00    -0.390 A  
HETATM   24  C   UNL     1     -12.068  13.827  66.036  1.00  0.00    -0.470 A  
HETATM   25  C   UNL     1     -10.870  11.988  65.033  1.00  0.00    -0.351 A  
ENDBRANCH  11  20
ENDBRANCH   6   7
ENDBRANCH   3   6
TORSDOF 4
ENDMDL
MODEL       57
REMARK 921   NORMALIZED FREE ENERGY PREDICTED BY IDOCK:   -5.65 KCAL/MOL
REMARK 922        TOTAL FREE ENERGY PREDICTED BY IDOCK:   -7.82 KCAL/MOL
REMARK 923 INTER-LIGAND FREE ENERGY PREDICTED BY IDOCK:   -6.70 KCAL/MOL
REMARK 924 INTRA-LIGAND FREE ENERGY PREDICTED BY IDOCK:   -1.12 KCAL/MOL
REMARK 927      BINDING AFFINITY PREDICTED BY RF-SCORE:    0.00 PKD
ROOT
HETATM    1  O   UNL     1     -12.756  15.571  63.626  1.00  0.00    -0.453 OA 
HETATM    2  P   UNL     1     -12.253  14.280  64.412  1.00  0.00    -0.288 P  
HETATM    3  O   UNL     1     -11.815  13.172  63.332  1.00  0.00    -0.510 OA 
HETATM    4  O   UNL     1     -13.233  13.844  65.450  1.00  0.00    -0.750 OA 
HETATM    5  O   UNL     1     -10.870  14.824  64.995  1.00  0.00    -0.372 OA 
ENDROOT
BRANCH   3   6
HETATM    6  C   UNL     1     -11.753  11.898  63.954  1.00  0.00    -0.415 C  
BRANCH   6   7
HETATM    7  N   UNL     1     -10.502  11.572  64.586  1.00  0.00    -0.282 N  
HETATM    8  C   UNL     1      -9.674  10.701  63.942  1.00  0.00    -0.321 C  
HETATM    9  N   UNL     1      -8.838  10.106  64.838  1.00  0.00    -0.175 NA 
HETATM   10  O   UNL     1      -9.697  10.399  62.759  1.00  0.00    -0.312 OA 
HETATM   11  C   UNL     1      -9.123  10.458  66.209  1.00  0.00    -0.158 C  
HETATM   12  O   UNL     1     -11.003  11.992  66.801  1.00  0.00    -0.256 OA 
HETATM   13  C   UNL     1     -10.314  11.453  65.940  1.00  0.00    -0.250 C  
BRANCH  11  14
HETATM   14  C   UNL     1      -9.663   9.265  67.025  1.00  0.00    -0.241 A  
HETATM   15  C   UNL     1      -9.787   9.288  68.428  1.00  0.00    -0.173 A  
HETATM   16  C   UNL     1     -10.022   8.076  66.357  1.00  0.00    -0.215 A  
HETATM   17  C   UNL     1     -10.485   6.960  67.057  1.00  0.00    -0.374 A  
HETATM   18  C   UNL     1     -10.248   8.169  69.128  1.00  0.00    -0.219 A  
HETATM   19  C   UNL     1     -10.594   7.007  68.445  1.00  0.00    -0.240 A  
ENDBRANCH  11  14
BRANCH  11  20
HETATM   20  C   UNL     1      -7.837  11.086  66.768  1.00  0.00    -0.149 A  
HETATM   21  C   UNL     1      -6.604  13.022  67.593  1.00  0.00    -0.160 A  
HETATM   22  C   UNL     1      -5.413  12.303  67.556  1.00  0.00    -0.118 A  
HETATM   23  C   UNL     1      -5.417  10.979  67.126  1.00  0.00    -0.053 A  
HETATM   24  C   UNL     1      -6.613  10.379  66.729  1.00  0.00    -0.078 A  
HETATM   25  C   UNL     1      -7.804  12.424  67.202  1.00  0.00    -0.138 A  
ENDBRANCH  11  20
ENDBRANCH   6   7
ENDBRANCH   3   6
TORSDOF 4
ENDMDL
MODEL       58
REMARK 921   NORMALIZED FREE ENERGY PREDICTED BY IDOCK:   -5.60 KCAL/MOL
REMARK 922        TOTAL FREE ENERGY PREDICTED BY IDOCK:   -7.76 KCAL/MOL
REMARK 923 INTER-LIGAND FREE ENERGY PREDICTED BY IDOCK:   -6.80 KCAL/MOL
REMARK 924 INTRA-LIGAND FREE ENERGY PREDICTED BY IDOCK:   -0.96 KCAL/MOL
REMARK 927      BINDING AFFINITY PREDICTED BY RF-SCORE:    0.00 PKD
ROOT
HETATM    1  O   UNL     1      -8.886   6.891  65.811  1.00  0.00    -0.145 OA 
HETATM    2  P   UNL     1      -9.843   7.536  66.910  1.00  0.00    -0.234 P  
HETATM    3  O   UNL     1     -10.302   8.986  66.388  1.00  0.00    -0.261 OA 
HETATM    4  O   UNL     1      -9.239   7.482  68.273  1.00  0.00    -0.139 OA 
HETATM    5  O   UNL     1     -11.141   6.626  66.725  1.00  0.00    -0.354 OA 
ENDROOT
BRANCH   3   6
HETATM    6  C   UNL     1     -10.802   9.747  67.476  1.00  0.00    -0.220 C  
BRANCH   6   7
HETATM    7  N   UNL     1     -10.310  11.097  67.571  1.00  0.00    -0.189 N  
HETATM    8  C   UNL     1      -9.314  11.346  68.469  1.00  0.00    -0.180 C  
HETATM    9  N   UNL     1      -9.321  12.664  68.817  1.00  0.00     0.047 NA 
HETATM   10  O   UNL     1      -8.560  10.533  68.980  1.00  0.00    -0.144 OA 
HETATM   11  C   UNL     1     -10.426  13.400  68.249  1.00  0.00    -0.250 C  
HETATM   12  O   UNL     1     -12.134  12.288  66.804  1.00  0.00    -0.593 OA 
HETATM   13  C   UNL     1     -11.078  12.225  67.427  1.00  0.00    -0.282 C  
BRANCH  11  14
HETATM   14  C   UNL     1     -11.439  13.863  69.318  1.00  0.00    -0.348 A  
HETATM   15  C   UNL     1     -11.797  15.213  69.501  1.00  0.00    -0.358 A  
HETATM   16  C   UNL     1     -12.015  12.910  70.183  1.00  0.00    -0.373 A  
HETATM   17  C   UNL     1     -12.910  13.286  71.186  1.00  0.00    -0.363 A  
HETATM   18  C   UNL     1     -12.693  15.588  70.508  1.00  0.00    -0.436 A  
HETATM   19  C   UNL     1     -13.247  14.628  71.350  1.00  0.00    -0.425 A  
ENDBRANCH  11  14
BRANCH  11  20
HETATM   20  C   UNL     1      -9.807  14.535  67.420  1.00  0.00    -0.227 A  
HETATM   21  C   UNL     1      -8.013  16.140  67.020  1.00  0.00    -0.254 A  
HETATM   22  C   UNL     1      -8.782  16.786  66.057  1.00  0.00    -0.218 A  
HETATM   23  C   UNL     1     -10.061  16.323  65.766  1.00  0.00    -0.373 A  
HETATM   24  C   UNL     1     -10.572  15.216  66.444  1.00  0.00    -0.305 A  
HETATM   25  C   UNL     1      -8.518  15.027  67.698  1.00  0.00    -0.170 A  
ENDBRANCH  11  20
ENDBRANCH   6   7
ENDBRANCH   3   6
TORSDOF 4
ENDMDL
MODEL       59
REMARK 921   NORMALIZED FREE ENERGY PREDICTED BY IDOCK:   -5.56 KCAL/MOL
REMARK 922        TOTAL FREE ENERGY PREDICTED BY IDOCK:   -7.71 KCAL/MOL
REMARK 923 INTER-LIGAND FREE ENERGY PREDICTED BY IDOCK:   -7.31 KCAL/MOL
REMARK 924 INTRA-LIGAND FREE ENERGY PREDICTED BY IDOCK:   -0.40 KCAL/MOL
REMARK 927      BINDING AFFINITY PREDICTED BY RF-SCORE:    0.00 PKD
ROOT
HETATM    1  O   UNL     1     -12.610  14.620  63.587  1.00  0.00    -0.773 OA 
HETATM    2  P   UNL     1     -12.262  13.338  64.469  1.00  0.00    -0.382 P  
HETATM    3  O   UNL     1     -10.664  13.252  64.621  1.00  0.00    -0.353 OA 
HETATM    4  O   UNL     1     -12.947  12.113  63.962  1.00  0.00    -0.696 OA 
HETATM    5  O   UNL     1     -12.765  13.834  65.900  1.00  0.00    -0.467 OA 
ENDROOT
BRANCH   3   6
HETATM    6  C   UNL     1     -10.294  11.945  65.032  1.00  0.00    -0.289 C  
BRANCH   6   7
HETATM    7  N   UNL     1     -10.335  11.702  66.450  1.00  0.00    -0.223 N  
HETATM    8  C   UNL     1      -9.675  12.576  67.262  1.00  0.00    -0.202 C  
HETATM    9  N   UNL     1      -9.362  11.969  68.441  1.00  0.00    -0.197 NA 
HETATM   10  O   UNL     1      -9.318  13.711  66.990  1.00  0.00    -0.230 OA 
HETATM   11  C   UNL     1      -9.697  10.565  68.470  1.00  0.00    -0.165 C  
HETATM   12  O   UNL     1     -10.722   9.425  66.497  1.00  0.00    -0.107 OA 
HETATM   13  C   UNL     1     -10.336  10.459  67.034  1.00  0.00    -0.240 C  
BRANCH  11  14
HETATM   14  C   UNL     1      -8.448   9.660  68.511  1.00  0.00    -0.118 A  
HETATM   15  C   UNL     1      -7.169  10.133  68.865  1.00  0.00    -0.079 A  
HETATM   16  C   UNL     1      -8.565   8.303  68.146  1.00  0.00    -0.132 A  
HETATM   17  C   UNL     1      -7.456   7.454  68.137  1.00  0.00    -0.105 A  
HETATM   18  C   UNL     1      -6.059   9.282  68.852  1.00  0.00    -0.043 A  
HETATM   19  C   UNL     1      -6.202   7.946  68.487  1.00  0.00    -0.044 A  
ENDBRANCH  11  14
BRANCH  11  20
HETATM   20  C   UNL     1     -10.663  10.376  69.650  1.00  0.00    -0.304 A  
HETATM   21  C   UNL     1     -11.320   9.217  71.693  1.00  0.00    -0.467 A  
HETATM   22  C   UNL     1     -12.558   9.852  71.677  1.00  0.00    -0.519 A  
HETATM   23  C   UNL     1     -12.865  10.747  70.656  1.00  0.00    -0.377 A  
HETATM   24  C   UNL     1     -11.932  11.001  69.649  1.00  0.00    -0.424 A  
HETATM   25  C   UNL     1     -10.381   9.473  70.690  1.00  0.00    -0.369 A  
ENDBRANCH  11  20
ENDBRANCH   6   7
ENDBRANCH   3   6
TORSDOF 4
ENDMDL
MODEL       60
REMARK 921   NORMALIZED FREE ENERGY PREDICTED BY IDOCK:   -5.55 KCAL/MOL
REMARK 922        TOTAL FREE ENERGY PREDICTED BY IDOCK:   -7.70 KCAL/MOL
REMARK 923 INTER-LIGAND FREE ENERGY PREDICTED BY IDOCK:   -6.96 KCAL/MOL
REMARK 924 INTRA-LIGAND FREE ENERGY PREDICTED BY IDOCK:   -0.74 KCAL/MOL
REMARK 927      BINDING AFFINITY PREDICTED BY RF-SCORE:    0.00 PKD
ROOT
HETATM    1  O   UNL     1     -10.657  17.657  66.816  1.00  0.00    -0.313 OA 
HETATM    2  P   UNL     1     -10.404  16.831  68.155  1.00  0.00    -0.351 P  
HETATM    3  O   UNL     1      -9.044  15.991  67.978  1.00  0.00    -0.187 OA 
HETATM    4  O   UNL     1     -11.613  16.058  68.568  1.00  0.00    -0.381 OA 
HETATM    5  O   UNL     1     -10.005  18.015  69.148  1.00  0.00    -0.308 OA 
ENDROOT
BRANCH   3   6
HETATM    6  C   UNL     1      -8.995  14.955  68.947  1.00  0.00    -0.184 C  
BRANCH   6   7
HETATM    7  N   UNL     1      -8.897  13.617  68.425  1.00  0.00    -0.175 N  
HETATM    8  C   UNL     1      -7.897  13.355  67.537  1.00  0.00    -0.176 C  
HETATM    9  N   UNL     1      -8.228  12.280  66.768  1.00  0.00    -0.113 NA 
HETATM   10  O   UNL     1      -6.879  14.006  67.357  1.00  0.00    -0.198 OA 
HETATM   11  C   UNL     1      -9.564  11.791  67.011  1.00  0.00    -0.187 C  
HETATM   12  O   UNL     1     -11.074  12.884  68.676  1.00  0.00    -0.244 OA 
HETATM   13  C   UNL     1      -9.966  12.800  68.152  1.00  0.00    -0.229 C  
BRANCH  11  14
HETATM   14  C   UNL     1     -10.505  12.021  65.809  1.00  0.00    -0.290 A  
HETATM   15  C   UNL     1     -11.814  12.526  65.945  1.00  0.00    -0.489 A  
HETATM   16  C   UNL     1     -10.066  11.682  64.513  1.00  0.00    -0.321 A  
HETATM   17  C   UNL     1     -10.895  11.841  63.400  1.00  0.00    -0.460 A  
HETATM   18  C   UNL     1     -12.643  12.682  64.829  1.00  0.00    -0.530 A  
HETATM   19  C   UNL     1     -12.185  12.339  63.560  1.00  0.00    -0.669 A  
ENDBRANCH  11  14
BRANCH  11  20
HETATM   20  C   UNL     1      -9.416  10.322  67.436  1.00  0.00    -0.174 A  
HETATM   21  C   UNL     1      -8.026   8.363  67.855  1.00  0.00    -0.115 A  
HETATM   22  C   UNL     1      -9.157   7.561  67.969  1.00  0.00    -0.131 A  
HETATM   23  C   UNL     1     -10.422   8.122  67.818  1.00  0.00    -0.279 A  
HETATM   24  C   UNL     1     -10.551   9.485  67.547  1.00  0.00    -0.338 A  
HETATM   25  C   UNL     1      -8.150   9.728  67.589  1.00  0.00    -0.113 A  
ENDBRANCH  11  20
ENDBRANCH   6   7
ENDBRANCH   3   6
TORSDOF 4
ENDMDL
MODEL       61
REMARK 921   NORMALIZED FREE ENERGY PREDICTED BY IDOCK:   -5.50 KCAL/MOL
REMARK 922        TOTAL FREE ENERGY PREDICTED BY IDOCK:   -7.64 KCAL/MOL
REMARK 923 INTER-LIGAND FREE ENERGY PREDICTED BY IDOCK:   -6.82 KCAL/MOL
REMARK 924 INTRA-LIGAND FREE ENERGY PREDICTED BY IDOCK:   -0.82 KCAL/MOL
REMARK 927      BINDING AFFINITY PREDICTED BY RF-SCORE:    0.00 PKD
ROOT
HETATM    1  O   UNL     1      -8.866   8.878  72.337  1.00  0.00    -0.396 OA 
HETATM    2  P   UNL     1     -10.007   9.009  71.232  1.00  0.00    -0.290 P  
HETATM    3  O   UNL     1      -9.542  10.114  70.160  1.00  0.00    -0.166 OA 
HETATM    4  O   UNL     1     -11.354   9.204  71.844  1.00  0.00    -0.365 OA 
HETATM    5  O   UNL     1      -9.821   7.621  70.467  1.00  0.00    -0.183 OA 
ENDROOT
BRANCH   3   6
HETATM    6  C   UNL     1     -10.665  10.553  69.412  1.00  0.00    -0.241 C  
BRANCH   6   7
HETATM    7  N   UNL     1     -10.639  11.932  68.999  1.00  0.00    -0.164 N  
HETATM    8  C   UNL     1     -11.754  12.683  69.226  1.00  0.00    -0.322 C  
HETATM    9  N   UNL     1     -11.790  13.735  68.361  1.00  0.00    -0.361 NA 
HETATM   10  O   UNL     1     -12.658  12.445  70.012  1.00  0.00    -0.012 OA 
HETATM   11  C   UNL     1     -10.730  13.709  67.382  1.00  0.00    -0.267 C  
HETATM   12  O   UNL     1      -9.047  11.862  67.327  1.00  0.00    -0.169 OA 
HETATM   13  C   UNL     1     -10.000  12.404  67.880  1.00  0.00    -0.204 C  
BRANCH  11  14
HETATM   14  C   UNL     1     -11.251  13.455  65.952  1.00  0.00    -0.314 A  
HETATM   15  C   UNL     1     -11.561  14.495  65.053  1.00  0.00    -0.382 A  
HETATM   16  C   UNL     1     -11.467  12.131  65.520  1.00  0.00    -0.394 A  
HETATM   17  C   UNL     1     -11.969  11.854  64.246  1.00  0.00    -0.353 A  
HETATM   18  C   UNL     1     -12.066  14.216  63.778  1.00  0.00    -0.192 A  
HETATM   19  C   UNL     1     -12.271  12.899  63.377  1.00  0.00    -0.574 A  
ENDBRANCH  11  14
BRANCH  11  20
HETATM   20  C   UNL     1      -9.950  15.021  67.556  1.00  0.00    -0.226 A  
HETATM   21  C   UNL     1      -7.881  16.301  67.385  1.00  0.00    -0.184 A  
HETATM   22  C   UNL     1      -8.447  17.348  68.106  1.00  0.00    -0.241 A  
HETATM   23  C   UNL     1      -9.758  17.247  68.561  1.00  0.00    -0.296 A  
HETATM   24  C   UNL     1     -10.499  16.094  68.296  1.00  0.00    -0.276 A  
HETATM   25  C   UNL     1      -8.621  15.148  67.113  1.00  0.00    -0.247 A  
ENDBRANCH  11  20
ENDBRANCH   6   7
ENDBRANCH   3   6
TORSDOF 4
ENDMDL
MODEL       62
REMARK 921   NORMALIZED FREE ENERGY PREDICTED BY IDOCK:   -5.49 KCAL/MOL
REMARK 922        TOTAL FREE ENERGY PREDICTED BY IDOCK:   -7.63 KCAL/MOL
REMARK 923 INTER-LIGAND FREE ENERGY PREDICTED BY IDOCK:   -6.53 KCAL/MOL
REMARK 924 INTRA-LIGAND FREE ENERGY PREDICTED BY IDOCK:   -1.10 KCAL/MOL
REMARK 927      BINDING AFFINITY PREDICTED BY RF-SCORE:    0.00 PKD
ROOT
HETATM    1  O   UNL     1     -11.149  16.164  68.311  1.00  0.00    -0.331 OA 
HETATM    2  P   UNL     1     -10.971  14.960  67.283  1.00  0.00    -0.336 P  
HETATM    3  O   UNL     1      -9.744  14.049  67.783  1.00  0.00    -0.218 OA 
HETATM    4  O   UNL     1     -10.909  15.439  65.871  1.00  0.00    -0.321 OA 
HETATM    5  O   UNL     1     -12.267  14.095  67.631  1.00  0.00    -0.351 OA 
ENDROOT
BRANCH   3   6
HETATM    6  C   UNL     1      -9.294  13.228  66.716  1.00  0.00    -0.252 C  
BRANCH   6   7
HETATM    7  N   UNL     1      -9.598  11.826  66.837  1.00  0.00    -0.190 N  
HETATM    8  C   UNL     1     -10.725  11.367  66.222  1.00  0.00    -0.270 C  
HETATM    9  N   UNL     1     -11.150  10.222  66.826  1.00  0.00    -0.032 NA 
HETATM   10  O   UNL     1     -11.348  11.908  65.322  1.00  0.00    -0.322 OA 
HETATM   11  C   UNL     1     -10.384   9.874  67.999  1.00  0.00    -0.203 C  
HETATM   12  O   UNL     1      -8.494  11.302  68.797  1.00  0.00    -0.155 OA 
HETATM   13  C   UNL     1      -9.349  11.062  67.949  1.00  0.00    -0.158 C  
BRANCH  11  14
HETATM   14  C   UNL     1     -11.203  10.001  69.300  1.00  0.00    -0.213 A  
HETATM   15  C   UNL     1     -11.944  11.153  69.631  1.00  0.00    -0.429 A  
HETATM   16  C   UNL     1     -11.194   8.941  70.229  1.00  0.00    -0.219 A  
HETATM   17  C   UNL     1     -11.894   9.024  71.435  1.00  0.00    -0.395 A  
HETATM   18  C   UNL     1     -12.643  11.235  70.840  1.00  0.00    -0.467 A  
HETATM   19  C   UNL     1     -12.616  10.174  71.741  1.00  0.00    -0.500 A  
ENDBRANCH  11  14
BRANCH  11  20
HETATM   20  C   UNL     1      -9.809   8.473  67.739  1.00  0.00    -0.218 A  
HETATM   21  C   UNL     1     -10.114   6.133  67.122  1.00  0.00    -0.210 A  
HETATM   22  C   UNL     1      -8.808   5.843  67.504  1.00  0.00    -0.106 A  
HETATM   23  C   UNL     1      -7.992   6.853  68.006  1.00  0.00    -0.115 A  
HETATM   24  C   UNL     1      -8.488   8.151  68.130  1.00  0.00    -0.126 A  
HETATM   25  C   UNL     1     -10.613   7.433  67.239  1.00  0.00    -0.393 A  
ENDBRANCH  11  20
ENDBRANCH   6   7
ENDBRANCH   3   6
TORSDOF 4
ENDMDL
MODEL       63
REMARK 921   NORMALIZED FREE ENERGY PREDICTED BY IDOCK:   -5.47 KCAL/MOL
REMARK 922        TOTAL FREE ENERGY PREDICTED BY IDOCK:   -7.60 KCAL/MOL
REMARK 923 INTER-LIGAND FREE ENERGY PREDICTED BY IDOCK:   -6.63 KCAL/MOL
REMARK 924 INTRA-LIGAND FREE ENERGY PREDICTED BY IDOCK:   -0.97 KCAL/MOL
REMARK 927      BINDING AFFINITY PREDICTED BY RF-SCORE:    0.00 PKD
ROOT
HETATM    1  O   UNL     1     -12.470  14.653  63.715  1.00  0.00    -0.799 OA 
HETATM    2  P   UNL     1     -12.093  13.232  64.328  1.00  0.00    -0.409 P  
HETATM    3  O   UNL     1     -10.874  12.623  63.475  1.00  0.00    -0.429 OA 
HETATM    4  O   UNL     1     -13.294  12.359  64.486  1.00  0.00    -0.800 OA 
HETATM    5  O   UNL     1     -11.420  13.686  65.702  1.00  0.00    -0.303 OA 
ENDROOT
BRANCH   3   6
HETATM    6  C   UNL     1     -10.778  11.227  63.711  1.00  0.00    -0.379 C  
BRANCH   6   7
HETATM    7  N   UNL     1      -9.758  10.820  64.641  1.00  0.00    -0.262 N  
HETATM    8  C   UNL     1      -8.620  10.267  64.132  1.00  0.00    -0.192 C  
HETATM    9  N   UNL     1      -8.020   9.488  65.075  1.00  0.00    -0.114 NA 
HETATM   10  O   UNL     1      -8.206  10.353  62.987  1.00  0.00    -0.156 OA 
HETATM   11  C   UNL     1      -8.790   9.363  66.290  1.00  0.00    -0.147 C  
HETATM   12  O   UNL     1     -11.013  10.475  66.550  1.00  0.00    -0.125 OA 
HETATM   13  C   UNL     1      -9.996  10.293  65.886  1.00  0.00    -0.256 C  
BRANCH  11  14
HETATM   14  C   UNL     1      -9.331   7.934  66.503  1.00  0.00    -0.255 A  
HETATM   15  C   UNL     1      -8.804   6.807  65.842  1.00  0.00    -0.127 A  
HETATM   16  C   UNL     1     -10.426   7.732  67.368  1.00  0.00    -0.362 A  
HETATM   17  C   UNL     1     -10.971   6.461  67.566  1.00  0.00    -0.454 A  
HETATM   18  C   UNL     1      -9.353   5.536  66.040  1.00  0.00    -0.161 A  
HETATM   19  C   UNL     1     -10.435   5.363  66.898  1.00  0.00    -0.337 A  
ENDBRANCH  11  14
BRANCH  11  20
HETATM   20  C   UNL     1      -7.893   9.883  67.424  1.00  0.00    -0.098 A  
HETATM   21  C   UNL     1      -6.588   9.496  69.448  1.00  0.00    -0.044 A  
HETATM   22  C   UNL     1      -6.456  10.867  69.648  1.00  0.00    -0.114 A  
HETATM   23  C   UNL     1      -7.037  11.757  68.749  1.00  0.00    -0.111 A  
HETATM   24  C   UNL     1      -7.754  11.272  67.654  1.00  0.00    -0.115 A  
HETATM   25  C   UNL     1      -7.299   9.006  68.350  1.00  0.00    -0.078 A  
ENDBRANCH  11  20
ENDBRANCH   6   7
ENDBRANCH   3   6
TORSDOF 4
ENDMDL
MODEL       64
REMARK 921   NORMALIZED FREE ENERGY PREDICTED BY IDOCK:   -5.46 KCAL/MOL
REMARK 922        TOTAL FREE ENERGY PREDICTED BY IDOCK:   -7.59 KCAL/MOL
REMARK 923 INTER-LIGAND FREE ENERGY PREDICTED BY IDOCK:   -7.51 KCAL/MOL
REMARK 924 INTRA-LIGAND FREE ENERGY PREDICTED BY IDOCK:   -0.07 KCAL/MOL
REMARK 927      BINDING AFFINITY PREDICTED BY RF-SCORE:    0.00 PKD
ROOT
HETATM    1  O   UNL     1     -14.158  15.848  72.534  1.00  0.00    -0.503 OA 
HETATM    2  P   UNL     1     -13.107  14.781  71.990  1.00  0.00    -0.409 P  
HETATM    3  O   UNL     1     -12.999  14.952  70.394  1.00  0.00    -0.313 OA 
HETATM    4  O   UNL     1     -13.400  13.407  72.492  1.00  0.00    -0.529 OA 
HETATM    5  O   UNL     1     -11.749  15.413  72.542  1.00  0.00    -0.424 OA 
ENDROOT
BRANCH   3   6
HETATM    6  C   UNL     1     -12.410  13.790  69.830  1.00  0.00    -0.275 C  
BRANCH   6   7
HETATM    7  N   UNL     1     -11.189  14.003  69.098  1.00  0.00    -0.260 N  
HETATM    8  C   UNL     1     -11.068  15.162  68.390  1.00  0.00    -0.282 C  
HETATM    9  N   UNL     1     -10.163  15.000  67.384  1.00  0.00    -0.234 NA 
HETATM   10  O   UNL     1     -11.712  16.188  68.539  1.00  0.00    -0.348 OA 
HETATM   11  C   UNL     1      -9.675  13.646  67.265  1.00  0.00    -0.243 C  
HETATM   12  O   UNL     1     -10.483  11.827  68.775  1.00  0.00    -0.214 OA 
HETATM   13  C   UNL     1     -10.467  13.017  68.473  1.00  0.00    -0.249 C  
BRANCH  11  14
HETATM   14  C   UNL     1     -10.149  12.960  65.966  1.00  0.00    -0.290 A  
HETATM   15  C   UNL     1     -10.944  13.609  65.001  1.00  0.00    -0.350 A  
HETATM   16  C   UNL     1      -9.809  11.611  65.734  1.00  0.00    -0.268 A  
HETATM   17  C   UNL     1     -10.243  10.939  64.589  1.00  0.00    -0.411 A  
HETATM   18  C   UNL     1     -11.379  12.933  63.856  1.00  0.00    -0.489 A  
HETATM   19  C   UNL     1     -11.031  11.601  63.652  1.00  0.00    -0.507 A  
ENDBRANCH  11  14
BRANCH  11  20
HETATM   20  C   UNL     1      -8.150  13.722  67.429  1.00  0.00    -0.188 A  
HETATM   21  C   UNL     1      -6.007  12.649  67.883  1.00  0.00    -0.108 A  
HETATM   22  C   UNL     1      -5.386  13.891  67.983  1.00  0.00    -0.106 A  
HETATM   23  C   UNL     1      -6.130  15.054  67.812  1.00  0.00    -0.154 A  
HETATM   24  C   UNL     1      -7.498  14.972  67.546  1.00  0.00    -0.226 A  
HETATM   25  C   UNL     1      -7.374  12.563  67.611  1.00  0.00    -0.134 A  
ENDBRANCH  11  20
ENDBRANCH   6   7
ENDBRANCH   3   6
TORSDOF 4
ENDMDL
MODEL       65
REMARK 921   NORMALIZED FREE ENERGY PREDICTED BY IDOCK:   -5.44 KCAL/MOL
REMARK 922        TOTAL FREE ENERGY PREDICTED BY IDOCK:   -7.56 KCAL/MOL
REMARK 923 INTER-LIGAND FREE ENERGY PREDICTED BY IDOCK:   -6.51 KCAL/MOL
REMARK 924 INTRA-LIGAND FREE ENERGY PREDICTED BY IDOCK:   -1.05 KCAL/MOL
REMARK 927      BINDING AFFINITY PREDICTED BY RF-SCORE:    0.00 PKD
ROOT
HETATM    1  O   UNL     1     -13.038   9.106  72.548  1.00  0.00    -0.429 OA 
HETATM    2  P   UNL     1     -11.862   8.313  71.820  1.00  0.00    -0.356 P  
HETATM    3  O   UNL     1     -10.936   9.380  71.053  1.00  0.00    -0.281 OA 
HETATM    4  O   UNL     1     -12.381   7.176  71.005  1.00  0.00    -0.352 OA 
HETATM    5  O   UNL     1     -10.990   7.877  73.084  1.00  0.00    -0.383 OA 
ENDROOT
BRANCH   3   6
HETATM    6  C   UNL     1     -10.145   8.712  70.082  1.00  0.00    -0.185 C  
BRANCH   6   7
HETATM    7  N   UNL     1     -10.314   9.160  68.724  1.00  0.00    -0.211 N  
HETATM    8  C   UNL     1     -10.527   8.213  67.766  1.00  0.00    -0.214 C  
HETATM    9  N   UNL     1     -10.154   8.693  66.547  1.00  0.00    -0.287 NA 
HETATM   10  O   UNL     1     -10.909   7.065  67.934  1.00  0.00    -0.218 OA 
HETATM   11  C   UNL     1      -9.538   9.997  66.609  1.00  0.00    -0.186 C  
HETATM   12  O   UNL     1      -9.198  11.181  68.783  1.00  0.00    -0.180 OA 
HETATM   13  C   UNL     1      -9.661  10.228  68.163  1.00  0.00    -0.140 C  
BRANCH  11  14
HETATM   14  C   UNL     1      -8.039   9.961  66.243  1.00  0.00    -0.114 A  
HETATM   15  C   UNL     1      -7.192  11.081  66.363  1.00  0.00    -0.127 A  
HETATM   16  C   UNL     1      -7.482   8.773  65.729  1.00  0.00    -0.085 A  
HETATM   17  C   UNL     1      -6.138   8.703  65.353  1.00  0.00    -0.049 A  
HETATM   18  C   UNL     1      -5.848  11.010  65.984  1.00  0.00    -0.125 A  
HETATM   19  C   UNL     1      -5.323   9.824  65.478  1.00  0.00    -0.045 A  
ENDBRANCH  11  14
BRANCH  11  20
HETATM   20  C   UNL     1     -10.391  10.920  65.725  1.00  0.00    -0.303 A  
HETATM   21  C   UNL     1     -10.890  11.915  63.555  1.00  0.00    -0.502 A  
HETATM   22  C   UNL     1     -11.787  12.799  64.146  1.00  0.00    -0.482 A  
HETATM   23  C   UNL     1     -11.996  12.758  65.521  1.00  0.00    -0.497 A  
HETATM   24  C   UNL     1     -11.300  11.835  66.304  1.00  0.00    -0.350 A  
HETATM   25  C   UNL     1     -10.196  10.986  64.333  1.00  0.00    -0.409 A  
ENDBRANCH  11  20
ENDBRANCH   6   7
ENDBRANCH   3   6
TORSDOF 4
ENDMDL
MODEL       66
REMARK 921   NORMALIZED FREE ENERGY PREDICTED BY IDOCK:   -5.44 KCAL/MOL
REMARK 922        TOTAL FREE ENERGY PREDICTED BY IDOCK:   -7.56 KCAL/MOL
REMARK 923 INTER-LIGAND FREE ENERGY PREDICTED BY IDOCK:   -6.55 KCAL/MOL
REMARK 924 INTRA-LIGAND FREE ENERGY PREDICTED BY IDOCK:   -1.01 KCAL/MOL
REMARK 927      BINDING AFFINITY PREDICTED BY RF-SCORE:    0.00 PKD
ROOT
HETATM    1  O   UNL     1      -7.089   6.975  64.906  1.00  0.00    -0.059 OA 
HETATM    2  P   UNL     1      -8.106   7.789  65.825  1.00  0.00    -0.138 P  
HETATM    3  O   UNL     1      -7.256   8.810  66.732  1.00  0.00    -0.080 OA 
HETATM    4  O   UNL     1      -9.048   6.885  66.547  1.00  0.00    -0.146 OA 
HETATM    5  O   UNL     1      -8.794   8.722  64.728  1.00  0.00    -0.154 OA 
ENDROOT
BRANCH   3   6
HETATM    6  C   UNL     1      -8.049   9.247  67.826  1.00  0.00    -0.104 C  
BRANCH   6   7
HETATM    7  N   UNL     1      -8.714  10.511  67.648  1.00  0.00    -0.122 N  
HETATM    8  C   UNL     1      -8.133  11.615  68.199  1.00  0.00    -0.148 C  
HETATM    9  N   UNL     1      -9.074  12.579  68.407  1.00  0.00    -0.173 NA 
HETATM   10  O   UNL     1      -6.972  11.740  68.553  1.00  0.00    -0.071 OA 
HETATM   11  C   UNL     1     -10.417  12.144  68.107  1.00  0.00    -0.211 C  
HETATM   12  O   UNL     1     -10.893   9.822  67.317  1.00  0.00    -0.265 OA 
HETATM   13  C   UNL     1     -10.075  10.685  67.619  1.00  0.00    -0.177 C  
BRANCH  11  14
HETATM   14  C   UNL     1     -11.299  12.038  69.369  1.00  0.00    -0.317 A  
HETATM   15  C   UNL     1     -11.640  10.808  69.965  1.00  0.00    -0.417 A  
HETATM   16  C   UNL     1     -11.827  13.212  69.944  1.00  0.00    -0.378 A  
HETATM   17  C   UNL     1     -12.657  13.162  71.066  1.00  0.00    -0.397 A  
HETATM   18  C   UNL     1     -12.474  10.759  71.087  1.00  0.00    -0.519 A  
HETATM   19  C   UNL     1     -12.983  11.933  71.635  1.00  0.00    -0.447 A  
ENDBRANCH  11  14
BRANCH  11  20
HETATM   20  C   UNL     1     -10.951  13.103  67.032  1.00  0.00    -0.289 A  
HETATM   21  C   UNL     1     -12.491  13.602  65.207  1.00  0.00    -0.517 A  
HETATM   22  C   UNL     1     -11.772  14.751  64.890  1.00  0.00    -0.390 A  
HETATM   23  C   UNL     1     -10.642  15.087  65.630  1.00  0.00    -0.360 A  
HETATM   24  C   UNL     1     -10.231  14.269  66.684  1.00  0.00    -0.272 A  
HETATM   25  C   UNL     1     -12.086  12.784  66.265  1.00  0.00    -0.400 A  
ENDBRANCH  11  20
ENDBRANCH   6   7
ENDBRANCH   3   6
TORSDOF 4
ENDMDL
MODEL       67
REMARK 921   NORMALIZED FREE ENERGY PREDICTED BY IDOCK:   -5.39 KCAL/MOL
REMARK 922        TOTAL FREE ENERGY PREDICTED BY IDOCK:   -7.50 KCAL/MOL
REMARK 923 INTER-LIGAND FREE ENERGY PREDICTED BY IDOCK:   -6.87 KCAL/MOL
REMARK 924 INTRA-LIGAND FREE ENERGY PREDICTED BY IDOCK:   -0.63 KCAL/MOL
REMARK 927      BINDING AFFINITY PREDICTED BY RF-SCORE:    0.00 PKD
ROOT
HETATM    1  O   UNL     1     -13.161   8.602  72.997  1.00  0.00    -0.239 OA 
HETATM    2  P   UNL     1     -11.974   8.421  71.950  1.00  0.00    -0.393 P  
HETATM    3  O   UNL     1     -11.444   9.881  71.534  1.00  0.00    -0.365 OA 
HETATM    4  O   UNL     1     -12.354   7.509  70.831  1.00  0.00    -0.266 OA 
HETATM    5  O   UNL     1     -10.834   7.851  72.910  1.00  0.00    -0.362 OA 
ENDROOT
BRANCH   3   6
HETATM    6  C   UNL     1     -10.693   9.790  70.333  1.00  0.00    -0.308 C  
BRANCH   6   7
HETATM    7  N   UNL     1     -10.789  10.923  69.450  1.00  0.00    -0.234 N  
HETATM    8  C   UNL     1     -12.004  11.191  68.893  1.00  0.00    -0.298 C  
HETATM    9  N   UNL     1     -11.840  11.904  67.743  1.00  0.00    -0.573 NA 
HETATM   10  O   UNL     1     -13.095  10.800  69.277  1.00  0.00     0.133 OA 
HETATM   11  C   UNL     1     -10.457  12.079  67.369  1.00  0.00    -0.216 C  
HETATM   12  O   UNL     1      -8.601  11.110  68.733  1.00  0.00    -0.160 OA 
HETATM   13  C   UNL     1      -9.800  11.336  68.593  1.00  0.00    -0.202 C  
BRANCH  11  14
HETATM   14  C   UNL     1     -10.091  11.308  66.082  1.00  0.00    -0.279 A  
HETATM   15  C   UNL     1      -9.403  10.079  66.093  1.00  0.00    -0.220 A  
HETATM   16  C   UNL     1     -10.421  11.862  64.828  1.00  0.00    -0.333 A  
HETATM   17  C   UNL     1     -10.081  11.217  63.637  1.00  0.00    -0.432 A  
HETATM   18  C   UNL     1      -9.061   9.436  64.899  1.00  0.00    -0.258 A  
HETATM   19  C   UNL     1      -9.397  10.004  63.674  1.00  0.00    -0.301 A  
ENDBRANCH  11  14
BRANCH  11  20
HETATM   20  C   UNL     1     -10.218  13.595  67.297  1.00  0.00    -0.246 A  
HETATM   21  C   UNL     1     -11.071  15.875  67.157  1.00  0.00    -0.148 A  
HETATM   22  C   UNL     1      -9.789  16.359  66.910  1.00  0.00    -0.266 A  
HETATM   23  C   UNL     1      -8.715  15.476  66.851  1.00  0.00    -0.281 A  
HETATM   24  C   UNL     1      -8.927  14.109  67.035  1.00  0.00    -0.251 A  
HETATM   25  C   UNL     1     -11.286  14.508  67.346  1.00  0.00    -0.370 A  
ENDBRANCH  11  20
ENDBRANCH   6   7
ENDBRANCH   3   6
TORSDOF 4
ENDMDL
MODEL       68
REMARK 921   NORMALIZED FREE ENERGY PREDICTED BY IDOCK:   -5.32 KCAL/MOL
REMARK 922        TOTAL FREE ENERGY PREDICTED BY IDOCK:   -7.41 KCAL/MOL
REMARK 923 INTER-LIGAND FREE ENERGY PREDICTED BY IDOCK:   -6.98 KCAL/MOL
REMARK 924 INTRA-LIGAND FREE ENERGY PREDICTED BY IDOCK:   -0.43 KCAL/MOL
REMARK 927      BINDING AFFINITY PREDICTED BY RF-SCORE:    0.00 PKD
ROOT
HETATM    1  O   UNL     1      -5.613  19.513  67.697  1.00  0.00    -0.180 OA 
HETATM    2  P   UNL     1      -6.584  19.002  68.852  1.00  0.00    -0.295 P  
HETATM    3  O   UNL     1      -6.799  17.419  68.664  1.00  0.00    -0.197 OA 
HETATM    4  O   UNL     1      -7.820  19.833  68.949  1.00  0.00    -0.303 OA 
HETATM    5  O   UNL     1      -5.611  19.116  70.112  1.00  0.00    -0.225 OA 
ENDROOT
BRANCH   3   6
HETATM    6  C   UNL     1      -7.945  17.005  69.392  1.00  0.00     0.220 C  
BRANCH   6   7
HETATM    7  N   UNL     1      -9.055  16.545  68.599  1.00  0.00    -0.231 N  
HETATM    8  C   UNL     1     -10.130  17.374  68.473  1.00  0.00    -0.352 C  
HETATM    9  N   UNL     1     -11.244  16.648  68.174  1.00  0.00    -0.287 NA 
HETATM   10  O   UNL     1     -10.162  18.578  68.673  1.00  0.00    -0.377 OA 
HETATM   11  C   UNL     1     -11.020  15.222  68.188  1.00  0.00    -0.292 C  
HETATM   12  O   UNL     1      -8.784  14.255  68.746  1.00  0.00    -0.167 OA 
HETATM   13  C   UNL     1      -9.481  15.242  68.526  1.00  0.00    -0.200 C  
BRANCH  11  14
HETATM   14  C   UNL     1     -11.759  14.518  69.346  1.00  0.00    -0.361 A  
HETATM   15  C   UNL     1     -12.415  15.220  70.376  1.00  0.00    -0.426 A  
HETATM   16  C   UNL     1     -11.760  13.110  69.410  1.00  0.00    -0.386 A  
HETATM   17  C   UNL     1     -12.388  12.431  70.456  1.00  0.00    -0.346 A  
HETATM   18  C   UNL     1     -13.041  14.538  71.425  1.00  0.00    -0.423 A  
HETATM   19  C   UNL     1     -13.026  13.147  71.466  1.00  0.00    -0.412 A  
ENDBRANCH  11  14
BRANCH  11  20
HETATM   20  C   UNL     1     -11.392  14.713  66.787  1.00  0.00    -0.360 A  
HETATM   21  C   UNL     1     -12.971  13.644  65.266  1.00  0.00    -0.315 A  
HETATM   22  C   UNL     1     -11.988  13.548  64.285  1.00  0.00    -0.479 A  
HETATM   23  C   UNL     1     -10.706  14.025  64.539  1.00  0.00    -0.355 A  
HETATM   24  C   UNL     1     -10.408  14.594  65.778  1.00  0.00    -0.349 A  
HETATM   25  C   UNL     1     -12.678  14.218  66.505  1.00  0.00     0.114 A  
ENDBRANCH  11  20
ENDBRANCH   6   7
ENDBRANCH   3   6
TORSDOF 4
ENDMDL
MODEL       69
REMARK 921   NORMALIZED FREE ENERGY PREDICTED BY IDOCK:   -5.29 KCAL/MOL
REMARK 922        TOTAL FREE ENERGY PREDICTED BY IDOCK:   -7.38 KCAL/MOL
REMARK 923 INTER-LIGAND FREE ENERGY PREDICTED BY IDOCK:   -6.85 KCAL/MOL
REMARK 924 INTRA-LIGAND FREE ENERGY PREDICTED BY IDOCK:   -0.53 KCAL/MOL
REMARK 927      BINDING AFFINITY PREDICTED BY RF-SCORE:    0.00 PKD
ROOT
HETATM    1  O   UNL     1     -10.418   6.931  71.656  1.00  0.00    -0.204 OA 
HETATM    2  P   UNL     1     -10.030   8.470  71.516  1.00  0.00    -0.300 P  
HETATM    3  O   UNL     1     -10.044   8.851  69.954  1.00  0.00    -0.185 OA 
HETATM    4  O   UNL     1      -8.784   8.799  72.269  1.00  0.00    -0.375 OA 
HETATM    5  O   UNL     1     -11.353   9.150  72.096  1.00  0.00    -0.330 OA 
ENDROOT
BRANCH   3   6
HETATM    6  C   UNL     1      -9.326  10.059  69.753  1.00  0.00    -0.202 C  
BRANCH   6   7
HETATM    7  N   UNL     1      -9.557  10.720  68.496  1.00  0.00    -0.176 N  
HETATM    8  C   UNL     1      -8.504  10.835  67.636  1.00  0.00    -0.119 C  
HETATM    9  N   UNL     1      -8.710  11.880  66.787  1.00  0.00    -0.191 NA 
HETATM   10  O   UNL     1      -7.472  10.183  67.642  1.00  0.00    -0.089 OA 
HETATM   11  C   UNL     1      -9.899  12.641  67.091  1.00  0.00    -0.212 C  
HETATM   12  O   UNL     1     -11.369  12.052  69.023  1.00  0.00    -0.236 OA 
HETATM   13  C   UNL     1     -10.405  11.783  68.312  1.00  0.00    -0.206 C  
BRANCH  11  14
HETATM   14  C   UNL     1      -9.578  14.062  67.598  1.00  0.00    -0.221 A  
HETATM   15  C   UNL     1      -8.683  14.928  66.939  1.00  0.00    -0.276 A  
HETATM   16  C   UNL     1     -10.170  14.520  68.793  1.00  0.00    -0.244 A  
HETATM   17  C   UNL     1      -9.883  15.786  69.308  1.00  0.00    -0.265 A  
HETATM   18  C   UNL     1      -8.395  16.195  67.457  1.00  0.00    -0.175 A  
HETATM   19  C   UNL     1      -8.992  16.622  68.640  1.00  0.00    -0.246 A  
ENDBRANCH  11  14
BRANCH  11  20
HETATM   20  C   UNL     1     -10.775  12.594  65.830  1.00  0.00    -0.295 A  
HETATM   21  C   UNL     1     -12.904  12.987  64.707  1.00  0.00    -0.336 A  
HETATM   22  C   UNL     1     -12.468  12.279  63.591  1.00  0.00    -0.647 A  
HETATM   23  C   UNL     1     -11.193  11.721  63.580  1.00  0.00    -0.494 A  
HETATM   24  C   UNL     1     -10.358  11.869  64.689  1.00  0.00    -0.326 A  
HETATM   25  C   UNL     1     -12.070  13.143  65.816  1.00  0.00    -0.502 A  
ENDBRANCH  11  20
ENDBRANCH   6   7
ENDBRANCH   3   6
TORSDOF 4
ENDMDL
MODEL       70
REMARK 921   NORMALIZED FREE ENERGY PREDICTED BY IDOCK:   -5.28 KCAL/MOL
REMARK 922        TOTAL FREE ENERGY PREDICTED BY IDOCK:   -7.37 KCAL/MOL
REMARK 923 INTER-LIGAND FREE ENERGY PREDICTED BY IDOCK:   -7.07 KCAL/MOL
REMARK 924 INTRA-LIGAND FREE ENERGY PREDICTED BY IDOCK:   -0.30 KCAL/MOL
REMARK 927      BINDING AFFINITY PREDICTED BY RF-SCORE:    0.00 PKD
ROOT
HETATM    1  O   UNL     1      -7.384   8.996  65.058  1.00  0.00    -0.093 OA 
HETATM    2  P   UNL     1      -8.470  10.148  64.873  1.00  0.00    -0.188 P  
HETATM    3  O   UNL     1      -8.173  11.298  65.957  1.00  0.00    -0.142 OA 
HETATM    4  O   UNL     1      -9.860   9.603  64.848  1.00  0.00    -0.232 OA 
HETATM    5  O   UNL     1      -7.982  10.779  63.491  1.00  0.00    -0.013 OA 
ENDROOT
BRANCH   3   6
HETATM    6  C   UNL     1      -9.320  12.120  66.105  1.00  0.00    -0.195 C  
BRANCH   6   7
HETATM    7  N   UNL     1     -10.232  11.737  67.150  1.00  0.00    -0.210 N  
HETATM    8  C   UNL     1     -11.568  11.817  66.887  1.00  0.00    -0.234 C  
HETATM    9  N   UNL     1     -12.265  11.937  68.052  1.00  0.00    -0.397 NA 
HETATM   10  O   UNL     1     -12.103  11.867  65.790  1.00  0.00    -0.451 OA 
HETATM   11  C   UNL     1     -11.419  12.063  69.215  1.00  0.00    -0.301 C  
HETATM   12  O   UNL     1      -8.928  12.082  69.024  1.00  0.00     0.129 OA 
HETATM   13  C   UNL     1     -10.025  11.948  68.490  1.00  0.00    -0.192 C  
BRANCH  11  14
HETATM   14  C   UNL     1     -11.512  13.460  69.864  1.00  0.00    -0.181 A  
HETATM   15  C   UNL     1     -12.219  13.706  71.058  1.00  0.00    -0.374 A  
HETATM   16  C   UNL     1     -10.899  14.560  69.230  1.00  0.00    -0.270 A  
HETATM   17  C   UNL     1     -10.984  15.848  69.763  1.00  0.00    -0.328 A  
HETATM   18  C   UNL     1     -12.306  14.997  71.590  1.00  0.00    -0.408 A  
HETATM   19  C   UNL     1     -11.692  16.065  70.943  1.00  0.00    -0.438 A  
ENDBRANCH  11  14
BRANCH  11  20
HETATM   20  C   UNL     1     -11.789  10.899  70.146  1.00  0.00    -0.438 A  
HETATM   21  C   UNL     1     -13.246   9.908  71.833  1.00  0.00    -0.558 A  
HETATM   22  C   UNL     1     -12.335   8.877  72.040  1.00  0.00    -0.460 A  
HETATM   23  C   UNL     1     -11.149   8.843  71.313  1.00  0.00    -0.367 A  
HETATM   24  C   UNL     1     -10.875   9.846  70.382  1.00  0.00    -0.380 A  
HETATM   25  C   UNL     1     -12.978  10.911  70.898  1.00  0.00    -0.347 A  
ENDBRANCH  11  20
ENDBRANCH   6   7
ENDBRANCH   3   6
TORSDOF 4
ENDMDL
MODEL       71
REMARK 921   NORMALIZED FREE ENERGY PREDICTED BY IDOCK:   -5.26 KCAL/MOL
REMARK 922        TOTAL FREE ENERGY PREDICTED BY IDOCK:   -7.35 KCAL/MOL
REMARK 923 INTER-LIGAND FREE ENERGY PREDICTED BY IDOCK:   -6.24 KCAL/MOL
REMARK 924 INTRA-LIGAND FREE ENERGY PREDICTED BY IDOCK:   -1.11 KCAL/MOL
REMARK 927      BINDING AFFINITY PREDICTED BY RF-SCORE:    0.00 PKD
ROOT
HETATM    1  O   UNL     1      -8.600   5.226  67.625  1.00  0.00    -0.106 OA 
HETATM    2  P   UNL     1      -7.865   6.353  66.771  1.00  0.00    -0.106 P  
HETATM    3  O   UNL     1      -7.740   7.672  67.682  1.00  0.00    -0.116 OA 
HETATM    4  O   UNL     1      -8.493   6.531  65.429  1.00  0.00    -0.151 OA 
HETATM    5  O   UNL     1      -6.383   5.761  66.735  1.00  0.00    -0.036 OA 
ENDROOT
BRANCH   3   6
HETATM    6  C   UNL     1      -7.476   8.797  66.858  1.00  0.00    -0.090 C  
BRANCH   6   7
HETATM    7  N   UNL     1      -8.298   9.953  67.099  1.00  0.00    -0.121 N  
HETATM    8  C   UNL     1      -7.784  10.944  67.883  1.00  0.00    -0.104 C  
HETATM    9  N   UNL     1      -8.796  11.672  68.434  1.00  0.00    -0.166 NA 
HETATM   10  O   UNL     1      -6.610  11.137  68.153  1.00  0.00    -0.057 OA 
HETATM   11  C   UNL     1     -10.107  11.142  68.144  1.00  0.00    -0.179 C  
HETATM   12  O   UNL     1     -10.409   9.069  66.782  1.00  0.00    -0.261 OA 
HETATM   13  C   UNL     1      -9.663   9.930  67.240  1.00  0.00    -0.171 C  
BRANCH  11  14
HETATM   14  C   UNL     1     -10.808  10.579  69.398  1.00  0.00    -0.291 A  
HETATM   15  C   UNL     1     -12.095  10.983  69.804  1.00  0.00    -0.424 A  
HETATM   16  C   UNL     1     -10.130   9.644  70.207  1.00  0.00    -0.331 A  
HETATM   17  C   UNL     1     -10.711   9.133  71.370  1.00  0.00    -0.414 A  
HETATM   18  C   UNL     1     -12.675  10.471  70.970  1.00  0.00    -0.504 A  
HETATM   19  C   UNL     1     -11.983   9.550  71.752  1.00  0.00    -0.443 A  
ENDBRANCH  11  14
BRANCH  11  20
HETATM   20  C   UNL     1     -10.877  12.264  67.430  1.00  0.00    -0.277 A  
HETATM   21  C   UNL     1     -12.240  13.052  65.567  1.00  0.00    -0.521 A  
HETATM   22  C   UNL     1     -12.079  14.370  65.983  1.00  0.00    -0.370 A  
HETATM   23  C   UNL     1     -11.320  14.652  67.115  1.00  0.00    -0.365 A  
HETATM   24  C   UNL     1     -10.719  13.613  67.826  1.00  0.00    -0.255 A  
HETATM   25  C   UNL     1     -11.645  12.008  66.280  1.00  0.00    -0.378 A  
ENDBRANCH  11  20
ENDBRANCH   6   7
ENDBRANCH   3   6
TORSDOF 4
ENDMDL
MODEL       72
REMARK 921   NORMALIZED FREE ENERGY PREDICTED BY IDOCK:   -5.22 KCAL/MOL
REMARK 922        TOTAL FREE ENERGY PREDICTED BY IDOCK:   -7.29 KCAL/MOL
REMARK 923 INTER-LIGAND FREE ENERGY PREDICTED BY IDOCK:   -7.00 KCAL/MOL
REMARK 924 INTRA-LIGAND FREE ENERGY PREDICTED BY IDOCK:   -0.29 KCAL/MOL
REMARK 927      BINDING AFFINITY PREDICTED BY RF-SCORE:    0.00 PKD
ROOT
HETATM    1  O   UNL     1      -7.803   7.119  71.690  1.00  0.00    -0.095 OA 
HETATM    2  P   UNL     1      -8.072   8.585  71.128  1.00  0.00    -0.159 P  
HETATM    3  O   UNL     1      -8.812   8.451  69.706  1.00  0.00    -0.132 OA 
HETATM    4  O   UNL     1      -6.839   9.426  71.158  1.00  0.00    -0.194 OA 
HETATM    5  O   UNL     1      -9.223   9.064  72.124  1.00  0.00    -0.365 OA 
ENDROOT
BRANCH   3   6
HETATM    6  C   UNL     1      -8.704   9.675  68.996  1.00  0.00    -0.142 C  
BRANCH   6   7
HETATM    7  N   UNL     1      -9.733  10.645  69.266  1.00  0.00    -0.194 N  
HETATM    8  C   UNL     1     -11.007  10.188  69.432  1.00  0.00    -0.245 C  
HETATM    9  N   UNL     1     -11.896  11.184  69.158  1.00  0.00    -0.328 NA 
HETATM   10  O   UNL     1     -11.354   9.048  69.697  1.00  0.00    -0.063 OA 
HETATM   11  C   UNL     1     -11.274  12.389  68.664  1.00  0.00    -0.271 C  
HETATM   12  O   UNL     1      -8.801  12.546  68.341  1.00  0.00    -0.181 OA 
HETATM   13  C   UNL     1      -9.774  11.912  68.740  1.00  0.00    -0.039 C  
BRANCH  11  14
HETATM   14  C   UNL     1     -11.618  12.669  67.186  1.00  0.00    -0.434 A  
HETATM   15  C   UNL     1     -12.472  13.715  66.782  1.00  0.00    -0.241 A  
HETATM   16  C   UNL     1     -11.093  11.829  66.183  1.00  0.00    -0.358 A  
HETATM   17  C   UNL     1     -11.404  12.025  64.836  1.00  0.00    -0.366 A  
HETATM   18  C   UNL     1     -12.783  13.908  65.432  1.00  0.00    -0.525 A  
HETATM   19  C   UNL     1     -12.252  13.063  64.462  1.00  0.00    -0.476 A  
ENDBRANCH  11  14
BRANCH  11  20
HETATM   20  C   UNL     1     -11.671  13.509  69.638  1.00  0.00    -0.378 A  
HETATM   21  C   UNL     1     -13.181  14.425  71.321  1.00  0.00    -0.416 A  
HETATM   22  C   UNL     1     -12.550  15.662  71.240  1.00  0.00    -0.523 A  
HETATM   23  C   UNL     1     -11.484  15.841  70.364  1.00  0.00    -0.380 A  
HETATM   24  C   UNL     1     -11.053  14.780  69.566  1.00  0.00    -0.302 A  
HETATM   25  C   UNL     1     -12.750  13.358  70.528  1.00  0.00    -0.194 A  
ENDBRANCH  11  20
ENDBRANCH   6   7
ENDBRANCH   3   6
TORSDOF 4
ENDMDL
MODEL       73
REMARK 921   NORMALIZED FREE ENERGY PREDICTED BY IDOCK:   -5.19 KCAL/MOL
REMARK 922        TOTAL FREE ENERGY PREDICTED BY IDOCK:   -7.25 KCAL/MOL
REMARK 923 INTER-LIGAND FREE ENERGY PREDICTED BY IDOCK:   -6.33 KCAL/MOL
REMARK 924 INTRA-LIGAND FREE ENERGY PREDICTED BY IDOCK:   -0.92 KCAL/MOL
REMARK 927      BINDING AFFINITY PREDICTED BY RF-SCORE:    0.00 PKD
ROOT
HETATM    1  O   UNL     1     -10.266   8.048  72.578  1.00  0.00    -0.243 OA 
HETATM    2  P   UNL     1     -10.757   7.307  71.255  1.00  0.00    -0.229 P  
HETATM    3  O   UNL     1     -10.074   8.029  69.992  1.00  0.00    -0.190 OA 
HETATM    4  O   UNL     1     -12.243   7.166  71.216  1.00  0.00    -0.328 OA 
HETATM    5  O   UNL     1      -9.965   5.928  71.392  1.00  0.00    -0.178 OA 
ENDROOT
BRANCH   3   6
HETATM    6  C   UNL     1     -10.779   7.686  68.808  1.00  0.00    -0.077 C  
BRANCH   6   7
HETATM    7  N   UNL     1     -10.709   8.647  67.739  1.00  0.00    -0.168 N  
HETATM    8  C   UNL     1      -9.838   8.400  66.720  1.00  0.00    -0.259 C  
HETATM    9  N   UNL     1      -9.504   9.566  66.101  1.00  0.00    -0.201 NA 
HETATM   10  O   UNL     1      -9.336   7.327  66.422  1.00  0.00    -0.176 OA 
HETATM   11  C   UNL     1     -10.052  10.735  66.746  1.00  0.00    -0.222 C  
HETATM   12  O   UNL     1     -11.445  10.556  68.813  1.00  0.00    -0.260 OA 
HETATM   13  C   UNL     1     -10.847  10.004  67.894  1.00  0.00    -0.271 C  
BRANCH  11  14
HETATM   14  C   UNL     1      -8.965  11.617  67.396  1.00  0.00    -0.166 A  
HETATM   15  C   UNL     1      -8.686  12.930  66.971  1.00  0.00    -0.195 A  
HETATM   16  C   UNL     1      -8.181  11.087  68.442  1.00  0.00    -0.137 A  
HETATM   17  C   UNL     1      -7.163  11.836  69.038  1.00  0.00    -0.080 A  
HETATM   18  C   UNL     1      -7.665  13.678  67.568  1.00  0.00    -0.183 A  
HETATM   19  C   UNL     1      -6.904  13.131  68.597  1.00  0.00    -0.099 A  
ENDBRANCH  11  14
BRANCH  11  20
HETATM   20  C   UNL     1     -10.908  11.450  65.689  1.00  0.00    -0.280 A  
HETATM   21  C   UNL     1     -11.357  12.042  63.366  1.00  0.00    -0.484 A  
HETATM   22  C   UNL     1     -12.320  12.963  63.767  1.00  0.00    -0.500 A  
HETATM   23  C   UNL     1     -12.586  13.141  65.122  1.00  0.00    -0.525 A  
HETATM   24  C   UNL     1     -11.884  12.399  66.073  1.00  0.00    -0.459 A  
HETATM   25  C   UNL     1     -10.655  11.294  64.314  1.00  0.00    -0.422 A  
ENDBRANCH  11  20
ENDBRANCH   6   7
ENDBRANCH   3   6
TORSDOF 4
ENDMDL
MODEL       74
REMARK 921   NORMALIZED FREE ENERGY PREDICTED BY IDOCK:   -5.18 KCAL/MOL
REMARK 922        TOTAL FREE ENERGY PREDICTED BY IDOCK:   -7.24 KCAL/MOL
REMARK 923 INTER-LIGAND FREE ENERGY PREDICTED BY IDOCK:   -6.53 KCAL/MOL
REMARK 924 INTRA-LIGAND FREE ENERGY PREDICTED BY IDOCK:   -0.71 KCAL/MOL
REMARK 927      BINDING AFFINITY PREDICTED BY RF-SCORE:    0.00 PKD
ROOT
HETATM    1  O   UNL     1     -12.021  16.374  72.254  1.00  0.00    -0.524 OA 
HETATM    2  P   UNL     1     -12.906  15.121  71.825  1.00  0.00    -0.436 P  
HETATM    3  O   UNL     1     -11.915  13.932  71.387  1.00  0.00    -0.216 OA 
HETATM    4  O   UNL     1     -13.965  15.497  70.843  1.00  0.00    -0.489 OA 
HETATM    5  O   UNL     1     -13.459  14.662  73.251  1.00  0.00    -0.570 OA 
ENDROOT
BRANCH   3   6
HETATM    6  C   UNL     1     -12.632  12.970  70.628  1.00  0.00    -0.193 C  
BRANCH   6   7
HETATM    7  N   UNL     1     -11.879  12.300  69.601  1.00  0.00    -0.328 N  
HETATM    8  C   UNL     1     -11.244  11.140  69.934  1.00  0.00    -0.217 C  
HETATM    9  N   UNL     1     -10.204  10.918  69.083  1.00  0.00    -0.214 NA 
HETATM   10  O   UNL     1     -11.478  10.420  70.892  1.00  0.00    -0.344 OA 
HETATM   11  C   UNL     1      -9.983  12.001  68.154  1.00  0.00    -0.203 C  
HETATM   12  O   UNL     1     -11.395  14.062  68.187  1.00  0.00    -0.264 OA 
HETATM   13  C   UNL     1     -11.171  12.931  68.609  1.00  0.00    -0.281 C  
BRANCH  11  14
HETATM   14  C   UNL     1      -8.657  12.745  68.418  1.00  0.00    -0.123 A  
HETATM   15  C   UNL     1      -8.593  14.127  68.688  1.00  0.00    -0.126 A  
HETATM   16  C   UNL     1      -7.441  12.035  68.355  1.00  0.00    -0.110 A  
HETATM   17  C   UNL     1      -6.215  12.673  68.554  1.00  0.00    -0.067 A  
HETATM   18  C   UNL     1      -7.364  14.765  68.885  1.00  0.00    -0.130 A  
HETATM   19  C   UNL     1      -6.178  14.040  68.816  1.00  0.00    -0.087 A  
ENDBRANCH  11  14
BRANCH  11  20
HETATM   20  C   UNL     1     -10.107  11.395  66.747  1.00  0.00    -0.250 A  
HETATM   21  C   UNL     1      -9.815   9.527  65.206  1.00  0.00    -0.179 A  
HETATM   22  C   UNL     1     -10.094  10.354  64.122  1.00  0.00    -0.262 A  
HETATM   23  C   UNL     1     -10.378  11.700  64.332  1.00  0.00    -0.362 A  
HETATM   24  C   UNL     1     -10.378  12.217  65.629  1.00  0.00    -0.289 A  
HETATM   25  C   UNL     1      -9.818  10.039  66.506  1.00  0.00    -0.267 A  
ENDBRANCH  11  20
ENDBRANCH   6   7
ENDBRANCH   3   6
TORSDOF 4
ENDMDL
MODEL       75
REMARK 921   NORMALIZED FREE ENERGY PREDICTED BY IDOCK:   -5.16 KCAL/MOL
REMARK 922        TOTAL FREE ENERGY PREDICTED BY IDOCK:   -7.22 KCAL/MOL
REMARK 923 INTER-LIGAND FREE ENERGY PREDICTED BY IDOCK:   -6.26 KCAL/MOL
REMARK 924 INTRA-LIGAND FREE ENERGY PREDICTED BY IDOCK:   -0.96 KCAL/MOL
REMARK 927      BINDING AFFINITY PREDICTED BY RF-SCORE:    0.00 PKD
ROOT
HETATM    1  O   UNL     1     -12.222  11.174  68.719  1.00  0.00    -0.555 OA 
HETATM    2  P   UNL     1     -12.257  10.786  70.265  1.00  0.00    -0.339 P  
HETATM    3  O   UNL     1     -10.831  10.157  70.658  1.00  0.00    -0.308 OA 
HETATM    4  O   UNL     1     -13.459   9.970  70.606  1.00  0.00    -0.260 OA 
HETATM    5  O   UNL     1     -12.237  12.240  70.922  1.00  0.00    -0.353 OA 
ENDROOT
BRANCH   3   6
HETATM    6  C   UNL     1     -10.947   9.439  71.876  1.00  0.00    -0.073 C  
BRANCH   6   7
HETATM    7  N   UNL     1     -10.419   8.100  71.864  1.00  0.00    -0.229 N  
HETATM    8  C   UNL     1      -9.065   7.951  71.940  1.00  0.00    -0.146 C  
HETATM    9  N   UNL     1      -8.699   6.751  71.408  1.00  0.00    -0.131 NA 
HETATM   10  O   UNL     1      -8.253   8.774  72.333  1.00  0.00    -0.377 OA 
HETATM   11  C   UNL     1      -9.798   6.028  70.815  1.00  0.00    -0.181 C  
HETATM   12  O   UNL     1     -12.114   6.966  70.779  1.00  0.00    -0.374 OA 
HETATM   13  C   UNL     1     -10.946   7.055  71.148  1.00  0.00    -0.247 C  
BRANCH  11  14
HETATM   14  C   UNL     1      -9.676   5.920  69.280  1.00  0.00    -0.182 A  
HETATM   15  C   UNL     1     -10.786   5.736  68.432  1.00  0.00    -0.283 A  
HETATM   16  C   UNL     1      -8.399   5.971  68.684  1.00  0.00    -0.113 A  
HETATM   17  C   UNL     1      -8.237   5.845  67.302  1.00  0.00    -0.105 A  
HETATM   18  C   UNL     1     -10.621   5.608  67.049  1.00  0.00    -0.358 A  
HETATM   19  C   UNL     1      -9.349   5.660  66.486  1.00  0.00    -0.159 A  
ENDBRANCH  11  14
BRANCH  11  20
HETATM   20  C   UNL     1      -9.872   4.679  71.547  1.00  0.00    -0.259 A  
HETATM   21  C   UNL     1      -9.676   2.248  71.545  1.00  0.00    -0.224 A  
HETATM   22  C   UNL     1     -10.250   2.182  72.811  1.00  0.00    -0.220 A  
HETATM   23  C   UNL     1     -10.642   3.352  73.455  1.00  0.00    -0.286 A  
HETATM   24  C   UNL     1     -10.463   4.586  72.829  1.00  0.00    -0.261 A  
HETATM   25  C   UNL     1      -9.490   3.481  70.916  1.00  0.00    -0.236 A  
ENDBRANCH  11  20
ENDBRANCH   6   7
ENDBRANCH   3   6
TORSDOF 4
ENDMDL
MODEL       76
REMARK 921   NORMALIZED FREE ENERGY PREDICTED BY IDOCK:   -5.16 KCAL/MOL
REMARK 922        TOTAL FREE ENERGY PREDICTED BY IDOCK:   -7.22 KCAL/MOL
REMARK 923 INTER-LIGAND FREE ENERGY PREDICTED BY IDOCK:   -6.64 KCAL/MOL
REMARK 924 INTRA-LIGAND FREE ENERGY PREDICTED BY IDOCK:   -0.59 KCAL/MOL
REMARK 927      BINDING AFFINITY PREDICTED BY RF-SCORE:    0.00 PKD
ROOT
HETATM    1  O   UNL     1     -13.203  12.399  64.442  1.00  0.00    -0.816 OA 
HETATM    2  P   UNL     1     -11.724  12.508  65.024  1.00  0.00    -0.380 P  
HETATM    3  O   UNL     1     -11.141  11.020  65.198  1.00  0.00    -0.105 OA 
HETATM    4  O   UNL     1     -11.664  13.390  66.227  1.00  0.00    -0.334 OA 
HETATM    5  O   UNL     1     -10.958  13.080  63.746  1.00  0.00    -0.392 OA 
ENDROOT
BRANCH   3   6
HETATM    6  C   UNL     1     -10.023  11.046  66.072  1.00  0.00    -0.237 C  
BRANCH   6   7
HETATM    7  N   UNL     1     -10.301  10.737  67.450  1.00  0.00    -0.200 N  
HETATM    8  C   UNL     1      -9.642  11.453  68.406  1.00  0.00    -0.197 C  
HETATM    9  N   UNL     1      -9.593  10.742  69.567  1.00  0.00    -0.042 NA 
HETATM   10  O   UNL     1      -9.084  12.530  68.268  1.00  0.00    -0.199 OA 
HETATM   11  C   UNL     1     -10.134   9.409  69.447  1.00  0.00    -0.198 C  
HETATM   12  O   UNL     1     -11.025   8.551  67.276  1.00  0.00    -0.117 OA 
HETATM   13  C   UNL     1     -10.570   9.482  67.934  1.00  0.00    -0.244 C  
BRANCH  11  14
HETATM   14  C   UNL     1      -9.052   8.317  69.586  1.00  0.00    -0.154 A  
HETATM   15  C   UNL     1      -8.532   7.607  68.486  1.00  0.00    -0.129 A  
HETATM   16  C   UNL     1      -8.575   7.977  70.868  1.00  0.00    -0.136 A  
HETATM   17  C   UNL     1      -7.620   6.973  71.046  1.00  0.00    -0.086 A  
HETATM   18  C   UNL     1      -7.578   6.600  68.666  1.00  0.00    -0.101 A  
HETATM   19  C   UNL     1      -7.124   6.283  69.943  1.00  0.00    -0.072 A  
ENDBRANCH  11  14
BRANCH  11  20
HETATM   20  C   UNL     1     -11.276   9.312  70.470  1.00  0.00    -0.315 A  
HETATM   21  C   UNL     1     -12.927   7.998  71.691  1.00  0.00    -0.351 A  
HETATM   22  C   UNL     1     -13.537   9.160  72.155  1.00  0.00    -0.534 A  
HETATM   23  C   UNL     1     -13.031  10.402  71.784  1.00  0.00    -0.580 A  
HETATM   24  C   UNL     1     -11.919  10.479  70.946  1.00  0.00    -0.481 A  
HETATM   25  C   UNL     1     -11.810   8.070  70.856  1.00  0.00    -0.236 A  
ENDBRANCH  11  20
ENDBRANCH   6   7
ENDBRANCH   3   6
TORSDOF 4
ENDMDL
MODEL       77
REMARK 921   NORMALIZED FREE ENERGY PREDICTED BY IDOCK:   -5.16 KCAL/MOL
REMARK 922        TOTAL FREE ENERGY PREDICTED BY IDOCK:   -7.22 KCAL/MOL
REMARK 923 INTER-LIGAND FREE ENERGY PREDICTED BY IDOCK:   -6.33 KCAL/MOL
REMARK 924 INTRA-LIGAND FREE ENERGY PREDICTED BY IDOCK:   -0.89 KCAL/MOL
REMARK 927      BINDING AFFINITY PREDICTED BY RF-SCORE:    0.00 PKD
ROOT
HETATM    1  O   UNL     1      -5.930  13.965  71.767  1.00  0.00    -0.344 OA 
HETATM    2  P   UNL     1      -5.896  14.074  70.178  1.00  0.00    -0.164 P  
HETATM    3  O   UNL     1      -7.395  14.338  69.660  1.00  0.00    -0.031 OA 
HETATM    4  O   UNL     1      -5.172  12.926  69.557  1.00  0.00    -0.074 OA 
HETATM    5  O   UNL     1      -5.169  15.485  70.006  1.00  0.00    -0.103 OA 
ENDROOT
BRANCH   3   6
HETATM    6  C   UNL     1      -7.480  14.039  68.275  1.00  0.00    -0.123 C  
BRANCH   6   7
HETATM    7  N   UNL     1      -8.047  12.758  67.947  1.00  0.00    -0.146 N  
HETATM    8  C   UNL     1      -7.395  11.994  67.024  1.00  0.00    -0.097 C  
HETATM    9  N   UNL     1      -8.265  11.115  66.451  1.00  0.00    -0.166 NA 
HETATM   10  O   UNL     1      -6.233  12.100  66.666  1.00  0.00    -0.148 OA 
HETATM   11  C   UNL     1      -9.632  11.302  66.876  1.00  0.00    -0.191 C  
HETATM   12  O   UNL     1     -10.266  13.104  68.487  1.00  0.00    -0.239 OA 
HETATM   13  C   UNL     1      -9.390  12.485  67.889  1.00  0.00    -0.200 C  
BRANCH  11  14
HETATM   14  C   UNL     1     -10.539  11.816  65.739  1.00  0.00    -0.312 A  
HETATM   15  C   UNL     1     -11.817  12.365  65.966  1.00  0.00    -0.459 A  
HETATM   16  C   UNL     1     -10.102  11.708  64.403  1.00  0.00    -0.322 A  
HETATM   17  C   UNL     1     -10.903  12.129  63.339  1.00  0.00    -0.474 A  
HETATM   18  C   UNL     1     -12.619  12.785  64.899  1.00  0.00    -0.541 A  
HETATM   19  C   UNL     1     -12.164  12.665  63.589  1.00  0.00    -0.624 A  
ENDBRANCH  11  14
BRANCH  11  20
HETATM   20  C   UNL     1     -10.076   9.969  67.497  1.00  0.00    -0.243 A  
HETATM   21  C   UNL     1     -10.636   8.616  69.447  1.00  0.00    -0.207 A  
HETATM   22  C   UNL     1     -10.645   7.463  68.668  1.00  0.00    -0.182 A  
HETATM   23  C   UNL     1     -10.370   7.545  67.306  1.00  0.00    -0.366 A  
HETATM   24  C   UNL     1     -10.081   8.781  66.728  1.00  0.00    -0.359 A  
HETATM   25  C   UNL     1     -10.353   9.856  68.871  1.00  0.00    -0.221 A  
ENDBRANCH  11  20
ENDBRANCH   6   7
ENDBRANCH   3   6
TORSDOF 4
ENDMDL
MODEL       78
REMARK 921   NORMALIZED FREE ENERGY PREDICTED BY IDOCK:   -5.15 KCAL/MOL
REMARK 922        TOTAL FREE ENERGY PREDICTED BY IDOCK:   -7.21 KCAL/MOL
REMARK 923 INTER-LIGAND FREE ENERGY PREDICTED BY IDOCK:   -6.30 KCAL/MOL
REMARK 924 INTRA-LIGAND FREE ENERGY PREDICTED BY IDOCK:   -0.91 KCAL/MOL
REMARK 927      BINDING AFFINITY PREDICTED BY RF-SCORE:    0.00 PKD
ROOT
HETATM    1  O   UNL     1      -8.597   6.494  68.941  1.00  0.00    -0.124 OA 
HETATM    2  P   UNL     1      -8.097   7.087  67.550  1.00  0.00    -0.113 P  
HETATM    3  O   UNL     1      -7.666   8.619  67.782  1.00  0.00    -0.100 OA 
HETATM    4  O   UNL     1      -9.076   6.833  66.453  1.00  0.00    -0.148 OA 
HETATM    5  O   UNL     1      -6.711   6.311  67.392  1.00  0.00    -0.056 OA 
ENDROOT
BRANCH   3   6
HETATM    6  C   UNL     1      -7.608   9.292  66.534  1.00  0.00    -0.093 C  
BRANCH   6   7
HETATM    7  N   UNL     1      -8.362  10.515  66.450  1.00  0.00    -0.139 N  
HETATM    8  C   UNL     1      -7.824  11.632  67.016  1.00  0.00    -0.164 C  
HETATM    9  N   UNL     1      -8.811  12.522  67.318  1.00  0.00    -0.187 NA 
HETATM   10  O   UNL     1      -6.654  11.821  67.311  1.00  0.00    -0.104 OA 
HETATM   11  C   UNL     1     -10.139  12.009  67.073  1.00  0.00    -0.203 C  
HETATM   12  O   UNL     1     -10.508   9.694  66.208  1.00  0.00    -0.191 OA 
HETATM   13  C   UNL     1      -9.731  10.598  66.503  1.00  0.00    -0.194 C  
BRANCH  11  14
HETATM   14  C   UNL     1     -10.938  11.792  68.376  1.00  0.00    -0.274 A  
HETATM   15  C   UNL     1     -11.550  12.845  69.085  1.00  0.00    -0.375 A  
HETATM   16  C   UNL     1     -11.041  10.494  68.915  1.00  0.00    -0.312 A  
HETATM   17  C   UNL     1     -11.727  10.255  70.108  1.00  0.00    -0.364 A  
HETATM   18  C   UNL     1     -12.234  12.604  70.281  1.00  0.00    -0.347 A  
HETATM   19  C   UNL     1     -12.320  11.312  70.792  1.00  0.00    -0.495 A  
ENDBRANCH  11  14
BRANCH  11  20
HETATM   20  C   UNL     1     -10.795  12.973  66.072  1.00  0.00    -0.290 A  
HETATM   21  C   UNL     1     -10.871  15.131  64.939  1.00  0.00    -0.437 A  
HETATM   22  C   UNL     1     -12.133  14.840  64.430  1.00  0.00    -0.457 A  
HETATM   23  C   UNL     1     -12.739  13.624  64.733  1.00  0.00    -0.268 A  
HETATM   24  C   UNL     1     -12.082  12.704  65.551  1.00  0.00    -0.515 A  
HETATM   25  C   UNL     1     -10.208  14.210  65.754  1.00  0.00    -0.347 A  
ENDBRANCH  11  20
ENDBRANCH   6   7
ENDBRANCH   3   6
TORSDOF 4
ENDMDL
MODEL       79
REMARK 921   NORMALIZED FREE ENERGY PREDICTED BY IDOCK:   -5.07 KCAL/MOL
REMARK 922        TOTAL FREE ENERGY PREDICTED BY IDOCK:   -7.11 KCAL/MOL
REMARK 923 INTER-LIGAND FREE ENERGY PREDICTED BY IDOCK:   -5.86 KCAL/MOL
REMARK 924 INTRA-LIGAND FREE ENERGY PREDICTED BY IDOCK:   -1.25 KCAL/MOL
REMARK 927      BINDING AFFINITY PREDICTED BY RF-SCORE:    0.00 PKD
ROOT
HETATM    1  O   UNL     1     -13.641   8.617  71.974  1.00  0.00    -0.365 OA 
HETATM    2  P   UNL     1     -12.061   8.611  71.774  1.00  0.00    -0.394 P  
HETATM    3  O   UNL     1     -11.739   7.975  70.332  1.00  0.00    -0.154 OA 
HETATM    4  O   UNL     1     -11.354   8.004  72.940  1.00  0.00    -0.408 OA 
HETATM    5  O   UNL     1     -11.794  10.173  71.579  1.00  0.00    -0.362 OA 
ENDROOT
BRANCH   3   6
HETATM    6  C   UNL     1     -10.377   7.579  70.280  1.00  0.00    -0.213 C  
BRANCH   6   7
HETATM    7  N   UNL     1      -9.537   8.350  69.402  1.00  0.00    -0.169 N  
HETATM    8  C   UNL     1      -8.731   9.295  69.964  1.00  0.00    -0.195 C  
HETATM    9  N   UNL     1      -8.419  10.248  69.041  1.00  0.00    -0.140 NA 
HETATM   10  O   UNL     1      -8.385   9.370  71.132  1.00  0.00    -0.310 OA 
HETATM   11  C   UNL     1      -9.103  10.072  67.782  1.00  0.00    -0.131 C  
HETATM   12  O   UNL     1     -10.710   8.193  67.418  1.00  0.00    -0.269 OA 
HETATM   13  C   UNL     1      -9.883   8.749  68.135  1.00  0.00    -0.168 C  
BRANCH  11  14
HETATM   14  C   UNL     1     -10.137  11.184  67.509  1.00  0.00    -0.210 A  
HETATM   15  C   UNL     1     -10.791  11.892  68.537  1.00  0.00    -0.257 A  
HETATM   16  C   UNL     1     -10.482  11.496  66.178  1.00  0.00    -0.296 A  
HETATM   17  C   UNL     1     -11.437  12.473  65.885  1.00  0.00    -0.417 A  
HETATM   18  C   UNL     1     -11.749  12.868  68.241  1.00  0.00    -0.390 A  
HETATM   19  C   UNL     1     -12.072  13.156  66.918  1.00  0.00    -0.377 A  
ENDBRANCH  11  14
BRANCH  11  20
HETATM   20  C   UNL     1      -8.008   9.940  66.712  1.00  0.00    -0.116 A  
HETATM   21  C   UNL     1      -6.888   8.656  64.966  1.00  0.00    -0.072 A  
HETATM   22  C   UNL     1      -5.852   9.583  64.924  1.00  0.00    -0.067 A  
HETATM   23  C   UNL     1      -5.877  10.690  65.767  1.00  0.00    -0.138 A  
HETATM   24  C   UNL     1      -6.938  10.863  66.657  1.00  0.00    -0.135 A  
HETATM   25  C   UNL     1      -7.955   8.828  65.851  1.00  0.00    -0.104 A  
ENDBRANCH  11  20
ENDBRANCH   6   7
ENDBRANCH   3   6
TORSDOF 4
ENDMDL
MODEL       80
REMARK 921   NORMALIZED FREE ENERGY PREDICTED BY IDOCK:   -5.05 KCAL/MOL
REMARK 922        TOTAL FREE ENERGY PREDICTED BY IDOCK:   -7.08 KCAL/MOL
REMARK 923 INTER-LIGAND FREE ENERGY PREDICTED BY IDOCK:   -7.10 KCAL/MOL
REMARK 924 INTRA-LIGAND FREE ENERGY PREDICTED BY IDOCK:    0.02 KCAL/MOL
REMARK 927      BINDING AFFINITY PREDICTED BY RF-SCORE:    0.00 PKD
ROOT
HETATM    1  O   UNL     1      -7.956  19.749  65.462  1.00  0.00    -0.370 OA 
HETATM    2  P   UNL     1      -9.036  19.340  66.560  1.00  0.00    -0.350 P  
HETATM    3  O   UNL     1      -8.435  18.126  67.427  1.00  0.00    -0.237 OA 
HETATM    4  O   UNL     1     -10.384  19.122  65.959  1.00  0.00    -0.444 OA 
HETATM    5  O   UNL     1      -8.941  20.600  67.534  1.00  0.00    -0.308 OA 
ENDROOT
BRANCH   3   6
HETATM    6  C   UNL     1      -9.486  17.472  68.123  1.00  0.00    -0.291 C  
BRANCH   6   7
HETATM    7  N   UNL     1      -9.932  16.229  67.553  1.00  0.00    -0.244 N  
HETATM    8  C   UNL     1     -10.823  15.486  68.270  1.00  0.00    -0.292 C  
HETATM    9  N   UNL     1     -10.747  14.178  67.894  1.00  0.00    -0.238 NA 
HETATM   10  O   UNL     1     -11.539  15.869  69.181  1.00  0.00    -0.362 OA 
HETATM   11  C   UNL     1      -9.689  13.915  66.947  1.00  0.00    -0.268 C  
HETATM   12  O   UNL     1      -8.168  15.729  66.147  1.00  0.00    -0.179 OA 
HETATM   13  C   UNL     1      -9.155  15.389  66.794  1.00  0.00    -0.259 C  
BRANCH  11  14
HETATM   14  C   UNL     1      -8.560  13.051  67.548  1.00  0.00    -0.192 A  
HETATM   15  C   UNL     1      -7.200  13.414  67.485  1.00  0.00    -0.163 A  
HETATM   16  C   UNL     1      -8.881  11.823  68.160  1.00  0.00    -0.169 A  
HETATM   17  C   UNL     1      -7.889  10.993  68.688  1.00  0.00    -0.136 A  
HETATM   18  C   UNL     1      -6.208  12.581  68.012  1.00  0.00    -0.088 A  
HETATM   19  C   UNL     1      -6.551  11.372  68.610  1.00  0.00    -0.062 A  
ENDBRANCH  11  14
BRANCH  11  20
HETATM   20  C   UNL     1     -10.362  13.313  65.704  1.00  0.00    -0.292 A  
HETATM   21  C   UNL     1     -11.967  13.467  63.874  1.00  0.00    -0.520 A  
HETATM   22  C   UNL     1     -11.784  12.120  63.576  1.00  0.00    -0.579 A  
HETATM   23  C   UNL     1     -10.898  11.357  64.331  1.00  0.00    -0.397 A  
HETATM   24  C   UNL     1     -10.201  11.944  65.388  1.00  0.00    -0.300 A  
HETATM   25  C   UNL     1     -11.267  14.059  64.928  1.00  0.00    -0.362 A  
ENDBRANCH  11  20
ENDBRANCH   6   7
ENDBRANCH   3   6
TORSDOF 4
ENDMDL
MODEL       81
REMARK 921   NORMALIZED FREE ENERGY PREDICTED BY IDOCK:   -4.97 KCAL/MOL
REMARK 922        TOTAL FREE ENERGY PREDICTED BY IDOCK:   -6.98 KCAL/MOL
REMARK 923 INTER-LIGAND FREE ENERGY PREDICTED BY IDOCK:   -6.24 KCAL/MOL
REMARK 924 INTRA-LIGAND FREE ENERGY PREDICTED BY IDOCK:   -0.74 KCAL/MOL
REMARK 927      BINDING AFFINITY PREDICTED BY RF-SCORE:    0.00 PKD
ROOT
HETATM    1  O   UNL     1      -9.884   5.806  70.044  1.00  0.00    -0.164 OA 
HETATM    2  P   UNL     1      -9.960   6.662  68.702  1.00  0.00    -0.163 P  
HETATM    3  O   UNL     1     -10.161   8.207  69.103  1.00  0.00    -0.205 OA 
HETATM    4  O   UNL     1     -10.945   6.094  67.735  1.00  0.00    -0.313 OA 
HETATM    5  O   UNL     1      -8.440   6.578  68.225  1.00  0.00    -0.116 OA 
ENDROOT
BRANCH   3   6
HETATM    6  C   UNL     1     -10.635   8.932  67.979  1.00  0.00    -0.168 C  
BRANCH   6   7
HETATM    7  N   UNL     1     -10.624  10.365  68.111  1.00  0.00    -0.195 N  
HETATM    8  C   UNL     1     -11.739  10.964  68.619  1.00  0.00    -0.263 C  
HETATM    9  N   UNL     1     -11.796  12.263  68.211  1.00  0.00    -0.346 NA 
HETATM   10  O   UNL     1     -12.628  10.438  69.271  1.00  0.00    -0.098 OA 
HETATM   11  C   UNL     1     -10.752  12.617  67.279  1.00  0.00    -0.237 C  
HETATM   12  O   UNL     1      -9.060  10.945  66.513  1.00  0.00    -0.161 OA 
HETATM   13  C   UNL     1     -10.006  11.229  67.242  1.00  0.00    -0.183 C  
BRANCH  11  14
HETATM   14  C   UNL     1     -11.296  12.911  65.866  1.00  0.00    -0.348 A  
HETATM   15  C   UNL     1     -11.370  11.934  64.853  1.00  0.00    -0.337 A  
HETATM   16  C   UNL     1     -11.710  14.220  65.543  1.00  0.00    -0.353 A  
HETATM   17  C   UNL     1     -12.178  14.540  64.267  1.00  0.00    -0.441 A  
HETATM   18  C   UNL     1     -11.837  12.258  63.575  1.00  0.00    -0.601 A  
HETATM   19  C   UNL     1     -12.239  13.558  63.282  1.00  0.00    -0.214 A  
ENDBRANCH  11  14
BRANCH  11  20
HETATM   20  C   UNL     1      -9.977  13.778  67.921  1.00  0.00    -0.240 A  
HETATM   21  C   UNL     1      -7.888  14.971  68.325  1.00  0.00    -0.119 A  
HETATM   22  C   UNL     1      -8.502  15.755  69.297  1.00  0.00    -0.258 A  
HETATM   23  C   UNL     1      -9.848  15.562  69.594  1.00  0.00    -0.281 A  
HETATM   24  C   UNL     1     -10.576  14.580  68.920  1.00  0.00    -0.249 A  
HETATM   25  C   UNL     1      -8.614  13.991  67.644  1.00  0.00    -0.188 A  
ENDBRANCH  11  20
ENDBRANCH   6   7
ENDBRANCH   3   6
TORSDOF 4
ENDMDL
MODEL       82
REMARK 921   NORMALIZED FREE ENERGY PREDICTED BY IDOCK:   -4.94 KCAL/MOL
REMARK 922        TOTAL FREE ENERGY PREDICTED BY IDOCK:   -6.95 KCAL/MOL
REMARK 923 INTER-LIGAND FREE ENERGY PREDICTED BY IDOCK:   -6.32 KCAL/MOL
REMARK 924 INTRA-LIGAND FREE ENERGY PREDICTED BY IDOCK:   -0.63 KCAL/MOL
REMARK 927      BINDING AFFINITY PREDICTED BY RF-SCORE:    0.00 PKD
ROOT
HETATM    1  O   UNL     1      -5.729  17.540  71.286  1.00  0.00     0.220 OA 
HETATM    2  P   UNL     1      -5.838  16.989  69.794  1.00  0.00    -0.202 P  
HETATM    3  O   UNL     1      -7.386  17.020  69.359  1.00  0.00    -0.184 OA 
HETATM    4  O   UNL     1      -5.128  15.687  69.629  1.00  0.00    -0.095 OA 
HETATM    5  O   UNL     1      -5.183  18.205  68.994  1.00  0.00    -0.177 OA 
ENDROOT
BRANCH   3   6
HETATM    6  C   UNL     1      -7.580  16.181  68.231  1.00  0.00    -0.146 C  
BRANCH   6   7
HETATM    7  N   UNL     1      -8.428  15.037  68.444  1.00  0.00    -0.147 N  
HETATM    8  C   UNL     1      -7.971  13.823  68.025  1.00  0.00    -0.156 C  
HETATM    9  N   UNL     1      -9.020  12.981  67.809  1.00  0.00    -0.180 NA 
HETATM   10  O   UNL     1      -6.816  13.513  67.780  1.00  0.00    -0.132 OA 
HETATM   11  C   UNL     1     -10.307  13.617  67.963  1.00  0.00    -0.250 C  
HETATM   12  O   UNL     1     -10.507  16.040  68.540  1.00  0.00    -0.239 OA 
HETATM   13  C   UNL     1      -9.798  15.052  68.370  1.00  0.00    -0.222 C  
BRANCH  11  14
HETATM   14  C   UNL     1     -11.071  13.736  66.627  1.00  0.00    -0.316 A  
HETATM   15  C   UNL     1     -11.040  14.895  65.826  1.00  0.00    -0.342 A  
HETATM   16  C   UNL     1     -11.869  12.660  66.189  1.00  0.00    -0.477 A  
HETATM   17  C   UNL     1     -12.604  12.735  65.004  1.00  0.00    -0.538 A  
HETATM   18  C   UNL     1     -11.779  14.969  64.641  1.00  0.00    -0.383 A  
HETATM   19  C   UNL     1     -12.561  13.893  64.232  1.00  0.00    -0.181 A  
ENDBRANCH  11  14
BRANCH  11  20
HETATM   20  C   UNL     1     -11.048  12.833  69.056  1.00  0.00    -0.285 A  
HETATM   21  C   UNL     1     -11.838  10.724  69.992  1.00  0.00    -0.424 A  
HETATM   22  C   UNL     1     -12.620  11.406  70.919  1.00  0.00    -0.453 A  
HETATM   23  C   UNL     1     -12.630  12.798  70.926  1.00  0.00    -0.342 A  
HETATM   24  C   UNL     1     -11.859  13.504  70.001  1.00  0.00    -0.371 A  
HETATM   25  C   UNL     1     -11.061  11.426  69.068  1.00  0.00    -0.300 A  
ENDBRANCH  11  20
ENDBRANCH   6   7
ENDBRANCH   3   6
TORSDOF 4
ENDMDL
MODEL       83
REMARK 921   NORMALIZED FREE ENERGY PREDICTED BY IDOCK:   -4.94 KCAL/MOL
REMARK 922        TOTAL FREE ENERGY PREDICTED BY IDOCK:   -6.94 KCAL/MOL
REMARK 923 INTER-LIGAND FREE ENERGY PREDICTED BY IDOCK:   -5.93 KCAL/MOL
REMARK 924 INTRA-LIGAND FREE ENERGY PREDICTED BY IDOCK:   -1.01 KCAL/MOL
REMARK 927      BINDING AFFINITY PREDICTED BY RF-SCORE:    0.00 PKD
ROOT
HETATM    1  O   UNL     1     -13.527  14.684  65.210  1.00  0.00    -0.247 OA 
HETATM    2  P   UNL     1     -12.384  13.714  64.668  1.00  0.00    -0.311 P  
HETATM    3  O   UNL     1     -11.295  13.519  65.835  1.00  0.00    -0.303 OA 
HETATM    4  O   UNL     1     -11.863  14.157  63.342  1.00  0.00    -0.067 OA 
HETATM    5  O   UNL     1     -13.177  12.330  64.639  1.00  0.00    -0.763 OA 
ENDROOT
BRANCH   3   6
HETATM    6  C   UNL     1     -10.089  13.018  65.282  1.00  0.00    -0.231 C  
BRANCH   6   7
HETATM    7  N   UNL     1      -9.454  11.960  66.024  1.00  0.00    -0.234 N  
HETATM    8  C   UNL     1      -9.726  10.675  65.655  1.00  0.00    -0.230 C  
HETATM    9  N   UNL     1      -9.508   9.835  66.704  1.00  0.00    -0.163 NA 
HETATM   10  O   UNL     1     -10.181  10.294  64.588  1.00  0.00    -0.322 OA 
HETATM   11  C   UNL     1      -9.170  10.521  67.928  1.00  0.00    -0.140 C  
HETATM   12  O   UNL     1      -9.049  13.015  68.038  1.00  0.00    -0.196 OA 
HETATM   13  C   UNL     1      -9.190  11.995  67.370  1.00  0.00    -0.180 C  
BRANCH  11  14
HETATM   14  C   UNL     1     -10.274  10.396  69.000  1.00  0.00    -0.233 A  
HETATM   15  C   UNL     1     -11.547  10.984  68.863  1.00  0.00    -0.383 A  
HETATM   16  C   UNL     1     -10.002   9.695  70.193  1.00  0.00    -0.309 A  
HETATM   17  C   UNL     1     -10.959   9.584  71.204  1.00  0.00    -0.438 A  
HETATM   18  C   UNL     1     -12.503  10.873  69.878  1.00  0.00    -0.292 A  
HETATM   19  C   UNL     1     -12.209  10.177  71.047  1.00  0.00    -0.474 A  
ENDBRANCH  11  14
BRANCH  11  20
HETATM   20  C   UNL     1      -7.796   9.986  68.359  1.00  0.00    -0.089 A  
HETATM   21  C   UNL     1      -6.170   8.173  68.493  1.00  0.00    -0.049 A  
HETATM   22  C   UNL     1      -5.383   8.918  69.365  1.00  0.00    -0.035 A  
HETATM   23  C   UNL     1      -5.788  10.194  69.746  1.00  0.00    -0.045 A  
HETATM   24  C   UNL     1      -6.984  10.720  69.255  1.00  0.00    -0.102 A  
HETATM   25  C   UNL     1      -7.365   8.697  67.995  1.00  0.00    -0.092 A  
ENDBRANCH  11  20
ENDBRANCH   6   7
ENDBRANCH   3   6
TORSDOF 4
ENDMDL
MODEL       84
REMARK 921   NORMALIZED FREE ENERGY PREDICTED BY IDOCK:   -4.91 KCAL/MOL
REMARK 922        TOTAL FREE ENERGY PREDICTED BY IDOCK:   -6.91 KCAL/MOL
REMARK 923 INTER-LIGAND FREE ENERGY PREDICTED BY IDOCK:   -5.89 KCAL/MOL
REMARK 924 INTRA-LIGAND FREE ENERGY PREDICTED BY IDOCK:   -1.02 KCAL/MOL
REMARK 927      BINDING AFFINITY PREDICTED BY RF-SCORE:    0.00 PKD
ROOT
HETATM    1  O   UNL     1      -6.874   7.209  70.103  1.00  0.00    -0.056 OA 
HETATM    2  P   UNL     1      -7.964   8.346  70.343  1.00  0.00    -0.114 P  
HETATM    3  O   UNL     1      -7.985   9.303  69.051  1.00  0.00    -0.093 OA 
HETATM    4  O   UNL     1      -7.784   9.019  71.663  1.00  0.00    -0.310 OA 
HETATM    5  O   UNL     1      -9.303   7.487  70.215  1.00  0.00    -0.161 OA 
ENDROOT
BRANCH   3   6
HETATM    6  C   UNL     1      -8.620  10.530  69.377  1.00  0.00    -0.086 C  
BRANCH   6   7
HETATM    7  N   UNL     1      -9.477  11.078  68.359  1.00  0.00    -0.175 N  
HETATM    8  C   UNL     1     -10.686  10.479  68.159  1.00  0.00    -0.233 C  
HETATM    9  N   UNL     1     -11.130  10.738  66.897  1.00  0.00    -0.227 NA 
HETATM   10  O   UNL     1     -11.281   9.741  68.929  1.00  0.00    -0.151 OA 
HETATM   11  C   UNL     1     -10.174  11.459  66.090  1.00  0.00    -0.239 C  
HETATM   12  O   UNL     1      -7.931  12.105  66.984  1.00  0.00    -0.168 OA 
HETATM   13  C   UNL     1      -9.044  11.621  67.176  1.00  0.00    -0.171 C  
BRANCH  11  14
HETATM   14  C   UNL     1      -9.613  10.604  64.934  1.00  0.00    -0.323 A  
HETATM   15  C   UNL     1      -8.723   9.531  65.134  1.00  0.00    -0.200 A  
HETATM   16  C   UNL     1      -9.970  10.919  63.606  1.00  0.00    -0.415 A  
HETATM   17  C   UNL     1      -9.462  10.194  62.526  1.00  0.00    -0.269 A  
HETATM   18  C   UNL     1      -8.213   8.808  64.051  1.00  0.00    -0.161 A  
HETATM   19  C   UNL     1      -8.580   9.140  62.750  1.00  0.00    -0.209 A  
ENDBRANCH  11  14
BRANCH  11  20
HETATM   20  C   UNL     1     -10.871  12.754  65.649  1.00  0.00    -0.300 A  
HETATM   21  C   UNL     1     -12.852  13.936  64.855  1.00  0.00    -0.221 A  
HETATM   22  C   UNL     1     -12.092  15.073  64.596  1.00  0.00    -0.330 A  
HETATM   23  C   UNL     1     -10.725  15.067  64.855  1.00  0.00    -0.420 A  
HETATM   24  C   UNL     1     -10.119  13.919  65.368  1.00  0.00    -0.328 A  
HETATM   25  C   UNL     1     -12.250  12.787  65.374  1.00  0.00    -0.532 A  
ENDBRANCH  11  20
ENDBRANCH   6   7
ENDBRANCH   3   6
TORSDOF 4
ENDMDL
MODEL       85
REMARK 921   NORMALIZED FREE ENERGY PREDICTED BY IDOCK:   -4.90 KCAL/MOL
REMARK 922        TOTAL FREE ENERGY PREDICTED BY IDOCK:   -6.90 KCAL/MOL
REMARK 923 INTER-LIGAND FREE ENERGY PREDICTED BY IDOCK:   -5.85 KCAL/MOL
REMARK 924 INTRA-LIGAND FREE ENERGY PREDICTED BY IDOCK:   -1.05 KCAL/MOL
REMARK 927      BINDING AFFINITY PREDICTED BY RF-SCORE:    0.00 PKD
ROOT
HETATM    1  O   UNL     1      -6.725   9.076  64.797  1.00  0.00    -0.075 OA 
HETATM    2  P   UNL     1      -6.728   9.242  66.382  1.00  0.00    -0.072 P  
HETATM    3  O   UNL     1      -8.243   9.491  66.859  1.00  0.00    -0.112 OA 
HETATM    4  O   UNL     1      -5.716  10.241  66.838  1.00  0.00    -0.045 OA 
HETATM    5  O   UNL     1      -6.421   7.740  66.825  1.00  0.00    -0.052 OA 
ENDROOT
BRANCH   3   6
HETATM    6  C   UNL     1      -8.246  10.040  68.168  1.00  0.00    -0.109 C  
BRANCH   6   7
HETATM    7  N   UNL     1      -9.044  11.225  68.345  1.00  0.00    -0.166 N  
HETATM    8  C   UNL     1     -10.321  11.068  68.796  1.00  0.00    -0.199 C  
HETATM    9  N   UNL     1     -11.079  12.138  68.426  1.00  0.00    -0.227 NA 
HETATM   10  O   UNL     1     -10.787  10.097  69.371  1.00  0.00    -0.214 OA 
HETATM   11  C   UNL     1     -10.378  13.071  67.577  1.00  0.00    -0.224 C  
HETATM   12  O   UNL     1      -8.013  12.676  66.873  1.00  0.00    -0.101 OA 
HETATM   13  C   UNL     1      -8.983  12.339  67.546  1.00  0.00    -0.180 C  
BRANCH  11  14
HETATM   14  C   UNL     1     -10.940  13.100  66.140  1.00  0.00    -0.299 A  
HETATM   15  C   UNL     1     -11.653  14.197  65.617  1.00  0.00    -0.339 A  
HETATM   16  C   UNL     1     -10.773  11.973  65.309  1.00  0.00    -0.331 A  
HETATM   17  C   UNL     1     -11.293  11.941  64.013  1.00  0.00    -0.475 A  
HETATM   18  C   UNL     1     -12.175  14.162  64.319  1.00  0.00    -0.449 A  
HETATM   19  C   UNL     1     -11.997  13.036  63.520  1.00  0.00    -0.615 A  
ENDBRANCH  11  14
BRANCH  11  20
HETATM   20  C   UNL     1     -10.410  14.424  68.304  1.00  0.00    -0.239 A  
HETATM   21  C   UNL     1     -11.475  15.978  69.853  1.00  0.00    -0.327 A  
HETATM   22  C   UNL     1     -10.617  16.997  69.450  1.00  0.00    -0.236 A  
HETATM   23  C   UNL     1      -9.654  16.747  68.476  1.00  0.00    -0.245 A  
HETATM   24  C   UNL     1      -9.556  15.478  67.904  1.00  0.00    -0.206 A  
HETATM   25  C   UNL     1     -11.377  14.705  69.286  1.00  0.00    -0.313 A  
ENDBRANCH  11  20
ENDBRANCH   6   7
ENDBRANCH   3   6
TORSDOF 4
ENDMDL
MODEL       86
REMARK 921   NORMALIZED FREE ENERGY PREDICTED BY IDOCK:   -4.86 KCAL/MOL
REMARK 922        TOTAL FREE ENERGY PREDICTED BY IDOCK:   -6.85 KCAL/MOL
REMARK 923 INTER-LIGAND FREE ENERGY PREDICTED BY IDOCK:   -6.24 KCAL/MOL
REMARK 924 INTRA-LIGAND FREE ENERGY PREDICTED BY IDOCK:   -0.61 KCAL/MOL
REMARK 927      BINDING AFFINITY PREDICTED BY RF-SCORE:    0.00 PKD
ROOT
HETATM    1  O   UNL     1      -7.491   7.431  68.703  1.00  0.00    -0.096 OA 
HETATM    2  P   UNL     1      -6.704   8.815  68.628  1.00  0.00    -0.060 P  
HETATM    3  O   UNL     1      -7.655   9.967  69.223  1.00  0.00    -0.083 OA 
HETATM    4  O   UNL     1      -6.137   9.059  67.269  1.00  0.00    -0.056 OA 
HETATM    5  O   UNL     1      -5.612   8.582  69.768  1.00  0.00    -0.029 OA 
ENDROOT
BRANCH   3   6
HETATM    6  C   UNL     1      -7.178  11.238  68.811  1.00  0.00    -0.104 C  
BRANCH   6   7
HETATM    7  N   UNL     1      -8.016  11.946  67.878  1.00  0.00    -0.135 N  
HETATM    8  C   UNL     1      -7.547  13.122  67.371  1.00  0.00    -0.131 C  
HETATM    9  N   UNL     1      -8.588  13.897  66.956  1.00  0.00    -0.204 NA 
HETATM   10  O   UNL     1      -6.388  13.507  67.349  1.00  0.00    -0.289 OA 
HETATM   11  C   UNL     1      -9.881  13.333  67.265  1.00  0.00    -0.233 C  
HETATM   12  O   UNL     1     -10.104  11.156  68.472  1.00  0.00    -0.186 OA 
HETATM   13  C   UNL     1      -9.386  11.995  67.934  1.00  0.00    -0.190 C  
BRANCH  11  14
HETATM   14  C   UNL     1     -10.644  14.152  68.327  1.00  0.00    -0.254 A  
HETATM   15  C   UNL     1     -10.212  15.414  68.780  1.00  0.00    -0.217 A  
HETATM   16  C   UNL     1     -11.810  13.612  68.909  1.00  0.00    -0.402 A  
HETATM   17  C   UNL     1     -12.515  14.302  69.897  1.00  0.00    -0.315 A  
HETATM   18  C   UNL     1     -10.918  16.103  69.771  1.00  0.00    -0.349 A  
HETATM   19  C   UNL     1     -12.066  15.547  70.330  1.00  0.00    -0.426 A  
ENDBRANCH  11  14
BRANCH  11  20
HETATM   20  C   UNL     1     -10.616  13.180  65.924  1.00  0.00    -0.290 A  
HETATM   21  C   UNL     1     -12.241  13.979  64.290  1.00  0.00    -0.453 A  
HETATM   22  C   UNL     1     -12.153  12.780  63.589  1.00  0.00    -0.624 A  
HETATM   23  C   UNL     1     -11.306  11.773  64.043  1.00  0.00    -0.461 A  
HETATM   24  C   UNL     1     -10.552  11.967  65.201  1.00  0.00    -0.333 A  
HETATM   25  C   UNL     1     -11.483  14.179  65.447  1.00  0.00    -0.325 A  
ENDBRANCH  11  20
ENDBRANCH   6   7
ENDBRANCH   3   6
TORSDOF 4
ENDMDL
MODEL       87
REMARK 921   NORMALIZED FREE ENERGY PREDICTED BY IDOCK:   -4.83 KCAL/MOL
REMARK 922        TOTAL FREE ENERGY PREDICTED BY IDOCK:   -6.81 KCAL/MOL
REMARK 923 INTER-LIGAND FREE ENERGY PREDICTED BY IDOCK:   -6.11 KCAL/MOL
REMARK 924 INTRA-LIGAND FREE ENERGY PREDICTED BY IDOCK:   -0.70 KCAL/MOL
REMARK 927      BINDING AFFINITY PREDICTED BY RF-SCORE:    0.00 PKD
ROOT
HETATM    1  O   UNL     1      -8.551   5.206  64.185  1.00  0.00    -0.140 OA 
HETATM    2  P   UNL     1      -8.686   4.808  65.722  1.00  0.00    -0.137 P  
HETATM    3  O   UNL     1      -9.742   5.808  66.409  1.00  0.00    -0.155 OA 
HETATM    4  O   UNL     1      -7.354   4.692  66.385  1.00  0.00    -0.078 OA 
HETATM    5  O   UNL     1      -9.482   3.431  65.591  1.00  0.00    -0.160 OA 
ENDROOT
BRANCH   3   6
HETATM    6  C   UNL     1      -9.591   5.765  67.820  1.00  0.00    -0.115 C  
BRANCH   6   7
HETATM    7  N   UNL     1      -9.855   6.997  68.514  1.00  0.00    -0.144 N  
HETATM    8  C   UNL     1      -8.818   7.868  68.676  1.00  0.00    -0.134 C  
HETATM    9  N   UNL     1      -9.057   8.682  69.742  1.00  0.00    -0.148 NA 
HETATM   10  O   UNL     1      -7.773   7.898  68.045  1.00  0.00    -0.119 OA 
HETATM   11  C   UNL     1     -10.255   8.337  70.469  1.00  0.00    -0.198 C  
HETATM   12  O   UNL     1     -11.684   6.402  69.792  1.00  0.00    -0.414 OA 
HETATM   13  C   UNL     1     -10.726   7.136  69.565  1.00  0.00    -0.239 C  
BRANCH  11  14
HETATM   14  C   UNL     1      -9.954   7.792  71.881  1.00  0.00    -0.222 A  
HETATM   15  C   UNL     1     -10.791   6.871  72.542  1.00  0.00    -0.277 A  
HETATM   16  C   UNL     1      -8.813   8.251  72.570  1.00  0.00    -0.297 A  
HETATM   17  C   UNL     1      -8.519   7.811  73.862  1.00  0.00    -0.298 A  
HETATM   18  C   UNL     1     -10.495   6.433  73.837  1.00  0.00    -0.307 A  
HETATM   19  C   UNL     1      -9.363   6.903  74.497  1.00  0.00    -0.224 A  
ENDBRANCH  11  14
BRANCH  11  20
HETATM   20  C   UNL     1     -11.150   9.587  70.443  1.00  0.00    -0.330 A  
HETATM   21  C   UNL     1     -11.609  11.855  69.672  1.00  0.00    -0.387 A  
HETATM   22  C   UNL     1     -12.651  11.974  70.587  1.00  0.00    -0.255 A  
HETATM   23  C   UNL     1     -12.953  10.914  71.436  1.00  0.00    -0.527 A  
HETATM   24  C   UNL     1     -12.207   9.736  71.371  1.00  0.00    -0.486 A  
HETATM   25  C   UNL     1     -10.863  10.675  69.600  1.00  0.00    -0.318 A  
ENDBRANCH  11  20
ENDBRANCH   6   7
ENDBRANCH   3   6
TORSDOF 4
ENDMDL
MODEL       88
REMARK 921   NORMALIZED FREE ENERGY PREDICTED BY IDOCK:   -4.82 KCAL/MOL
REMARK 922        TOTAL FREE ENERGY PREDICTED BY IDOCK:   -6.80 KCAL/MOL
REMARK 923 INTER-LIGAND FREE ENERGY PREDICTED BY IDOCK:   -5.68 KCAL/MOL
REMARK 924 INTRA-LIGAND FREE ENERGY PREDICTED BY IDOCK:   -1.11 KCAL/MOL
REMARK 927      BINDING AFFINITY PREDICTED BY RF-SCORE:    0.00 PKD
ROOT
HETATM    1  O   UNL     1     -13.249   8.861  72.315  1.00  0.00    -0.393 OA 
HETATM    2  P   UNL     1     -11.859   8.151  71.991  1.00  0.00    -0.389 P  
HETATM    3  O   UNL     1     -12.090   7.128  70.772  1.00  0.00    -0.331 OA 
HETATM    4  O   UNL     1     -11.223   7.589  73.219  1.00  0.00    -0.346 OA 
HETATM    5  O   UNL     1     -11.065   9.369  71.333  1.00  0.00    -0.335 OA 
ENDROOT
BRANCH   3   6
HETATM    6  C   UNL     1     -11.018   6.199  70.721  1.00  0.00    -0.302 C  
BRANCH   6   7
HETATM    7  N   UNL     1     -10.052   6.419  69.677  1.00  0.00    -0.170 N  
HETATM    8  C   UNL     1      -8.902   7.075  70.004  1.00  0.00    -0.142 C  
HETATM    9  N   UNL     1      -8.364   7.652  68.893  1.00  0.00    -0.128 NA 
HETATM   10  O   UNL     1      -8.431   7.227  71.120  1.00  0.00    -0.115 OA 
HETATM   11  C   UNL     1      -9.194   7.519  67.719  1.00  0.00    -0.135 C  
HETATM   12  O   UNL     1     -11.404   6.355  67.805  1.00  0.00    -0.266 OA 
HETATM   13  C   UNL     1     -10.360   6.678  68.365  1.00  0.00    -0.193 C  
BRANCH  11  14
HETATM   14  C   UNL     1      -9.774   8.869  67.249  1.00  0.00    -0.235 A  
HETATM   15  C   UNL     1     -10.557   9.698  68.076  1.00  0.00    -0.292 A  
HETATM   16  C   UNL     1      -9.550   9.293  65.923  1.00  0.00    -0.345 A  
HETATM   17  C   UNL     1     -10.083  10.492  65.443  1.00  0.00    -0.358 A  
HETATM   18  C   UNL     1     -11.091  10.897  67.593  1.00  0.00    -0.376 A  
HETATM   19  C   UNL     1     -10.857  11.292  66.279  1.00  0.00    -0.296 A  
ENDBRANCH  11  14
BRANCH  11  20
HETATM   20  C   UNL     1      -8.342   6.788  66.670  1.00  0.00    -0.118 A  
HETATM   21  C   UNL     1      -8.088   5.052  64.975  1.00  0.00    -0.113 A  
HETATM   22  C   UNL     1      -6.716   5.276  64.925  1.00  0.00    -0.048 A  
HETATM   23  C   UNL     1      -6.142   6.247  65.739  1.00  0.00    -0.033 A  
HETATM   24  C   UNL     1      -6.944   6.990  66.608  1.00  0.00    -0.073 A  
HETATM   25  C   UNL     1      -8.895   5.796  65.839  1.00  0.00    -0.153 A  
ENDBRANCH  11  20
ENDBRANCH   6   7
ENDBRANCH   3   6
TORSDOF 4
ENDMDL
MODEL       89
REMARK 921   NORMALIZED FREE ENERGY PREDICTED BY IDOCK:   -4.82 KCAL/MOL
REMARK 922        TOTAL FREE ENERGY PREDICTED BY IDOCK:   -6.80 KCAL/MOL
REMARK 923 INTER-LIGAND FREE ENERGY PREDICTED BY IDOCK:   -6.54 KCAL/MOL
REMARK 924 INTRA-LIGAND FREE ENERGY PREDICTED BY IDOCK:   -0.25 KCAL/MOL
REMARK 927      BINDING AFFINITY PREDICTED BY RF-SCORE:    0.00 PKD
ROOT
HETATM    1  O   UNL     1     -10.629  10.298  67.318  1.00  0.00    -0.239 OA 
HETATM    2  P   UNL     1     -11.252  11.360  68.329  1.00  0.00    -0.320 P  
HETATM    3  O   UNL     1     -11.942  12.529  67.467  1.00  0.00    -0.438 OA 
HETATM    4  O   UNL     1     -10.264  11.791  69.361  1.00  0.00     0.080 OA 
HETATM    5  O   UNL     1     -12.482  10.519  68.901  1.00  0.00    -0.194 OA 
ENDROOT
BRANCH   3   6
HETATM    6  C   UNL     1     -12.141  13.671  68.288  1.00  0.00    -0.271 C  
BRANCH   6   7
HETATM    7  N   UNL     1     -10.951  14.398  68.643  1.00  0.00    -0.241 N  
HETATM    8  C   UNL     1     -10.939  15.045  69.843  1.00  0.00    -0.261 C  
HETATM    9  N   UNL     1     -10.034  16.064  69.813  1.00  0.00    -0.230 NA 
HETATM   10  O   UNL     1     -11.668  14.840  70.801  1.00  0.00    -0.284 OA 
HETATM   11  C   UNL     1      -9.432  16.257  68.515  1.00  0.00    -0.219 C  
HETATM   12  O   UNL     1     -10.063  14.839  66.557  1.00  0.00    -0.258 OA 
HETATM   13  C   UNL     1     -10.153  15.078  67.757  1.00  0.00    -0.234 C  
BRANCH  11  14
HETATM   14  C   UNL     1      -9.857  17.587  67.858  1.00  0.00    -0.293 A  
HETATM   15  C   UNL     1     -10.151  17.705  66.485  1.00  0.00    -0.350 A  
HETATM   16  C   UNL     1      -9.927  18.755  68.644  1.00  0.00    -0.444 A  
HETATM   17  C   UNL     1     -10.276  19.987  68.086  1.00  0.00    -0.535 A  
HETATM   18  C   UNL     1     -10.497  18.940  65.927  1.00  0.00    -0.450 A  
HETATM   19  C   UNL     1     -10.557  20.079  66.725  1.00  0.00    -0.454 A  
ENDBRANCH  11  14
BRANCH  11  20
HETATM   20  C   UNL     1      -7.917  16.098  68.715  1.00  0.00    -0.216 A  
HETATM   21  C   UNL     1      -5.625  16.746  68.188  1.00  0.00    -0.118 A  
HETATM   22  C   UNL     1      -5.134  15.645  68.882  1.00  0.00    -0.099 A  
HETATM   23  C   UNL     1      -6.018  14.761  69.494  1.00  0.00    -0.107 A  
HETATM   24  C   UNL     1      -7.394  14.980  69.405  1.00  0.00    -0.194 A  
HETATM   25  C   UNL     1      -7.001  16.972  68.102  1.00  0.00    -0.173 A  
ENDBRANCH  11  20
ENDBRANCH   6   7
ENDBRANCH   3   6
TORSDOF 4
ENDMDL
MODEL       90
REMARK 921   NORMALIZED FREE ENERGY PREDICTED BY IDOCK:   -4.82 KCAL/MOL
REMARK 922        TOTAL FREE ENERGY PREDICTED BY IDOCK:   -6.79 KCAL/MOL
REMARK 923 INTER-LIGAND FREE ENERGY PREDICTED BY IDOCK:   -6.57 KCAL/MOL
REMARK 924 INTRA-LIGAND FREE ENERGY PREDICTED BY IDOCK:   -0.22 KCAL/MOL
REMARK 927      BINDING AFFINITY PREDICTED BY RF-SCORE:    0.00 PKD
ROOT
HETATM    1  O   UNL     1      -8.513   8.721  63.904  1.00  0.00    -0.168 OA 
HETATM    2  P   UNL     1      -9.176   9.679  64.991  1.00  0.00    -0.209 P  
HETATM    3  O   UNL     1      -9.534   8.797  66.286  1.00  0.00    -0.197 OA 
HETATM    4  O   UNL     1     -10.286  10.491  64.412  1.00  0.00    -0.341 OA 
HETATM    5  O   UNL     1      -7.899  10.527  65.437  1.00  0.00    -0.152 OA 
ENDROOT
BRANCH   3   6
HETATM    6  C   UNL     1     -10.472   9.495  67.092  1.00  0.00    -0.253 C  
BRANCH   6   7
HETATM    7  N   UNL     1     -10.179  10.884  67.329  1.00  0.00    -0.197 N  
HETATM    8  C   UNL     1      -9.200  11.181  68.230  1.00  0.00    -0.169 C  
HETATM    9  N   UNL     1      -9.388  12.437  68.724  1.00  0.00     0.028 NA 
HETATM   10  O   UNL     1      -8.319  10.439  68.635  1.00  0.00    -0.113 OA 
HETATM   11  C   UNL     1     -10.607  13.057  68.262  1.00  0.00    -0.247 C  
HETATM   12  O   UNL     1     -12.183  11.866  66.732  1.00  0.00    -0.489 OA 
HETATM   13  C   UNL     1     -11.109  11.894  67.326  1.00  0.00    -0.288 C  
BRANCH  11  14
HETATM   14  C   UNL     1     -11.640  13.246  69.394  1.00  0.00    -0.364 A  
HETATM   15  C   UNL     1     -12.234  14.488  69.691  1.00  0.00    -0.336 A  
HETATM   16  C   UNL     1     -11.990  12.144  70.201  1.00  0.00    -0.394 A  
HETATM   17  C   UNL     1     -12.894  12.275  71.257  1.00  0.00    -0.337 A  
HETATM   18  C   UNL     1     -13.138  14.618  70.751  1.00  0.00    -0.377 A  
HETATM   19  C   UNL     1     -13.466  13.514  71.533  1.00  0.00    -0.315 A  
ENDBRANCH  11  14
BRANCH  11  20
HETATM   20  C   UNL     1     -10.190  14.355  67.554  1.00  0.00    -0.240 A  
HETATM   21  C   UNL     1     -10.442  15.956  65.732  1.00  0.00    -0.386 A  
HETATM   22  C   UNL     1      -9.266  16.598  66.108  1.00  0.00    -0.312 A  
HETATM   23  C   UNL     1      -8.541  16.131  67.200  1.00  0.00    -0.211 A  
HETATM   24  C   UNL     1      -8.992  15.018  67.911  1.00  0.00    -0.175 A  
HETATM   25  C   UNL     1     -10.900  14.846  66.444  1.00  0.00    -0.325 A  
ENDBRANCH  11  20
ENDBRANCH   6   7
ENDBRANCH   3   6
TORSDOF 4
ENDMDL
MODEL       91
REMARK 921   NORMALIZED FREE ENERGY PREDICTED BY IDOCK:   -4.80 KCAL/MOL
REMARK 922        TOTAL FREE ENERGY PREDICTED BY IDOCK:   -6.77 KCAL/MOL
REMARK 923 INTER-LIGAND FREE ENERGY PREDICTED BY IDOCK:   -6.35 KCAL/MOL
REMARK 924 INTRA-LIGAND FREE ENERGY PREDICTED BY IDOCK:   -0.43 KCAL/MOL
REMARK 927      BINDING AFFINITY PREDICTED BY RF-SCORE:    0.00 PKD
ROOT
HETATM    1  O   UNL     1     -12.583  13.699  63.073  1.00  0.00    -0.729 OA 
HETATM    2  P   UNL     1     -12.106  14.145  64.526  1.00  0.00    -0.412 P  
HETATM    3  O   UNL     1     -10.663  13.491  64.804  1.00  0.00    -0.353 OA 
HETATM    4  O   UNL     1     -13.156  13.898  65.557  1.00  0.00    -0.699 OA 
HETATM    5  O   UNL     1     -11.791  15.687  64.260  1.00  0.00    -0.426 OA 
ENDROOT
BRANCH   3   6
HETATM    6  C   UNL     1     -10.390  13.517  66.197  1.00  0.00    -0.296 C  
BRANCH   6   7
HETATM    7  N   UNL     1     -10.211  12.232  66.821  1.00  0.00    -0.210 N  
HETATM    8  C   UNL     1      -9.458  12.178  67.957  1.00  0.00    -0.201 C  
HETATM    9  N   UNL     1      -8.957  10.922  68.122  1.00  0.00    -0.138 NA 
HETATM   10  O   UNL     1      -9.173  13.105  68.698  1.00  0.00    -0.109 OA 
HETATM   11  C   UNL     1      -9.250  10.038  67.020  1.00  0.00    -0.146 C  
HETATM   12  O   UNL     1     -10.532  10.819  65.022  1.00  0.00    -0.293 OA 
HETATM   13  C   UNL     1     -10.095  11.042  66.147  1.00  0.00    -0.237 C  
BRANCH  11  14
HETATM   14  C   UNL     1      -7.987   9.649  66.222  1.00  0.00    -0.108 A  
HETATM   15  C   UNL     1      -7.227   8.496  66.502  1.00  0.00    -0.080 A  
HETATM   16  C   UNL     1      -7.538  10.492  65.185  1.00  0.00    -0.046 A  
HETATM   17  C   UNL     1      -6.382  10.198  64.459  1.00  0.00    -0.129 A  
HETATM   18  C   UNL     1      -6.068   8.204  65.775  1.00  0.00    -0.041 A  
HETATM   19  C   UNL     1      -5.646   9.054  64.757  1.00  0.00    -0.061 A  
ENDBRANCH  11  14
BRANCH  11  20
HETATM   20  C   UNL     1     -10.023   8.850  67.613  1.00  0.00    -0.248 A  
HETATM   21  C   UNL     1     -10.703   7.502  69.528  1.00  0.00    -0.222 A  
HETATM   22  C   UNL     1     -11.228   6.530  68.682  1.00  0.00    -0.302 A  
HETATM   23  C   UNL     1     -11.157   6.701  67.302  1.00  0.00    -0.418 A  
HETATM   24  C   UNL     1     -10.554   7.843  66.773  1.00  0.00    -0.234 A  
HETATM   25  C   UNL     1     -10.105   8.649  69.003  1.00  0.00    -0.207 A  
ENDBRANCH  11  20
ENDBRANCH   6   7
ENDBRANCH   3   6
TORSDOF 4
ENDMDL
MODEL       92
REMARK 921   NORMALIZED FREE ENERGY PREDICTED BY IDOCK:   -4.79 KCAL/MOL
REMARK 922        TOTAL FREE ENERGY PREDICTED BY IDOCK:   -6.76 KCAL/MOL
REMARK 923 INTER-LIGAND FREE ENERGY PREDICTED BY IDOCK:   -5.65 KCAL/MOL
REMARK 924 INTRA-LIGAND FREE ENERGY PREDICTED BY IDOCK:   -1.10 KCAL/MOL
REMARK 927      BINDING AFFINITY PREDICTED BY RF-SCORE:    0.00 PKD
ROOT
HETATM    1  O   UNL     1      -9.109  14.340  68.775  1.00  0.00    -0.179 OA 
HETATM    2  P   UNL     1      -8.153  13.249  68.116  1.00  0.00    -0.167 P  
HETATM    3  O   UNL     1      -9.072  12.090  67.485  1.00  0.00    -0.167 OA 
HETATM    4  O   UNL     1      -7.081  12.809  69.056  1.00  0.00    -0.093 OA 
HETATM    5  O   UNL     1      -7.627  14.063  66.847  1.00  0.00     0.113 OA 
ENDROOT
BRANCH   3   6
HETATM    6  C   UNL     1      -8.287  10.930  67.260  1.00  0.00    -0.123 C  
BRANCH   6   7
HETATM    7  N   UNL     1      -8.809   9.707  67.812  1.00  0.00    -0.125 N  
HETATM    8  C   UNL     1      -9.815   9.084  67.133  1.00  0.00    -0.203 C  
HETATM    9  N   UNL     1     -10.529   8.295  67.984  1.00  0.00    -0.206 NA 
HETATM   10  O   UNL     1     -10.125   9.243  65.963  1.00  0.00    -0.297 OA 
HETATM   11  C   UNL     1     -10.117   8.417  69.362  1.00  0.00    -0.198 C  
HETATM   12  O   UNL     1      -8.281   9.969  70.045  1.00  0.00    -0.178 OA 
HETATM   13  C   UNL     1      -8.940   9.443  69.152  1.00  0.00    -0.147 C  
BRANCH  11  14
HETATM   14  C   UNL     1     -11.191   9.087  70.244  1.00  0.00    -0.232 A  
HETATM   15  C   UNL     1     -11.592  10.428  70.080  1.00  0.00    -0.392 A  
HETATM   16  C   UNL     1     -11.785   8.350  71.289  1.00  0.00    -0.325 A  
HETATM   17  C   UNL     1     -12.738   8.925  72.134  1.00  0.00    -0.470 A  
HETATM   18  C   UNL     1     -12.544  11.002  70.928  1.00  0.00    -0.488 A  
HETATM   19  C   UNL     1     -13.114  10.253  71.954  1.00  0.00    -0.568 A  
ENDBRANCH  11  14
BRANCH  11  20
HETATM   20  C   UNL     1      -9.704   7.008  69.815  1.00  0.00    -0.168 A  
HETATM   21  C   UNL     1     -10.018   4.589  69.781  1.00  0.00    -0.268 A  
HETATM   22  C   UNL     1      -9.121   4.439  70.834  1.00  0.00    -0.186 A  
HETATM   23  C   UNL     1      -8.510   5.560  71.389  1.00  0.00    -0.127 A  
HETATM   24  C   UNL     1      -8.804   6.831  70.891  1.00  0.00    -0.146 A  
HETATM   25  C   UNL     1     -10.310   5.858  69.276  1.00  0.00    -0.312 A  
ENDBRANCH  11  20
ENDBRANCH   6   7
ENDBRANCH   3   6
TORSDOF 4
ENDMDL
MODEL       93
REMARK 921   NORMALIZED FREE ENERGY PREDICTED BY IDOCK:   -4.77 KCAL/MOL
REMARK 922        TOTAL FREE ENERGY PREDICTED BY IDOCK:   -6.74 KCAL/MOL
REMARK 923 INTER-LIGAND FREE ENERGY PREDICTED BY IDOCK:   -5.87 KCAL/MOL
REMARK 924 INTRA-LIGAND FREE ENERGY PREDICTED BY IDOCK:   -0.87 KCAL/MOL
REMARK 927      BINDING AFFINITY PREDICTED BY RF-SCORE:    0.00 PKD
ROOT
HETATM    1  O   UNL     1      -8.597   5.205  64.195  1.00  0.00    -0.140 OA 
HETATM    2  P   UNL     1      -8.281   4.920  65.731  1.00  0.00    -0.119 P  
HETATM    3  O   UNL     1      -9.479   5.530  66.612  1.00  0.00    -0.134 OA 
HETATM    4  O   UNL     1      -6.900   5.347  66.102  1.00  0.00    -0.055 OA 
HETATM    5  O   UNL     1      -8.522   3.343  65.782  1.00  0.00    -0.104 OA 
ENDROOT
BRANCH   3   6
HETATM    6  C   UNL     1      -9.058   5.666  67.960  1.00  0.00    -0.107 C  
BRANCH   6   7
HETATM    7  N   UNL     1      -9.820   6.585  68.763  1.00  0.00    -0.138 N  
HETATM    8  C   UNL     1      -9.643   7.919  68.540  1.00  0.00    -0.150 C  
HETATM    9  N   UNL     1      -9.988   8.626  69.653  1.00  0.00    -0.187 NA 
HETATM   10  O   UNL     1      -9.167   8.445  67.546  1.00  0.00    -0.138 OA 
HETATM   11  C   UNL     1     -10.328   7.791  70.780  1.00  0.00    -0.203 C  
HETATM   12  O   UNL     1     -10.237   5.298  70.635  1.00  0.00    -0.226 OA 
HETATM   13  C   UNL     1     -10.151   6.390  70.081  1.00  0.00    -0.173 C  
BRANCH  11  14
HETATM   14  C   UNL     1      -9.298   7.894  71.924  1.00  0.00    -0.204 A  
HETATM   15  C   UNL     1      -7.942   8.212  71.710  1.00  0.00    -0.149 A  
HETATM   16  C   UNL     1      -9.705   7.627  73.247  1.00  0.00    -0.346 A  
HETATM   17  C   UNL     1      -8.800   7.676  74.310  1.00  0.00    -0.234 A  
HETATM   18  C   UNL     1      -7.037   8.258  72.775  1.00  0.00    -0.126 A  
HETATM   19  C   UNL     1      -7.465   7.988  74.072  1.00  0.00    -0.215 A  
ENDBRANCH  11  14
BRANCH  11  20
HETATM   20  C   UNL     1     -11.764   8.165  71.177  1.00  0.00    -0.309 A  
HETATM   21  C   UNL     1     -13.371   9.764  72.078  1.00  0.00    -0.547 A  
HETATM   22  C   UNL     1     -14.347   8.774  72.143  1.00  0.00    -0.481 A  
HETATM   23  C   UNL     1     -14.049   7.478  71.732  1.00  0.00    -0.509 A  
HETATM   24  C   UNL     1     -12.771   7.174  71.261  1.00  0.00    -0.412 A  
HETATM   25  C   UNL     1     -12.092   9.465  71.603  1.00  0.00    -0.462 A  
ENDBRANCH  11  20
ENDBRANCH   6   7
ENDBRANCH   3   6
TORSDOF 4
ENDMDL
MODEL       94
REMARK 921   NORMALIZED FREE ENERGY PREDICTED BY IDOCK:   -4.76 KCAL/MOL
REMARK 922        TOTAL FREE ENERGY PREDICTED BY IDOCK:   -6.72 KCAL/MOL
REMARK 923 INTER-LIGAND FREE ENERGY PREDICTED BY IDOCK:   -6.04 KCAL/MOL
REMARK 924 INTRA-LIGAND FREE ENERGY PREDICTED BY IDOCK:   -0.68 KCAL/MOL
REMARK 927      BINDING AFFINITY PREDICTED BY RF-SCORE:    0.00 PKD
ROOT
HETATM    1  O   UNL     1     -10.648  17.439  69.177  1.00  0.00    -0.321 OA 
HETATM    2  P   UNL     1     -10.875  15.867  69.304  1.00  0.00    -0.334 P  
HETATM    3  O   UNL     1     -11.258  15.295  67.851  1.00  0.00    -0.309 OA 
HETATM    4  O   UNL     1     -11.810  15.529  70.418  1.00  0.00    -0.295 OA 
HETATM    5  O   UNL     1      -9.372  15.381  69.532  1.00  0.00    -0.265 OA 
ENDROOT
BRANCH   3   6
HETATM    6  C   UNL     1     -11.856  14.015  67.986  1.00  0.00    -0.368 C  
BRANCH   6   7
HETATM    7  N   UNL     1     -11.227  12.951  67.248  1.00  0.00    -0.275 N  
HETATM    8  C   UNL     1     -11.474  11.671  67.646  1.00  0.00    -0.303 C  
HETATM    9  N   UNL     1     -10.463  10.854  67.237  1.00  0.00    -0.219 NA 
HETATM   10  O   UNL     1     -12.399  11.279  68.340  1.00  0.00    -0.545 OA 
HETATM   11  C   UNL     1      -9.372  11.562  66.611  1.00  0.00    -0.189 C  
HETATM   12  O   UNL     1      -9.395  14.049  66.367  1.00  0.00    -0.274 OA 
HETATM   13  C   UNL     1      -9.974  13.016  66.693  1.00  0.00    -0.250 C  
BRANCH  11  14
HETATM   14  C   UNL     1      -8.081  11.525  67.456  1.00  0.00    -0.137 A  
HETATM   15  C   UNL     1      -6.822  11.909  66.952  1.00  0.00    -0.075 A  
HETATM   16  C   UNL     1      -8.138  11.054  68.784  1.00  0.00    -0.145 A  
HETATM   17  C   UNL     1      -6.990  10.971  69.575  1.00  0.00    -0.126 A  
HETATM   18  C   UNL     1      -5.674  11.823  67.746  1.00  0.00    -0.057 A  
HETATM   19  C   UNL     1      -5.757  11.353  69.053  1.00  0.00    -0.044 A  
ENDBRANCH  11  14
BRANCH  11  20
HETATM   20  C   UNL     1      -9.229  10.974  65.199  1.00  0.00    -0.227 A  
HETATM   21  C   UNL     1      -9.885  10.905  62.850  1.00  0.00    -0.313 A  
HETATM   22  C   UNL     1      -9.159   9.733  62.663  1.00  0.00    -0.297 A  
HETATM   23  C   UNL     1      -8.467   9.168  63.730  1.00  0.00    -0.187 A  
HETATM   24  C   UNL     1      -8.507   9.776  64.986  1.00  0.00    -0.161 A  
HETATM   25  C   UNL     1      -9.923  11.520  64.104  1.00  0.00    -0.327 A  
ENDBRANCH  11  20
ENDBRANCH   6   7
ENDBRANCH   3   6
TORSDOF 4
ENDMDL
MODEL       95
REMARK 921   NORMALIZED FREE ENERGY PREDICTED BY IDOCK:   -4.75 KCAL/MOL
REMARK 922        TOTAL FREE ENERGY PREDICTED BY IDOCK:   -6.71 KCAL/MOL
REMARK 923 INTER-LIGAND FREE ENERGY PREDICTED BY IDOCK:   -5.76 KCAL/MOL
REMARK 924 INTRA-LIGAND FREE ENERGY PREDICTED BY IDOCK:   -0.95 KCAL/MOL
REMARK 927      BINDING AFFINITY PREDICTED BY RF-SCORE:    0.00 PKD
ROOT
HETATM    1  O   UNL     1     -13.285  14.415  65.077  1.00  0.00    -0.562 OA 
HETATM    2  P   UNL     1     -11.776  13.907  65.011  1.00  0.00    -0.405 P  
HETATM    3  O   UNL     1     -11.488  13.015  66.317  1.00  0.00    -0.308 OA 
HETATM    4  O   UNL     1     -10.824  15.026  64.748  1.00  0.00    -0.394 OA 
HETATM    5  O   UNL     1     -11.887  12.841  63.828  1.00  0.00    -0.419 OA 
ENDROOT
BRANCH   3   6
HETATM    6  C   UNL     1     -10.087  12.887  66.508  1.00  0.00    -0.261 C  
BRANCH   6   7
HETATM    7  N   UNL     1      -9.680  12.034  67.593  1.00  0.00    -0.183 N  
HETATM    8  C   UNL     1      -8.553  12.376  68.280  1.00  0.00    -0.172 C  
HETATM    9  N   UNL     1      -8.021  11.273  68.878  1.00  0.00    -0.132 NA 
HETATM   10  O   UNL     1      -8.011  13.469  68.313  1.00  0.00    -0.133 OA 
HETATM   11  C   UNL     1      -8.707  10.049  68.538  1.00  0.00    -0.123 C  
HETATM   12  O   UNL     1     -10.654  10.034  66.971  1.00  0.00    -0.240 OA 
HETATM   13  C   UNL     1      -9.824  10.669  67.615  1.00  0.00    -0.167 C  
BRANCH  11  14
HETATM   14  C   UNL     1      -7.840   9.104  67.679  1.00  0.00    -0.096 A  
HETATM   15  C   UNL     1      -8.210   7.777  67.387  1.00  0.00    -0.123 A  
HETATM   16  C   UNL     1      -6.601   9.561  67.186  1.00  0.00    -0.071 A  
HETATM   17  C   UNL     1      -5.768   8.731  66.432  1.00  0.00    -0.046 A  
HETATM   18  C   UNL     1      -7.373   6.946  66.635  1.00  0.00    -0.077 A  
HETATM   19  C   UNL     1      -6.154   7.421  66.160  1.00  0.00    -0.037 A  
ENDBRANCH  11  14
BRANCH  11  20
HETATM   20  C   UNL     1      -9.193   9.444  69.864  1.00  0.00    -0.226 A  
HETATM   21  C   UNL     1     -10.944   9.102  71.527  1.00  0.00    -0.434 A  
HETATM   22  C   UNL     1     -10.021   8.553  72.412  1.00  0.00    -0.365 A  
HETATM   23  C   UNL     1      -8.684   8.445  72.041  1.00  0.00    -0.267 A  
HETATM   24  C   UNL     1      -8.272   8.892  70.785  1.00  0.00    -0.198 A  
HETATM   25  C   UNL     1     -10.537   9.545  70.266  1.00  0.00    -0.317 A  
ENDBRANCH  11  20
ENDBRANCH   6   7
ENDBRANCH   3   6
TORSDOF 4
ENDMDL
MODEL       96
REMARK 921   NORMALIZED FREE ENERGY PREDICTED BY IDOCK:   -4.73 KCAL/MOL
REMARK 922        TOTAL FREE ENERGY PREDICTED BY IDOCK:   -6.69 KCAL/MOL
REMARK 923 INTER-LIGAND FREE ENERGY PREDICTED BY IDOCK:   -6.37 KCAL/MOL
REMARK 924 INTRA-LIGAND FREE ENERGY PREDICTED BY IDOCK:   -0.32 KCAL/MOL
REMARK 927      BINDING AFFINITY PREDICTED BY RF-SCORE:    0.00 PKD
ROOT
HETATM    1  O   UNL     1      -7.946   7.761  72.981  1.00  0.00    -0.106 OA 
HETATM    2  P   UNL     1      -9.361   7.691  72.252  1.00  0.00    -0.178 P  
HETATM    3  O   UNL     1      -9.450   8.912  71.208  1.00  0.00    -0.225 OA 
HETATM    4  O   UNL     1     -10.483   7.569  73.227  1.00  0.00    -0.329 OA 
HETATM    5  O   UNL     1      -9.142   6.406  71.331  1.00  0.00    -0.145 OA 
ENDROOT
BRANCH   3   6
HETATM    6  C   UNL     1     -10.805   9.131  70.847  1.00  0.00    -0.278 C  
BRANCH   6   7
HETATM    7  N   UNL     1     -11.099  10.423  70.286  1.00  0.00    -0.305 N  
HETATM    8  C   UNL     1     -12.401  10.706  69.995  1.00  0.00    -0.269 C  
HETATM    9  N   UNL     1     -12.463  11.676  69.040  1.00  0.00    -0.158 NA 
HETATM   10  O   UNL     1     -13.394  10.145  70.431  1.00  0.00    -0.166 OA 
HETATM   11  C   UNL     1     -11.170  12.050  68.518  1.00  0.00    -0.256 C  
HETATM   12  O   UNL     1      -9.070  10.959  69.320  1.00  0.00    -0.110 OA 
HETATM   13  C   UNL     1     -10.285  11.106  69.417  1.00  0.00    -0.010 C  
BRANCH  11  14
HETATM   14  C   UNL     1     -10.983  11.630  67.045  1.00  0.00    -0.338 A  
HETATM   15  C   UNL     1     -11.615  12.290  65.972  1.00  0.00    -0.451 A  
HETATM   16  C   UNL     1     -10.174  10.516  66.742  1.00  0.00    -0.288 A  
HETATM   17  C   UNL     1     -10.002  10.079  65.426  1.00  0.00    -0.364 A  
HETATM   18  C   UNL     1     -11.443  11.850  64.656  1.00  0.00    -0.345 A  
HETATM   19  C   UNL     1     -10.640  10.746  64.384  1.00  0.00    -0.246 A  
ENDBRANCH  11  14
BRANCH  11  20
HETATM   20  C   UNL     1     -11.021  13.557  68.778  1.00  0.00    -0.291 A  
HETATM   21  C   UNL     1      -9.639  15.563  68.908  1.00  0.00    -0.220 A  
HETATM   22  C   UNL     1     -10.685  16.267  69.498  1.00  0.00    -0.323 A  
HETATM   23  C   UNL     1     -11.900  15.632  69.736  1.00  0.00    -0.376 A  
HETATM   24  C   UNL     1     -12.065  14.291  69.388  1.00  0.00    -0.361 A  
HETATM   25  C   UNL     1      -9.802  14.222  68.553  1.00  0.00    -0.231 A  
ENDBRANCH  11  20
ENDBRANCH   6   7
ENDBRANCH   3   6
TORSDOF 4
ENDMDL
MODEL       97
REMARK 921   NORMALIZED FREE ENERGY PREDICTED BY IDOCK:   -4.70 KCAL/MOL
REMARK 922        TOTAL FREE ENERGY PREDICTED BY IDOCK:   -6.66 KCAL/MOL
REMARK 923 INTER-LIGAND FREE ENERGY PREDICTED BY IDOCK:   -5.82 KCAL/MOL
REMARK 924 INTRA-LIGAND FREE ENERGY PREDICTED BY IDOCK:   -0.83 KCAL/MOL
REMARK 927      BINDING AFFINITY PREDICTED BY RF-SCORE:    0.00 PKD
ROOT
HETATM    1  O   UNL     1     -12.665   9.432  72.171  1.00  0.00    -0.384 OA 
HETATM    2  P   UNL     1     -11.538   8.467  71.589  1.00  0.00    -0.352 P  
HETATM    3  O   UNL     1     -10.435   9.372  70.847  1.00  0.00    -0.265 OA 
HETATM    4  O   UNL     1     -12.122   7.348  70.793  1.00  0.00    -0.280 OA 
HETATM    5  O   UNL     1     -10.825   8.015  72.943  1.00  0.00    -0.366 OA 
ENDROOT
BRANCH   3   6
HETATM    6  C   UNL     1      -9.655   8.559  69.984  1.00  0.00    -0.169 C  
BRANCH   6   7
HETATM    7  N   UNL     1      -9.251   9.173  68.746  1.00  0.00    -0.136 N  
HETATM    8  C   UNL     1      -8.097   9.899  68.746  1.00  0.00    -0.102 C  
HETATM    9  N   UNL     1      -8.118  10.805  67.728  1.00  0.00    -0.110 NA 
HETATM   10  O   UNL     1      -7.191   9.847  69.563  1.00  0.00    -0.073 OA 
HETATM   11  C   UNL     1      -9.372  10.834  67.014  1.00  0.00    -0.156 C  
HETATM   12  O   UNL     1     -11.281   9.358  67.661  1.00  0.00    -0.030 OA 
HETATM   13  C   UNL     1     -10.110   9.693  67.810  1.00  0.00    -0.187 C  
BRANCH  11  14
HETATM   14  C   UNL     1     -10.145  12.152  67.230  1.00  0.00    -0.214 A  
HETATM   15  C   UNL     1     -11.471  12.195  67.705  1.00  0.00    -0.399 A  
HETATM   16  C   UNL     1      -9.525  13.378  66.911  1.00  0.00    -0.253 A  
HETATM   17  C   UNL     1     -10.197  14.593  67.060  1.00  0.00    -0.261 A  
HETATM   18  C   UNL     1     -12.144  13.413  67.850  1.00  0.00    -0.289 A  
HETATM   19  C   UNL     1     -11.509  14.609  67.527  1.00  0.00    -0.378 A  
ENDBRANCH  11  14
BRANCH  11  20
HETATM   20  C   UNL     1      -9.040  10.521  65.547  1.00  0.00    -0.214 A  
HETATM   21  C   UNL     1      -7.412  10.059  63.790  1.00  0.00    -0.141 A  
HETATM   22  C   UNL     1      -8.397  10.197  62.816  1.00  0.00    -0.171 A  
HETATM   23  C   UNL     1      -9.703  10.499  63.189  1.00  0.00    -0.351 A  
HETATM   24  C   UNL     1     -10.020  10.667  64.538  1.00  0.00    -0.410 A  
HETATM   25  C   UNL     1      -7.727  10.221  65.141  1.00  0.00    -0.136 A  
ENDBRANCH  11  20
ENDBRANCH   6   7
ENDBRANCH   3   6
TORSDOF 4
ENDMDL
MODEL       98
REMARK 921   NORMALIZED FREE ENERGY PREDICTED BY IDOCK:   -4.69 KCAL/MOL
REMARK 922        TOTAL FREE ENERGY PREDICTED BY IDOCK:   -6.64 KCAL/MOL
REMARK 923 INTER-LIGAND FREE ENERGY PREDICTED BY IDOCK:   -5.88 KCAL/MOL
REMARK 924 INTRA-LIGAND FREE ENERGY PREDICTED BY IDOCK:   -0.76 KCAL/MOL
REMARK 927      BINDING AFFINITY PREDICTED BY RF-SCORE:    0.00 PKD
ROOT
HETATM    1  O   UNL     1      -8.419  11.491  66.017  1.00  0.00    -0.124 OA 
HETATM    2  P   UNL     1      -7.648  10.771  67.212  1.00  0.00    -0.110 P  
HETATM    3  O   UNL     1      -8.141   9.242  67.279  1.00  0.00    -0.111 OA 
HETATM    4  O   UNL     1      -7.735  11.553  68.480  1.00  0.00    -0.120 OA 
HETATM    5  O   UNL     1      -6.181  10.681  66.590  1.00  0.00    -0.067 OA 
ENDROOT
BRANCH   3   6
HETATM    6  C   UNL     1      -7.806   8.690  68.543  1.00  0.00    -0.108 C  
BRANCH   6   7
HETATM    7  N   UNL     1      -8.873   8.647  69.508  1.00  0.00    -0.142 N  
HETATM    8  C   UNL     1      -8.592   9.041  70.783  1.00  0.00    -0.217 C  
HETATM    9  N   UNL     1      -9.478   8.477  71.650  1.00  0.00    -0.220 NA 
HETATM   10  O   UNL     1      -7.649   9.722  71.154  1.00  0.00    -0.278 OA 
HETATM   11  C   UNL     1     -10.382   7.544  71.020  1.00  0.00    -0.199 C  
HETATM   12  O   UNL     1     -10.249   7.043  68.575  1.00  0.00    -0.160 OA 
HETATM   13  C   UNL     1      -9.867   7.701  69.539  1.00  0.00    -0.178 C  
BRANCH  11  14
HETATM   14  C   UNL     1     -10.134   6.087  71.466  1.00  0.00    -0.232 A  
HETATM   15  C   UNL     1      -9.963   5.025  70.557  1.00  0.00    -0.312 A  
HETATM   16  C   UNL     1     -10.110   5.781  72.842  1.00  0.00    -0.205 A  
HETATM   17  C   UNL     1      -9.922   4.473  73.293  1.00  0.00    -0.178 A  
HETATM   18  C   UNL     1      -9.777   3.714  71.010  1.00  0.00    -0.243 A  
HETATM   19  C   UNL     1      -9.759   3.439  72.374  1.00  0.00    -0.212 A  
ENDBRANCH  11  14
BRANCH  11  20
HETATM   20  C   UNL     1     -11.801   8.065  71.295  1.00  0.00    -0.321 A  
HETATM   21  C   UNL     1     -13.303   9.731  72.251  1.00  0.00    -0.472 A  
HETATM   22  C   UNL     1     -14.397   8.901  72.025  1.00  0.00    -0.406 A  
HETATM   23  C   UNL     1     -14.210   7.652  71.440  1.00  0.00    -0.514 A  
HETATM   24  C   UNL     1     -12.927   7.235  71.085  1.00  0.00    -0.313 A  
HETATM   25  C   UNL     1     -12.018   9.320  71.892  1.00  0.00    -0.433 A  
ENDBRANCH  11  20
ENDBRANCH   6   7
ENDBRANCH   3   6
TORSDOF 4
ENDMDL
MODEL       99
REMARK 921   NORMALIZED FREE ENERGY PREDICTED BY IDOCK:   -4.66 KCAL/MOL
REMARK 922        TOTAL FREE ENERGY PREDICTED BY IDOCK:   -6.60 KCAL/MOL
REMARK 923 INTER-LIGAND FREE ENERGY PREDICTED BY IDOCK:   -5.42 KCAL/MOL
REMARK 924 INTRA-LIGAND FREE ENERGY PREDICTED BY IDOCK:   -1.19 KCAL/MOL
REMARK 927      BINDING AFFINITY PREDICTED BY RF-SCORE:    0.00 PKD
ROOT
HETATM    1  O   UNL     1      -7.943   6.442  71.781  1.00  0.00    -0.103 OA 
HETATM    2  P   UNL     1      -9.472   6.762  71.465  1.00  0.00    -0.153 P  
HETATM    3  O   UNL     1      -9.703   6.595  69.883  1.00  0.00    -0.158 OA 
HETATM    4  O   UNL     1      -9.905   8.057  72.067  1.00  0.00    -0.181 OA 
HETATM    5  O   UNL     1     -10.167   5.473  72.099  1.00  0.00    -0.187 OA 
ENDROOT
BRANCH   3   6
HETATM    6  C   UNL     1     -10.906   7.249  69.506  1.00  0.00    -0.209 C  
BRANCH   6   7
HETATM    7  N   UNL     1     -10.795   8.173  68.408  1.00  0.00     0.004 N  
HETATM    8  C   UNL     1     -10.528   7.660  67.173  1.00  0.00    -0.342 C  
HETATM    9  N   UNL     1      -9.954   8.614  66.388  1.00  0.00    -0.278 NA 
HETATM   10  O   UNL     1     -10.680   6.506  66.804  1.00  0.00    -0.291 OA 
HETATM   11  C   UNL     1      -9.680   9.845  67.090  1.00  0.00    -0.178 C  
HETATM   12  O   UNL     1     -10.209  10.112  69.518  1.00  0.00    -0.209 OA 
HETATM   13  C   UNL     1     -10.266   9.436  68.494  1.00  0.00    -0.199 C  
BRANCH  11  14
HETATM   14  C   UNL     1      -8.168  10.108  67.255  1.00  0.00    -0.117 A  
HETATM   15  C   UNL     1      -7.592  11.387  67.123  1.00  0.00    -0.145 A  
HETATM   16  C   UNL     1      -7.303   9.025  67.515  1.00  0.00    -0.081 A  
HETATM   17  C   UNL     1      -5.924   9.210  67.639  1.00  0.00    -0.050 A  
HETATM   18  C   UNL     1      -6.211  11.569  67.245  1.00  0.00    -0.104 A  
HETATM   19  C   UNL     1      -5.378  10.483  67.500  1.00  0.00    -0.040 A  
ENDBRANCH  11  14
BRANCH  11  20
HETATM   20  C   UNL     1     -10.443  10.949  66.341  1.00  0.00    -0.307 A  
HETATM   21  C   UNL     1     -12.008  12.819  66.334  1.00  0.00    -0.443 A  
HETATM   22  C   UNL     1     -12.040  12.811  64.942  1.00  0.00    -0.490 A  
HETATM   23  C   UNL     1     -11.284  11.879  64.237  1.00  0.00    -0.424 A  
HETATM   24  C   UNL     1     -10.500  10.953  64.928  1.00  0.00    -0.352 A  
HETATM   25  C   UNL     1     -11.220  11.898  67.028  1.00  0.00    -0.379 A  
ENDBRANCH  11  20
ENDBRANCH   6   7
ENDBRANCH   3   6
TORSDOF 4
ENDMDL
MODEL      100
REMARK 921   NORMALIZED FREE ENERGY PREDICTED BY IDOCK:   -4.64 KCAL/MOL
REMARK 922        TOTAL FREE ENERGY PREDICTED BY IDOCK:   -6.58 KCAL/MOL
REMARK 923 INTER-LIGAND FREE ENERGY PREDICTED BY IDOCK:   -5.54 KCAL/MOL
REMARK 924 INTRA-LIGAND FREE ENERGY PREDICTED BY IDOCK:   -1.04 KCAL/MOL
REMARK 927      BINDING AFFINITY PREDICTED BY RF-SCORE:    0.00 PKD
ROOT
HETATM    1  O   UNL     1     -10.798   5.181  71.319  1.00  0.00    -0.134 OA 
HETATM    2  P   UNL     1     -11.053   6.543  70.533  1.00  0.00    -0.370 P  
HETATM    3  O   UNL     1      -9.842   7.548  70.864  1.00  0.00    -0.177 OA 
HETATM    4  O   UNL     1     -12.432   7.067  70.763  1.00  0.00    -0.338 OA 
HETATM    5  O   UNL     1     -10.767   6.066  69.038  1.00  0.00    -0.258 OA 
ENDROOT
BRANCH   3   6
HETATM    6  C   UNL     1     -10.221   8.876  70.532  1.00  0.00    -0.204 C  
BRANCH   6   7
HETATM    7  N   UNL     1      -9.590   9.431  69.364  1.00  0.00    -0.166 N  
HETATM    8  C   UNL     1      -8.410  10.093  69.535  1.00  0.00    -0.168 C  
HETATM    9  N   UNL     1      -8.216  10.969  68.511  1.00  0.00    -0.139 NA 
HETATM   10  O   UNL     1      -7.650  10.013  70.488  1.00  0.00    -0.276 OA 
HETATM   11  C   UNL     1      -9.336  11.048  67.604  1.00  0.00    -0.157 C  
HETATM   12  O   UNL     1     -11.408   9.699  67.964  1.00  0.00    -0.048 OA 
HETATM   13  C   UNL     1     -10.257   9.972  68.294  1.00  0.00    -0.173 C  
BRANCH  11  14
HETATM   14  C   UNL     1     -10.055  12.413  67.670  1.00  0.00    -0.199 A  
HETATM   15  C   UNL     1     -10.935  12.767  68.711  1.00  0.00    -0.289 A  
HETATM   16  C   UNL     1      -9.861  13.346  66.631  1.00  0.00    -0.278 A  
HETATM   17  C   UNL     1     -10.516  14.580  66.631  1.00  0.00    -0.274 A  
HETATM   18  C   UNL     1     -11.592  14.002  68.708  1.00  0.00    -0.366 A  
HETATM   19  C   UNL     1     -11.384  14.906  67.670  1.00  0.00    -0.348 A  
ENDBRANCH  11  14
BRANCH  11  20
HETATM   20  C   UNL     1      -8.794  10.677  66.215  1.00  0.00    -0.172 A  
HETATM   21  C   UNL     1      -9.140   9.807  63.963  1.00  0.00    -0.280 A  
HETATM   22  C   UNL     1      -7.766   9.755  63.752  1.00  0.00    -0.135 A  
HETATM   23  C   UNL     1      -6.894  10.158  64.759  1.00  0.00    -0.121 A  
HETATM   24  C   UNL     1      -7.401  10.606  65.980  1.00  0.00    -0.132 A  
HETATM   25  C   UNL     1      -9.652  10.260  65.181  1.00  0.00    -0.337 A  
ENDBRANCH  11  20
ENDBRANCH   6   7
ENDBRANCH   3   6
TORSDOF 4
ENDMDL
MODEL      101
REMARK 921   NORMALIZED FREE ENERGY PREDICTED BY IDOCK:   -4.64 KCAL/MOL
REMARK 922        TOTAL FREE ENERGY PREDICTED BY IDOCK:   -6.57 KCAL/MOL
REMARK 923 INTER-LIGAND FREE ENERGY PREDICTED BY IDOCK:   -5.59 KCAL/MOL
REMARK 924 INTRA-LIGAND FREE ENERGY PREDICTED BY IDOCK:   -0.99 KCAL/MOL
REMARK 927      BINDING AFFINITY PREDICTED BY RF-SCORE:    0.00 PKD
ROOT
HETATM    1  O   UNL     1      -6.731   6.969  71.864  1.00  0.00    -0.056 OA 
HETATM    2  P   UNL     1      -8.057   7.827  71.653  1.00  0.00    -0.119 P  
HETATM    3  O   UNL     1      -7.957   8.564  70.227  1.00  0.00    -0.094 OA 
HETATM    4  O   UNL     1      -8.350   8.697  72.830  1.00  0.00    -0.400 OA 
HETATM    5  O   UNL     1      -9.117   6.658  71.415  1.00  0.00    -0.144 OA 
ENDROOT
BRANCH   3   6
HETATM    6  C   UNL     1      -8.891   9.631  70.176  1.00  0.00    -0.231 C  
BRANCH   6   7
HETATM    7  N   UNL     1      -9.484   9.880  68.889  1.00  0.00    -0.162 N  
HETATM    8  C   UNL     1     -10.283   8.910  68.360  1.00  0.00    -0.199 C  
HETATM    9  N   UNL     1     -10.332   9.036  67.004  1.00  0.00    -0.269 NA 
HETATM   10  O   UNL     1     -10.823   7.991  68.957  1.00  0.00    -0.136 OA 
HETATM   11  C   UNL     1      -9.456  10.062  66.492  1.00  0.00    -0.175 C  
HETATM   12  O   UNL     1      -7.997  11.412  68.006  1.00  0.00    -0.116 OA 
HETATM   13  C   UNL     1      -8.882  10.572  67.868  1.00  0.00    -0.133 C  
BRANCH  11  14
HETATM   14  C   UNL     1      -8.288   9.483  65.665  1.00  0.00    -0.131 A  
HETATM   15  C   UNL     1      -7.187  10.257  65.246  1.00  0.00    -0.134 A  
HETATM   16  C   UNL     1      -8.323   8.129  65.273  1.00  0.00    -0.160 A  
HETATM   17  C   UNL     1      -7.305   7.571  64.497  1.00  0.00    -0.087 A  
HETATM   18  C   UNL     1      -6.170   9.696  64.467  1.00  0.00    -0.090 A  
HETATM   19  C   UNL     1      -6.230   8.357  64.091  1.00  0.00    -0.067 A  
ENDBRANCH  11  14
BRANCH  11  20
HETATM   20  C   UNL     1     -10.350  11.052  65.730  1.00  0.00    -0.316 A  
HETATM   21  C   UNL     1     -12.090  12.761  65.710  1.00  0.00    -0.505 A  
HETATM   22  C   UNL     1     -12.171  12.688  64.323  1.00  0.00    -0.524 A  
HETATM   23  C   UNL     1     -11.354  11.804  63.626  1.00  0.00    -0.525 A  
HETATM   24  C   UNL     1     -10.459  10.989  64.321  1.00  0.00    -0.427 A  
HETATM   25  C   UNL     1     -11.191  11.952  66.409  1.00  0.00    -0.387 A  
ENDBRANCH  11  20
ENDBRANCH   6   7
ENDBRANCH   3   6
TORSDOF 4
ENDMDL
MODEL      102
REMARK 921   NORMALIZED FREE ENERGY PREDICTED BY IDOCK:   -4.62 KCAL/MOL
REMARK 922        TOTAL FREE ENERGY PREDICTED BY IDOCK:   -6.55 KCAL/MOL
REMARK 923 INTER-LIGAND FREE ENERGY PREDICTED BY IDOCK:   -5.72 KCAL/MOL
REMARK 924 INTRA-LIGAND FREE ENERGY PREDICTED BY IDOCK:   -0.83 KCAL/MOL
REMARK 927      BINDING AFFINITY PREDICTED BY RF-SCORE:    0.00 PKD
ROOT
HETATM    1  O   UNL     1     -11.200  15.460  64.660  1.00  0.00    -0.407 OA 
HETATM    2  P   UNL     1     -11.805  14.023  64.987  1.00  0.00    -0.426 P  
HETATM    3  O   UNL     1     -10.585  13.023  65.297  1.00  0.00    -0.290 OA 
HETATM    4  O   UNL     1     -12.779  13.580  63.946  1.00  0.00    -0.669 OA 
HETATM    5  O   UNL     1     -12.451  14.307  66.419  1.00  0.00    -0.441 OA 
ENDROOT
BRANCH   3   6
HETATM    6  C   UNL     1     -11.032  11.680  65.190  1.00  0.00    -0.266 C  
BRANCH   6   7
HETATM    7  N   UNL     1     -10.500  10.766  66.166  1.00  0.00    -0.239 N  
HETATM    8  C   UNL     1     -11.050  10.778  67.413  1.00  0.00    -0.296 C  
HETATM    9  N   UNL     1     -10.158  10.289  68.320  1.00  0.00    -0.149 NA 
HETATM   10  O   UNL     1     -12.138  11.230  67.736  1.00  0.00    -0.631 OA 
HETATM   11  C   UNL     1      -8.861  10.007  67.752  1.00  0.00    -0.125 C  
HETATM   12  O   UNL     1      -8.369  10.428  65.339  1.00  0.00    -0.157 OA 
HETATM   13  C   UNL     1      -9.180  10.399  66.260  1.00  0.00    -0.166 C  
BRANCH  11  14
HETATM   14  C   UNL     1      -7.766  10.957  68.279  1.00  0.00    -0.111 A  
HETATM   15  C   UNL     1      -7.190  10.832  69.558  1.00  0.00    -0.132 A  
HETATM   16  C   UNL     1      -7.333  12.028  67.470  1.00  0.00    -0.137 A  
HETATM   17  C   UNL     1      -6.368  12.934  67.917  1.00  0.00    -0.125 A  
HETATM   18  C   UNL     1      -6.226  11.740  70.006  1.00  0.00    -0.136 A  
HETATM   19  C   UNL     1      -5.817  12.790  69.188  1.00  0.00    -0.081 A  
ENDBRANCH  11  14
BRANCH  11  20
HETATM   20  C   UNL     1      -8.593   8.516  68.011  1.00  0.00    -0.134 A  
HETATM   21  C   UNL     1      -7.548   6.405  67.379  1.00  0.00    -0.100 A  
HETATM   22  C   UNL     1      -8.300   5.726  68.333  1.00  0.00    -0.107 A  
HETATM   23  C   UNL     1      -9.201   6.424  69.131  1.00  0.00    -0.133 A  
HETATM   24  C   UNL     1      -9.353   7.802  68.967  1.00  0.00    -0.150 A  
HETATM   25  C   UNL     1      -7.693   7.784  67.216  1.00  0.00    -0.113 A  
ENDBRANCH  11  20
ENDBRANCH   6   7
ENDBRANCH   3   6
TORSDOF 4
ENDMDL
MODEL      103
REMARK 921   NORMALIZED FREE ENERGY PREDICTED BY IDOCK:   -4.56 KCAL/MOL
REMARK 922        TOTAL FREE ENERGY PREDICTED BY IDOCK:   -6.48 KCAL/MOL
REMARK 923 INTER-LIGAND FREE ENERGY PREDICTED BY IDOCK:   -5.76 KCAL/MOL
REMARK 924 INTRA-LIGAND FREE ENERGY PREDICTED BY IDOCK:   -0.72 KCAL/MOL
REMARK 927      BINDING AFFINITY PREDICTED BY RF-SCORE:    0.00 PKD
ROOT
HETATM    1  O   UNL     1     -12.514  13.254  66.605  1.00  0.00    -0.278 OA 
HETATM    2  P   UNL     1     -11.389  12.221  66.148  1.00  0.00    -0.366 P  
HETATM    3  O   UNL     1     -11.441  10.953  67.136  1.00  0.00    -0.428 OA 
HETATM    4  O   UNL     1     -10.061  12.882  65.986  1.00  0.00    -0.275 OA 
HETATM    5  O   UNL     1     -12.032  11.685  64.790  1.00  0.00    -0.110 OA 
ENDROOT
BRANCH   3   6
HETATM    6  C   UNL     1     -10.229  10.220  67.033  1.00  0.00    -0.228 C  
BRANCH   6   7
HETATM    7  N   UNL     1     -10.044   9.181  68.011  1.00  0.00    -0.185 N  
HETATM    8  C   UNL     1     -10.506   7.935  67.707  1.00  0.00    -0.212 C  
HETATM    9  N   UNL     1     -10.737   7.233  68.852  1.00  0.00    -0.186 NA 
HETATM   10  O   UNL     1     -10.773   7.496  66.599  1.00  0.00    -0.239 OA 
HETATM   11  C   UNL     1     -10.550   8.014  70.051  1.00  0.00    -0.242 C  
HETATM   12  O   UNL     1      -9.894  10.423  69.953  1.00  0.00    -0.165 OA 
HETATM   13  C   UNL     1     -10.102   9.363  69.370  1.00  0.00    -0.198 C  
BRANCH  11  14
HETATM   14  C   UNL     1     -11.873   8.268  70.804  1.00  0.00    -0.172 A  
HETATM   15  C   UNL     1     -12.997   7.427  70.686  1.00  0.00     0.168 A  
HETATM   16  C   UNL     1     -11.993   9.408  71.625  1.00  0.00    -0.465 A  
HETATM   17  C   UNL     1     -13.181   9.697  72.300  1.00  0.00    -0.492 A  
HETATM   18  C   UNL     1     -14.187   7.719  71.360  1.00  0.00    -0.489 A  
HETATM   19  C   UNL     1     -14.280   8.852  72.163  1.00  0.00    -0.463 A  
ENDBRANCH  11  14
BRANCH  11  20
HETATM   20  C   UNL     1      -9.474   7.289  70.874  1.00  0.00    -0.159 A  
HETATM   21  C   UNL     1      -8.836   5.849  72.736  1.00  0.00    -0.124 A  
HETATM   22  C   UNL     1      -7.494   6.161  72.542  1.00  0.00    -0.097 A  
HETATM   23  C   UNL     1      -7.126   7.035  71.523  1.00  0.00    -0.073 A  
HETATM   24  C   UNL     1      -8.105   7.599  70.703  1.00  0.00    -0.108 A  
HETATM   25  C   UNL     1      -9.818   6.407  71.914  1.00  0.00    -0.172 A  
ENDBRANCH  11  20
ENDBRANCH   6   7
ENDBRANCH   3   6
TORSDOF 4
ENDMDL
MODEL      104
REMARK 921   NORMALIZED FREE ENERGY PREDICTED BY IDOCK:   -4.55 KCAL/MOL
REMARK 922        TOTAL FREE ENERGY PREDICTED BY IDOCK:   -6.47 KCAL/MOL
REMARK 923 INTER-LIGAND FREE ENERGY PREDICTED BY IDOCK:   -5.80 KCAL/MOL
REMARK 924 INTRA-LIGAND FREE ENERGY PREDICTED BY IDOCK:   -0.66 KCAL/MOL
REMARK 927      BINDING AFFINITY PREDICTED BY RF-SCORE:    0.00 PKD
ROOT
HETATM    1  O   UNL     1      -7.384   7.470  64.153  1.00  0.00    -0.077 OA 
HETATM    2  P   UNL     1      -8.082   8.067  65.455  1.00  0.00    -0.140 P  
HETATM    3  O   UNL     1      -9.074   6.950  66.051  1.00  0.00    -0.146 OA 
HETATM    4  O   UNL     1      -8.675   9.413  65.201  1.00  0.00    -0.158 OA 
HETATM    5  O   UNL     1      -6.846   8.069  66.465  1.00  0.00    -0.064 OA 
ENDROOT
BRANCH   3   6
HETATM    6  C   UNL     1      -9.999   7.559  66.939  1.00  0.00    -0.248 C  
BRANCH   6   7
HETATM    7  N   UNL     1      -9.818   7.252  68.333  1.00  0.00    -0.152 N  
HETATM    8  C   UNL     1     -10.192   6.014  68.764  1.00  0.00    -0.188 C  
HETATM    9  N   UNL     1     -10.455   6.046  70.100  1.00  0.00    -0.224 NA 
HETATM   10  O   UNL     1     -10.365   5.016  68.082  1.00  0.00    -0.116 OA 
HETATM   11  C   UNL     1     -10.385   7.372  70.666  1.00  0.00    -0.212 C  
HETATM   12  O   UNL     1      -9.856   9.368  69.259  1.00  0.00    -0.163 OA 
HETATM   13  C   UNL     1      -9.970   8.150  69.360  1.00  0.00    -0.188 C  
BRANCH  11  14
HETATM   14  C   UNL     1     -11.764   7.894  71.123  1.00  0.00    -0.306 A  
HETATM   15  C   UNL     1     -12.027   9.256  71.365  1.00  0.00    -0.424 A  
HETATM   16  C   UNL     1     -12.810   6.976  71.347  1.00  0.00    -0.407 A  
HETATM   17  C   UNL     1     -14.065   7.398  71.792  1.00  0.00    -0.510 A  
HETATM   18  C   UNL     1     -13.284   9.677  71.813  1.00  0.00    -0.520 A  
HETATM   19  C   UNL     1     -14.299   8.750  72.028  1.00  0.00    -0.466 A  
ENDBRANCH  11  14
BRANCH  11  20
HETATM   20  C   UNL     1      -9.324   7.312  71.776  1.00  0.00    -0.161 A  
HETATM   21  C   UNL     1      -8.554   7.906  74.013  1.00  0.00    -0.322 A  
HETATM   22  C   UNL     1      -7.282   7.422  73.724  1.00  0.00    -0.103 A  
HETATM   23  C   UNL     1      -7.014   6.884  72.469  1.00  0.00    -0.066 A  
HETATM   24  C   UNL     1      -8.020   6.836  71.503  1.00  0.00    -0.102 A  
HETATM   25  C   UNL     1      -9.566   7.855  73.051  1.00  0.00    -0.341 A  
ENDBRANCH  11  20
ENDBRANCH   6   7
ENDBRANCH   3   6
TORSDOF 4
ENDMDL
MODEL      105
REMARK 921   NORMALIZED FREE ENERGY PREDICTED BY IDOCK:   -4.52 KCAL/MOL
REMARK 922        TOTAL FREE ENERGY PREDICTED BY IDOCK:   -6.42 KCAL/MOL
REMARK 923 INTER-LIGAND FREE ENERGY PREDICTED BY IDOCK:   -5.63 KCAL/MOL
REMARK 924 INTRA-LIGAND FREE ENERGY PREDICTED BY IDOCK:   -0.79 KCAL/MOL
REMARK 927      BINDING AFFINITY PREDICTED BY RF-SCORE:    0.00 PKD
ROOT
HETATM    1  O   UNL     1      -8.775   5.035  64.637  1.00  0.00    -0.151 OA 
HETATM    2  P   UNL     1      -8.067   5.396  66.019  1.00  0.00    -0.113 P  
HETATM    3  O   UNL     1      -9.205   5.837  67.066  1.00  0.00    -0.116 OA 
HETATM    4  O   UNL     1      -6.934   6.349  65.830  1.00  0.00    -0.058 OA 
HETATM    5  O   UNL     1      -7.633   3.939  66.504  1.00  0.00    -0.085 OA 
ENDROOT
BRANCH   3   6
HETATM    6  C   UNL     1      -8.611   6.542  68.145  1.00  0.00    -0.118 C  
BRANCH   6   7
HETATM    7  N   UNL     1      -8.902   7.950  68.206  1.00  0.00    -0.130 N  
HETATM    8  C   UNL     1      -8.134   8.722  69.027  1.00  0.00    -0.116 C  
HETATM    9  N   UNL     1      -8.816   9.849  69.376  1.00  0.00    -0.173 NA 
HETATM   10  O   UNL     1      -7.034   8.449  69.480  1.00  0.00    -0.044 OA 
HETATM   11  C   UNL     1     -10.176   9.869  68.894  1.00  0.00    -0.196 C  
HETATM   12  O   UNL     1     -11.125   7.969  67.577  1.00  0.00    -0.007 OA 
HETATM   13  C   UNL     1     -10.159   8.496  68.121  1.00  0.00    -0.200 C  
BRANCH  11  14
HETATM   14  C   UNL     1     -11.210   9.769  70.035  1.00  0.00    -0.297 A  
HETATM   15  C   UNL     1     -12.111  10.805  70.348  1.00  0.00    -0.443 A  
HETATM   16  C   UNL     1     -11.245   8.608  70.835  1.00  0.00    -0.311 A  
HETATM   17  C   UNL     1     -12.141   8.486  71.899  1.00  0.00    -0.411 A  
HETATM   18  C   UNL     1     -13.006  10.682  71.416  1.00  0.00    -0.545 A  
HETATM   19  C   UNL     1     -13.019   9.526  72.191  1.00  0.00    -0.497 A  
ENDBRANCH  11  14
BRANCH  11  20
HETATM   20  C   UNL     1     -10.306  11.128  68.022  1.00  0.00    -0.208 A  
HETATM   21  C   UNL     1     -11.290  12.308  66.128  1.00  0.00    -0.402 A  
HETATM   22  C   UNL     1     -10.366  13.339  66.267  1.00  0.00    -0.290 A  
HETATM   23  C   UNL     1      -9.407  13.280  67.273  1.00  0.00    -0.226 A  
HETATM   24  C   UNL     1      -9.371  12.184  68.137  1.00  0.00    -0.204 A  
HETATM   25  C   UNL     1     -11.261  11.212  66.993  1.00  0.00    -0.291 A  
ENDBRANCH  11  20
ENDBRANCH   6   7
ENDBRANCH   3   6
TORSDOF 4
ENDMDL
MODEL      106
REMARK 921   NORMALIZED FREE ENERGY PREDICTED BY IDOCK:   -4.51 KCAL/MOL
REMARK 922        TOTAL FREE ENERGY PREDICTED BY IDOCK:   -6.42 KCAL/MOL
REMARK 923 INTER-LIGAND FREE ENERGY PREDICTED BY IDOCK:   -5.74 KCAL/MOL
REMARK 924 INTRA-LIGAND FREE ENERGY PREDICTED BY IDOCK:   -0.68 KCAL/MOL
REMARK 927      BINDING AFFINITY PREDICTED BY RF-SCORE:    0.00 PKD
ROOT
HETATM    1  O   UNL     1      -6.038  13.778  72.302  1.00  0.00    -0.258 OA 
HETATM    2  P   UNL     1      -5.945  14.486  70.877  1.00  0.00    -0.010 P  
HETATM    3  O   UNL     1      -7.434  14.865  70.406  1.00  0.00     0.207 OA 
HETATM    4  O   UNL     1      -5.125  13.692  69.915  1.00  0.00    -0.082 OA 
HETATM    5  O   UNL     1      -5.301  15.885  71.298  1.00  0.00    -0.086 OA 
ENDROOT
BRANCH   3   6
HETATM    6  C   UNL     1      -7.443  15.113  69.008  1.00  0.00    -0.161 C  
BRANCH   6   7
HETATM    7  N   UNL     1      -8.486  14.457  68.265  1.00  0.00    -0.157 N  
HETATM    8  C   UNL     1      -9.767  14.880  68.461  1.00  0.00    -0.215 C  
HETATM    9  N   UNL     1     -10.640  13.887  68.132  1.00  0.00    -0.246 NA 
HETATM   10  O   UNL     1     -10.128  15.944  68.939  1.00  0.00    -0.206 OA 
HETATM   11  C   UNL     1      -9.991  12.645  67.786  1.00  0.00    -0.218 C  
HETATM   12  O   UNL     1      -7.504  12.409  67.839  1.00  0.00    -0.099 OA 
HETATM   13  C   UNL     1      -8.498  13.124  67.939  1.00  0.00    -0.181 C  
BRANCH  11  14
HETATM   14  C   UNL     1     -10.251  11.533  68.825  1.00  0.00    -0.204 A  
HETATM   15  C   UNL     1     -11.464  11.411  69.531  1.00  0.00    -0.381 A  
HETATM   16  C   UNL     1      -9.227  10.611  69.120  1.00  0.00    -0.162 A  
HETATM   17  C   UNL     1      -9.405   9.608  70.076  1.00  0.00    -0.276 A  
HETATM   18  C   UNL     1     -11.640  10.408  70.490  1.00  0.00    -0.433 A  
HETATM   19  C   UNL     1     -10.612   9.510  70.764  1.00  0.00    -0.387 A  
ENDBRANCH  11  14
BRANCH  11  20
HETATM   20  C   UNL     1     -10.444  12.305  66.358  1.00  0.00    -0.263 A  
HETATM   21  C   UNL     1     -10.488  10.789  64.448  1.00  0.00    -0.344 A  
HETATM   22  C   UNL     1     -11.055  11.779  63.652  1.00  0.00    -0.518 A  
HETATM   23  C   UNL     1     -11.320  13.034  64.190  1.00  0.00    -0.442 A  
HETATM   24  C   UNL     1     -11.011  13.298  65.526  1.00  0.00    -0.297 A  
HETATM   25  C   UNL     1     -10.183  11.046  65.787  1.00  0.00    -0.316 A  
ENDBRANCH  11  20
ENDBRANCH   6   7
ENDBRANCH   3   6
TORSDOF 4
ENDMDL
MODEL      107
REMARK 921   NORMALIZED FREE ENERGY PREDICTED BY IDOCK:   -4.49 KCAL/MOL
REMARK 922        TOTAL FREE ENERGY PREDICTED BY IDOCK:   -6.39 KCAL/MOL
REMARK 923 INTER-LIGAND FREE ENERGY PREDICTED BY IDOCK:   -5.44 KCAL/MOL
REMARK 924 INTRA-LIGAND FREE ENERGY PREDICTED BY IDOCK:   -0.95 KCAL/MOL
REMARK 927      BINDING AFFINITY PREDICTED BY RF-SCORE:    0.00 PKD
ROOT
HETATM    1  O   UNL     1      -6.115   4.113  67.838  1.00  0.00    -0.029 OA 
HETATM    2  P   UNL     1      -6.634   4.690  69.230  1.00  0.00    -0.042 P  
HETATM    3  O   UNL     1      -8.109   5.290  69.007  1.00  0.00    -0.085 OA 
HETATM    4  O   UNL     1      -5.634   5.602  69.860  1.00  0.00    -0.007 OA 
HETATM    5  O   UNL     1      -6.882   3.330  70.026  1.00  0.00    -0.033 OA 
ENDROOT
BRANCH   3   6
HETATM    6  C   UNL     1      -8.436   6.159  70.080  1.00  0.00    -0.133 C  
BRANCH   6   7
HETATM    7  N   UNL     1      -8.705   7.526  69.717  1.00  0.00    -0.140 N  
HETATM    8  C   UNL     1      -8.093   8.506  70.441  1.00  0.00    -0.108 C  
HETATM    9  N   UNL     1      -8.806   9.664  70.350  1.00  0.00    -0.226 NA 
HETATM   10  O   UNL     1      -7.106   8.393  71.150  1.00  0.00    -0.053 OA 
HETATM   11  C   UNL     1     -10.048   9.518  69.629  1.00  0.00    -0.212 C  
HETATM   12  O   UNL     1     -10.766   7.314  68.695  1.00  0.00    -0.203 OA 
HETATM   13  C   UNL     1      -9.911   7.993  69.256  1.00  0.00    -0.178 C  
BRANCH  11  14
HETATM   14  C   UNL     1     -11.283   9.683  70.540  1.00  0.00    -0.359 A  
HETATM   15  C   UNL     1     -12.008  10.887  70.638  1.00  0.00    -0.467 A  
HETATM   16  C   UNL     1     -11.698   8.603  71.345  1.00  0.00    -0.355 A  
HETATM   17  C   UNL     1     -12.789   8.717  72.209  1.00  0.00    -0.465 A  
HETATM   18  C   UNL     1     -13.100  11.000  71.505  1.00  0.00    -0.500 A  
HETATM   19  C   UNL     1     -13.488   9.919  72.290  1.00  0.00    -0.397 A  
ENDBRANCH  11  14
BRANCH  11  20
HETATM   20  C   UNL     1      -9.983  10.504  68.453  1.00  0.00    -0.177 A  
HETATM   21  C   UNL     1      -9.104  12.538  67.433  1.00  0.00    -0.185 A  
HETATM   22  C   UNL     1     -10.045  12.454  66.411  1.00  0.00    -0.252 A  
HETATM   23  C   UNL     1     -10.961  11.406  66.397  1.00  0.00    -0.315 A  
HETATM   24  C   UNL     1     -10.936  10.446  67.410  1.00  0.00    -0.335 A  
HETATM   25  C   UNL     1      -9.072  11.576  68.446  1.00  0.00    -0.185 A  
ENDBRANCH  11  20
ENDBRANCH   6   7
ENDBRANCH   3   6
TORSDOF 4
ENDMDL
MODEL      108
REMARK 921   NORMALIZED FREE ENERGY PREDICTED BY IDOCK:   -4.48 KCAL/MOL
REMARK 922        TOTAL FREE ENERGY PREDICTED BY IDOCK:   -6.37 KCAL/MOL
REMARK 923 INTER-LIGAND FREE ENERGY PREDICTED BY IDOCK:   -6.51 KCAL/MOL
REMARK 924 INTRA-LIGAND FREE ENERGY PREDICTED BY IDOCK:    0.14 KCAL/MOL
REMARK 927      BINDING AFFINITY PREDICTED BY RF-SCORE:    0.00 PKD
ROOT
HETATM    1  O   UNL     1     -11.884  16.566  71.820  1.00  0.00    -0.423 OA 
HETATM    2  P   UNL     1     -12.709  15.205  71.741  1.00  0.00    -0.429 P  
HETATM    3  O   UNL     1     -11.689  14.020  71.365  1.00  0.00    -0.067 OA 
HETATM    4  O   UNL     1     -13.919  15.337  70.878  1.00  0.00    -0.355 OA 
HETATM    5  O   UNL     1     -13.022  14.973  73.289  1.00  0.00    -0.477 OA 
ENDROOT
BRANCH   3   6
HETATM    6  C   UNL     1     -12.417  12.898  70.891  1.00  0.00    -0.296 C  
BRANCH   6   7
HETATM    7  N   UNL     1     -12.300  12.628  69.482  1.00  0.00    -0.050 N  
HETATM    8  C   UNL     1     -12.435  11.335  69.070  1.00  0.00     0.243 C  
HETATM    9  N   UNL     1     -11.808  11.161  67.873  1.00  0.00    -0.630 NA 
HETATM   10  O   UNL     1     -12.952  10.415  69.684  1.00  0.00    -0.029 OA 
HETATM   11  C   UNL     1     -11.086  12.329  67.429  1.00  0.00    -0.282 C  
HETATM   12  O   UNL     1     -11.017  14.421  68.794  1.00  0.00    -0.233 OA 
HETATM   13  C   UNL     1     -11.456  13.287  68.624  1.00  0.00    -0.304 C  
BRANCH  11  14
HETATM   14  C   UNL     1      -9.558  12.118  67.434  1.00  0.00    -0.177 A  
HETATM   15  C   UNL     1      -8.921  11.102  66.694  1.00  0.00    -0.175 A  
HETATM   16  C   UNL     1      -8.748  12.946  68.238  1.00  0.00    -0.168 A  
HETATM   17  C   UNL     1      -7.364  12.770  68.300  1.00  0.00    -0.117 A  
HETATM   18  C   UNL     1      -7.535  10.926  66.759  1.00  0.00    -0.134 A  
HETATM   19  C   UNL     1      -6.758  11.757  67.562  1.00  0.00    -0.107 A  
ENDBRANCH  11  14
BRANCH  11  20
HETATM   20  C   UNL     1     -11.676  12.705  66.061  1.00  0.00    -0.470 A  
HETATM   21  C   UNL     1     -12.122  12.176  63.722  1.00  0.00    -0.620 A  
HETATM   22  C   UNL     1     -12.527  13.486  63.483  1.00  0.00    -0.234 A  
HETATM   23  C   UNL     1     -12.510  14.416  64.519  1.00  0.00    -0.362 A  
HETATM   24  C   UNL     1     -12.082  14.033  65.791  1.00  0.00    -0.445 A  
HETATM   25  C   UNL     1     -11.698  11.787  64.995  1.00  0.00    -0.174 A  
ENDBRANCH  11  20
ENDBRANCH   6   7
ENDBRANCH   3   6
TORSDOF 4
ENDMDL
MODEL      109
REMARK 921   NORMALIZED FREE ENERGY PREDICTED BY IDOCK:   -4.47 KCAL/MOL
REMARK 922        TOTAL FREE ENERGY PREDICTED BY IDOCK:   -6.36 KCAL/MOL
REMARK 923 INTER-LIGAND FREE ENERGY PREDICTED BY IDOCK:   -5.20 KCAL/MOL
REMARK 924 INTRA-LIGAND FREE ENERGY PREDICTED BY IDOCK:   -1.16 KCAL/MOL
REMARK 927      BINDING AFFINITY PREDICTED BY RF-SCORE:    0.00 PKD
ROOT
HETATM    1  O   UNL     1     -10.385  11.858  64.555  1.00  0.00    -0.264 OA 
HETATM    2  P   UNL     1     -10.428  12.318  66.080  1.00  0.00    -0.273 P  
HETATM    3  O   UNL     1      -9.276  11.528  66.876  1.00  0.00    -0.168 OA 
HETATM    4  O   UNL     1     -11.805  12.232  66.647  1.00  0.00    -0.536 OA 
HETATM    5  O   UNL     1      -9.860  13.803  65.944  1.00  0.00    -0.298 OA 
ENDROOT
BRANCH   3   6
HETATM    6  C   UNL     1      -9.533  11.588  68.270  1.00  0.00    -0.189 C  
BRANCH   6   7
HETATM    7  N   UNL     1      -9.576  10.321  68.952  1.00  0.00    -0.180 N  
HETATM    8  C   UNL     1      -8.414   9.851  69.489  1.00  0.00    -0.176 C  
HETATM    9  N   UNL     1      -8.476   8.496  69.617  1.00  0.00    -0.127 NA 
HETATM   10  O   UNL     1      -7.408  10.493  69.751  1.00  0.00    -0.145 OA 
HETATM   11  C   UNL     1      -9.675   7.922  69.056  1.00  0.00    -0.162 C  
HETATM   12  O   UNL     1     -11.408   9.339  67.946  1.00  0.00     0.152 OA 
HETATM   13  C   UNL     1     -10.364   9.259  68.586  1.00  0.00    -0.205 C  
BRANCH  11  14
HETATM   14  C   UNL     1      -9.390   7.060  67.807  1.00  0.00    -0.127 A  
HETATM   15  C   UNL     1      -8.291   7.285  66.955  1.00  0.00    -0.118 A  
HETATM   16  C   UNL     1     -10.278   6.019  67.469  1.00  0.00    -0.225 A  
HETATM   17  C   UNL     1     -10.078   5.235  66.330  1.00  0.00    -0.257 A  
HETATM   18  C   UNL     1      -8.094   6.501  65.814  1.00  0.00    -0.128 A  
HETATM   19  C   UNL     1      -8.987   5.479  65.501  1.00  0.00    -0.133 A  
ENDBRANCH  11  14
BRANCH  11  20
HETATM   20  C   UNL     1     -10.373   7.175  70.203  1.00  0.00    -0.218 A  
HETATM   21  C   UNL     1     -12.240   6.932  71.754  1.00  0.00    -0.396 A  
HETATM   22  C   UNL     1     -11.542   5.965  72.471  1.00  0.00    -0.327 A  
HETATM   23  C   UNL     1     -10.262   5.595  72.071  1.00  0.00    -0.252 A  
HETATM   24  C   UNL     1      -9.680   6.197  70.954  1.00  0.00    -0.203 A  
HETATM   25  C   UNL     1     -11.664   7.533  70.632  1.00  0.00    -0.240 A  
ENDBRANCH  11  20
ENDBRANCH   6   7
ENDBRANCH   3   6
TORSDOF 4
ENDMDL
MODEL      110
REMARK 921   NORMALIZED FREE ENERGY PREDICTED BY IDOCK:   -4.38 KCAL/MOL
REMARK 922        TOTAL FREE ENERGY PREDICTED BY IDOCK:   -6.26 KCAL/MOL
REMARK 923 INTER-LIGAND FREE ENERGY PREDICTED BY IDOCK:   -5.76 KCAL/MOL
REMARK 924 INTRA-LIGAND FREE ENERGY PREDICTED BY IDOCK:   -0.50 KCAL/MOL
REMARK 927      BINDING AFFINITY PREDICTED BY RF-SCORE:    0.00 PKD
ROOT
HETATM    1  O   UNL     1      -8.491  10.094  63.296  1.00  0.00    -0.159 OA 
HETATM    2  P   UNL     1      -7.973   9.997  64.800  1.00  0.00    -0.143 P  
HETATM    3  O   UNL     1      -8.885  10.960  65.709  1.00  0.00    -0.183 OA 
HETATM    4  O   UNL     1      -6.497  10.200  64.893  1.00  0.00    -0.119 OA 
HETATM    5  O   UNL     1      -8.463   8.526  65.175  1.00  0.00    -0.170 OA 
ENDROOT
BRANCH   3   6
HETATM    6  C   UNL     1      -8.225  11.220  66.938  1.00  0.00    -0.153 C  
BRANCH   6   7
HETATM    7  N   UNL     1      -8.877  10.710  68.116  1.00  0.00    -0.130 N  
HETATM    8  C   UNL     1      -8.096  10.416  69.195  1.00  0.00    -0.151 C  
HETATM    9  N   UNL     1      -8.724   9.501  69.986  1.00  0.00    -0.203 NA 
HETATM   10  O   UNL     1      -6.965  10.816  69.419  1.00  0.00    -0.089 OA 
HETATM   11  C   UNL     1      -9.960   9.011  69.425  1.00  0.00    -0.191 C  
HETATM   12  O   UNL     1     -10.788   9.792  67.201  1.00  0.00    -0.235 OA 
HETATM   13  C   UNL     1      -9.969   9.880  68.111  1.00  0.00    -0.151 C  
BRANCH  11  14
HETATM   14  C   UNL     1      -9.878   7.524  69.021  1.00  0.00    -0.170 A  
HETATM   15  C   UNL     1      -8.871   6.656  69.488  1.00  0.00    -0.139 A  
HETATM   16  C   UNL     1     -10.824   7.001  68.115  1.00  0.00    -0.214 A  
HETATM   17  C   UNL     1     -10.769   5.670  67.695  1.00  0.00    -0.260 A  
HETATM   18  C   UNL     1      -8.817   5.324  69.064  1.00  0.00    -0.111 A  
HETATM   19  C   UNL     1      -9.762   4.833  68.168  1.00  0.00    -0.201 A  
ENDBRANCH  11  14
BRANCH  11  20
HETATM   20  C   UNL     1     -11.057   9.335  70.452  1.00  0.00    -0.300 A  
HETATM   21  C   UNL     1     -12.631   8.625  72.174  1.00  0.00    -0.451 A  
HETATM   22  C   UNL     1     -13.244   9.874  72.155  1.00  0.00    -0.511 A  
HETATM   23  C   UNL     1     -12.779  10.861  71.291  1.00  0.00    -0.542 A  
HETATM   24  C   UNL     1     -11.703  10.593  70.443  1.00  0.00    -0.446 A  
HETATM   25  C   UNL     1     -11.550   8.355  71.331  1.00  0.00    -0.332 A  
ENDBRANCH  11  20
ENDBRANCH   6   7
ENDBRANCH   3   6
TORSDOF 4
ENDMDL
MODEL      111
REMARK 921   NORMALIZED FREE ENERGY PREDICTED BY IDOCK:   -4.27 KCAL/MOL
REMARK 922        TOTAL FREE ENERGY PREDICTED BY IDOCK:   -6.12 KCAL/MOL
REMARK 923 INTER-LIGAND FREE ENERGY PREDICTED BY IDOCK:   -5.31 KCAL/MOL
REMARK 924 INTRA-LIGAND FREE ENERGY PREDICTED BY IDOCK:   -0.82 KCAL/MOL
REMARK 927      BINDING AFFINITY PREDICTED BY RF-SCORE:    0.00 PKD
ROOT
HETATM    1  O   UNL     1     -11.952  12.287  68.888  1.00  0.00    -0.308 OA 
HETATM    2  P   UNL     1     -12.268  11.316  70.112  1.00  0.00    -0.290 P  
HETATM    3  O   UNL     1     -10.890  10.630  70.578  1.00  0.00    -0.158 OA 
HETATM    4  O   UNL     1     -13.401  10.393  69.811  1.00  0.00     0.122 OA 
HETATM    5  O   UNL     1     -12.574  12.389  71.253  1.00  0.00    -0.343 OA 
ENDROOT
BRANCH   3   6
HETATM    6  C   UNL     1     -11.172   9.483  71.365  1.00  0.00    -0.382 C  
BRANCH   6   7
HETATM    7  N   UNL     1     -11.031   8.216  70.695  1.00  0.00    -0.241 N  
HETATM    8  C   UNL     1     -11.946   7.245  70.977  1.00  0.00    -0.327 C  
HETATM    9  N   UNL     1     -11.417   6.018  70.711  1.00  0.00    -0.241 NA 
HETATM   10  O   UNL     1     -13.050   7.393  71.477  1.00  0.00    -0.359 OA 
HETATM   11  C   UNL     1     -10.026   6.064  70.324  1.00  0.00    -0.187 C  
HETATM   12  O   UNL     1      -8.773   8.223  70.208  1.00  0.00    -0.134 OA 
HETATM   13  C   UNL     1      -9.834   7.627  70.374  1.00  0.00    -0.183 C  
BRANCH  11  14
HETATM   14  C   UNL     1      -9.098   5.429  71.381  1.00  0.00    -0.163 A  
HETATM   15  C   UNL     1      -9.569   4.605  72.421  1.00  0.00    -0.192 A  
HETATM   16  C   UNL     1      -7.715   5.704  71.340  1.00  0.00    -0.109 A  
HETATM   17  C   UNL     1      -6.841   5.178  72.294  1.00  0.00    -0.073 A  
HETATM   18  C   UNL     1      -8.693   4.081  73.377  1.00  0.00    -0.091 A  
HETATM   19  C   UNL     1      -7.332   4.369  73.315  1.00  0.00    -0.076 A  
ENDBRANCH  11  14
BRANCH  11  20
HETATM   20  C   UNL     1      -9.945   5.422  68.931  1.00  0.00    -0.247 A  
HETATM   21  C   UNL     1     -10.569   5.376  66.574  1.00  0.00    -0.353 A  
HETATM   22  C   UNL     1     -10.006   4.111  66.431  1.00  0.00    -0.177 A  
HETATM   23  C   UNL     1      -9.412   3.489  67.525  1.00  0.00    -0.233 A  
HETATM   24  C   UNL     1      -9.388   4.132  68.763  1.00  0.00    -0.222 A  
HETATM   25  C   UNL     1     -10.542   6.026  67.810  1.00  0.00    -0.337 A  
ENDBRANCH  11  20
ENDBRANCH   6   7
ENDBRANCH   3   6
TORSDOF 4
ENDMDL
MODEL      112
REMARK 921   NORMALIZED FREE ENERGY PREDICTED BY IDOCK:   -4.20 KCAL/MOL
REMARK 922        TOTAL FREE ENERGY PREDICTED BY IDOCK:   -6.03 KCAL/MOL
REMARK 923 INTER-LIGAND FREE ENERGY PREDICTED BY IDOCK:   -5.64 KCAL/MOL
REMARK 924 INTRA-LIGAND FREE ENERGY PREDICTED BY IDOCK:   -0.40 KCAL/MOL
REMARK 927      BINDING AFFINITY PREDICTED BY RF-SCORE:    0.00 PKD
ROOT
HETATM    1  O   UNL     1      -8.662   7.584  69.630  1.00  0.00    -0.136 OA 
HETATM    2  P   UNL     1      -8.967   8.355  68.269  1.00  0.00    -0.138 P  
HETATM    3  O   UNL     1      -8.740   9.927  68.521  1.00  0.00    -0.117 OA 
HETATM    4  O   UNL     1     -10.284   7.960  67.689  1.00  0.00    -0.193 OA 
HETATM    5  O   UNL     1      -7.703   7.912  67.402  1.00  0.00    -0.105 OA 
ENDROOT
BRANCH   3   6
HETATM    6  C   UNL     1      -9.378  10.671  67.494  1.00  0.00    -0.146 C  
BRANCH   6   7
HETATM    7  N   UNL     1     -10.147  11.806  67.932  1.00  0.00    -0.182 N  
HETATM    8  C   UNL     1     -11.223  12.172  67.178  1.00  0.00    -0.314 C  
HETATM    9  N   UNL     1     -11.512  13.487  67.388  1.00  0.00    -0.318 NA 
HETATM   10  O   UNL     1     -11.818  11.488  66.360  1.00  0.00    -0.397 OA 
HETATM   11  C   UNL     1     -10.555  14.155  68.237  1.00  0.00    -0.251 C  
HETATM   12  O   UNL     1      -8.572  12.956  69.170  1.00  0.00     0.391 OA 
HETATM   13  C   UNL     1      -9.625  12.920  68.540  1.00  0.00    -0.111 C  
BRANCH  11  14
HETATM   14  C   UNL     1      -9.726  15.211  67.477  1.00  0.00    -0.205 A  
HETATM   15  C   UNL     1     -10.307  16.296  66.790  1.00  0.00    -0.296 A  
HETATM   16  C   UNL     1      -8.323  15.081  67.425  1.00  0.00    -0.210 A  
HETATM   17  C   UNL     1      -7.534  15.994  66.721  1.00  0.00    -0.218 A  
HETATM   18  C   UNL     1      -9.516  17.207  66.084  1.00  0.00    -0.228 A  
HETATM   19  C   UNL     1      -8.132  17.055  66.048  1.00  0.00    -0.178 A  
ENDBRANCH  11  14
BRANCH  11  20
HETATM   20  C   UNL     1     -11.350  14.705  69.432  1.00  0.00    -0.314 A  
HETATM   21  C   UNL     1     -11.550  16.218  71.335  1.00  0.00    -0.424 A  
HETATM   22  C   UNL     1     -12.686  15.545  71.774  1.00  0.00    -0.494 A  
HETATM   23  C   UNL     1     -13.165  14.452  71.057  1.00  0.00    -0.395 A  
HETATM   24  C   UNL     1     -12.501  14.032  69.904  1.00  0.00    -0.301 A  
HETATM   25  C   UNL     1     -10.885  15.803  70.178  1.00  0.00    -0.360 A  
ENDBRANCH  11  20
ENDBRANCH   6   7
ENDBRANCH   3   6
TORSDOF 4
ENDMDL
MODEL      113
REMARK 921   NORMALIZED FREE ENERGY PREDICTED BY IDOCK:   -4.15 KCAL/MOL
REMARK 922        TOTAL FREE ENERGY PREDICTED BY IDOCK:   -5.97 KCAL/MOL
REMARK 923 INTER-LIGAND FREE ENERGY PREDICTED BY IDOCK:   -5.13 KCAL/MOL
REMARK 924 INTRA-LIGAND FREE ENERGY PREDICTED BY IDOCK:   -0.84 KCAL/MOL
REMARK 927      BINDING AFFINITY PREDICTED BY RF-SCORE:    0.00 PKD
ROOT
HETATM    1  O   UNL     1      -6.279   4.882  70.218  1.00  0.00    -0.020 OA 
HETATM    2  P   UNL     1      -7.235   5.267  71.434  1.00  0.00    -0.078 P  
HETATM    3  O   UNL     1      -8.730   5.429  70.865  1.00  0.00    -0.129 OA 
HETATM    4  O   UNL     1      -6.697   6.415  72.222  1.00  0.00    -0.065 OA 
HETATM    5  O   UNL     1      -7.265   3.880  72.221  1.00  0.00    -0.049 OA 
ENDROOT
BRANCH   3   6
HETATM    6  C   UNL     1      -9.518   6.153  71.798  1.00  0.00    -0.150 C  
BRANCH   6   7
HETATM    7  N   UNL     1     -10.228   7.287  71.268  1.00  0.00    -0.190 N  
HETATM    8  C   UNL     1     -11.095   7.068  70.239  1.00  0.00    -0.285 C  
HETATM    9  N   UNL     1     -11.274   8.217  69.528  1.00  0.00     0.059 NA 
HETATM   10  O   UNL     1     -11.594   6.004  69.908  1.00  0.00    -0.326 OA 
HETATM   11  C   UNL     1     -10.429   9.301  69.970  1.00  0.00    -0.226 C  
HETATM   12  O   UNL     1      -8.801   9.010  71.843  1.00  0.00    -0.360 OA 
HETATM   13  C   UNL     1      -9.713   8.555  71.159  1.00  0.00    -0.201 C  
BRANCH  11  14
HETATM   14  C   UNL     1      -9.360   9.681  68.924  1.00  0.00    -0.151 A  
HETATM   15  C   UNL     1      -8.209  10.431  69.240  1.00  0.00    -0.163 A  
HETATM   16  C   UNL     1      -9.543   9.301  67.579  1.00  0.00    -0.184 A  
HETATM   17  C   UNL     1      -8.619   9.651  66.592  1.00  0.00    -0.137 A  
HETATM   18  C   UNL     1      -7.286  10.783  68.250  1.00  0.00    -0.084 A  
HETATM   19  C   UNL     1      -7.491  10.396  66.929  1.00  0.00    -0.107 A  
ENDBRANCH  11  14
BRANCH  11  20
HETATM   20  C   UNL     1     -11.371  10.447  70.369  1.00  0.00    -0.417 A  
HETATM   21  C   UNL     1     -12.066  12.780  70.205  1.00  0.00    -0.370 A  
HETATM   22  C   UNL     1     -12.932  12.616  71.282  1.00  0.00    -0.306 A  
HETATM   23  C   UNL     1     -13.028  11.379  71.913  1.00  0.00    -0.466 A  
HETATM   24  C   UNL     1     -12.251  10.309  71.467  1.00  0.00    -0.449 A  
HETATM   25  C   UNL     1     -11.291  11.709  69.752  1.00  0.00    -0.276 A  
ENDBRANCH  11  20
ENDBRANCH   6   7
ENDBRANCH   3   6
TORSDOF 4
ENDMDL
MODEL      114
REMARK 921   NORMALIZED FREE ENERGY PREDICTED BY IDOCK:   -4.12 KCAL/MOL
REMARK 922        TOTAL FREE ENERGY PREDICTED BY IDOCK:   -5.94 KCAL/MOL
REMARK 923 INTER-LIGAND FREE ENERGY PREDICTED BY IDOCK:   -4.93 KCAL/MOL
REMARK 924 INTRA-LIGAND FREE ENERGY PREDICTED BY IDOCK:   -1.01 KCAL/MOL
REMARK 927      BINDING AFFINITY PREDICTED BY RF-SCORE:    0.00 PKD
ROOT
HETATM    1  O   UNL     1      -5.603  13.001  71.147  1.00  0.00    -0.242 OA 
HETATM    2  P   UNL     1      -6.243  12.492  69.779  1.00  0.00    -0.021 P  
HETATM    3  O   UNL     1      -7.303  11.331  70.122  1.00  0.00     0.170 OA 
HETATM    4  O   UNL     1      -5.199  12.159  68.766  1.00  0.00    -0.051 OA 
HETATM    5  O   UNL     1      -7.151  13.750  69.405  1.00  0.00    -0.062 OA 
ENDROOT
BRANCH   3   6
HETATM    6  C   UNL     1      -7.585  10.583  68.950  1.00  0.00    -0.108 C  
BRANCH   6   7
HETATM    7  N   UNL     1      -8.668  11.078  68.140  1.00  0.00    -0.135 N  
HETATM    8  C   UNL     1      -9.848  10.396  68.173  1.00  0.00    -0.151 C  
HETATM    9  N   UNL     1     -10.555  10.636  67.033  1.00  0.00    -0.254 NA 
HETATM   10  O   UNL     1     -10.222   9.608  69.028  1.00  0.00    -0.183 OA 
HETATM   11  C   UNL     1      -9.835  11.432  66.068  1.00  0.00    -0.223 C  
HETATM   12  O   UNL     1      -7.508  12.230  66.507  1.00  0.00     0.147 OA 
HETATM   13  C   UNL     1      -8.522  11.665  66.908  1.00  0.00    -0.168 C  
BRANCH  11  14
HETATM   14  C   UNL     1      -9.463  10.632  64.802  1.00  0.00    -0.306 A  
HETATM   15  C   UNL     1      -8.739   9.424  64.841  1.00  0.00    -0.220 A  
HETATM   16  C   UNL     1      -9.825  11.137  63.536  1.00  0.00    -0.392 A  
HETATM   17  C   UNL     1      -9.482  10.465  62.360  1.00  0.00    -0.256 A  
HETATM   18  C   UNL     1      -8.394   8.754  63.663  1.00  0.00    -0.146 A  
HETATM   19  C   UNL     1      -8.763   9.274  62.425  1.00  0.00    -0.241 A  
ENDBRANCH  11  14
BRANCH  11  20
HETATM   20  C   UNL     1     -10.695  12.678  65.809  1.00  0.00    -0.295 A  
HETATM   21  C   UNL     1     -12.869  13.717  65.428  1.00  0.00    -0.440 A  
HETATM   22  C   UNL     1     -12.255  14.917  65.083  1.00  0.00    -0.114 A  
HETATM   23  C   UNL     1     -10.867  15.014  65.093  1.00  0.00    -0.422 A  
HETATM   24  C   UNL     1     -10.095  13.906  65.445  1.00  0.00    -0.328 A  
HETATM   25  C   UNL     1     -12.100  12.607  65.786  1.00  0.00    -0.484 A  
ENDBRANCH  11  20
ENDBRANCH   6   7
ENDBRANCH   3   6
TORSDOF 4
ENDMDL
MODEL      115
REMARK 921   NORMALIZED FREE ENERGY PREDICTED BY IDOCK:   -4.07 KCAL/MOL
REMARK 922        TOTAL FREE ENERGY PREDICTED BY IDOCK:   -5.87 KCAL/MOL
REMARK 923 INTER-LIGAND FREE ENERGY PREDICTED BY IDOCK:   -5.34 KCAL/MOL
REMARK 924 INTRA-LIGAND FREE ENERGY PREDICTED BY IDOCK:   -0.53 KCAL/MOL
REMARK 927      BINDING AFFINITY PREDICTED BY RF-SCORE:    0.00 PKD
ROOT
HETATM    1  O   UNL     1     -10.516  12.780  63.906  1.00  0.00    -0.418 OA 
HETATM    2  P   UNL     1     -10.645  12.717  65.493  1.00  0.00    -0.292 P  
HETATM    3  O   UNL     1      -9.391  11.889  66.066  1.00  0.00    -0.229 OA 
HETATM    4  O   UNL     1     -11.997  12.256  65.923  1.00  0.00    -0.555 OA 
HETATM    5  O   UNL     1     -10.313  14.234  65.864  1.00  0.00    -0.290 OA 
ENDROOT
BRANCH   3   6
HETATM    6  C   UNL     1      -9.668  11.463  67.392  1.00  0.00    -0.181 C  
BRANCH   6   7
HETATM    7  N   UNL     1      -9.290  10.110  67.704  1.00  0.00    -0.147 N  
HETATM    8  C   UNL     1      -9.919   9.105  67.031  1.00  0.00    -0.230 C  
HETATM    9  N   UNL     1      -9.862   7.953  67.757  1.00  0.00    -0.155 NA 
HETATM   10  O   UNL     1     -10.532   9.191  65.978  1.00  0.00    -0.067 OA 
HETATM   11  C   UNL     1      -9.271   8.127  69.062  1.00  0.00    -0.148 C  
HETATM   12  O   UNL     1      -8.481  10.362  69.853  1.00  0.00    -0.087 OA 
HETATM   13  C   UNL     1      -8.934   9.662  68.952  1.00  0.00    -0.144 C  
BRANCH  11  14
HETATM   14  C   UNL     1     -10.292   7.937  70.204  1.00  0.00    -0.215 A  
HETATM   15  C   UNL     1     -10.333   8.765  71.343  1.00  0.00    -0.348 A  
HETATM   16  C   UNL     1     -11.210   6.869  70.138  1.00  0.00    -0.361 A  
HETATM   17  C   UNL     1     -12.130   6.638  71.163  1.00  0.00    -0.391 A  
HETATM   18  C   UNL     1     -11.253   8.531  72.369  1.00  0.00    -0.399 A  
HETATM   19  C   UNL     1     -12.149   7.468  72.281  1.00  0.00    -0.269 A  
ENDBRANCH  11  14
BRANCH  11  20
HETATM   20  C   UNL     1      -8.063   7.178  69.119  1.00  0.00    -0.121 A  
HETATM   21  C   UNL     1      -6.605   5.532  68.065  1.00  0.00    -0.049 A  
HETATM   22  C   UNL     1      -6.007   5.250  69.290  1.00  0.00    -0.024 A  
HETATM   23  C   UNL     1      -6.427   5.920  70.436  1.00  0.00    -0.036 A  
HETATM   24  C   UNL     1      -7.448   6.867  70.354  1.00  0.00    -0.086 A  
HETATM   25  C   UNL     1      -7.623   6.484  67.978  1.00  0.00    -0.103 A  
ENDBRANCH  11  20
ENDBRANCH   6   7
ENDBRANCH   3   6
TORSDOF 4
ENDMDL
MODEL      116
REMARK 921   NORMALIZED FREE ENERGY PREDICTED BY IDOCK:   -4.03 KCAL/MOL
REMARK 922        TOTAL FREE ENERGY PREDICTED BY IDOCK:   -5.83 KCAL/MOL
REMARK 923 INTER-LIGAND FREE ENERGY PREDICTED BY IDOCK:   -5.16 KCAL/MOL
REMARK 924 INTRA-LIGAND FREE ENERGY PREDICTED BY IDOCK:   -0.67 KCAL/MOL
REMARK 927      BINDING AFFINITY PREDICTED BY RF-SCORE:    0.00 PKD
ROOT
HETATM    1  O   UNL     1     -12.360  12.707  65.760  1.00  0.00    -0.594 OA 
HETATM    2  P   UNL     1     -10.779  12.518  65.838  1.00  0.00    -0.283 P  
HETATM    3  O   UNL     1     -10.426  11.030  65.341  1.00  0.00    -0.266 OA 
HETATM    4  O   UNL     1     -10.237  12.919  67.170  1.00  0.00    -0.235 OA 
HETATM    5  O   UNL     1     -10.322  13.453  64.629  1.00  0.00    -0.395 OA 
ENDROOT
BRANCH   3   6
HETATM    6  C   UNL     1      -9.118  10.683  65.770  1.00  0.00    -0.186 C  
BRANCH   6   7
HETATM    7  N   UNL     1      -9.020  10.152  67.104  1.00  0.00    -0.135 N  
HETATM    8  C   UNL     1      -7.818  10.252  67.739  1.00  0.00    -0.101 C  
HETATM    9  N   UNL     1      -7.723   9.297  68.707  1.00  0.00    -0.083 NA 
HETATM   10  O   UNL     1      -6.897  11.005  67.464  1.00  0.00    -0.078 OA 
HETATM   11  C   UNL     1      -8.841   8.383  68.722  1.00  0.00    -0.140 C  
HETATM   12  O   UNL     1     -10.715   8.582  67.081  1.00  0.00    -0.280 OA 
HETATM   13  C   UNL     1      -9.675   9.033  67.554  1.00  0.00    -0.161 C  
BRANCH  11  14
HETATM   14  C   UNL     1      -8.443   6.955  68.295  1.00  0.00    -0.125 A  
HETATM   15  C   UNL     1      -7.114   6.579  68.016  1.00  0.00    -0.086 A  
HETATM   16  C   UNL     1      -9.445   5.976  68.138  1.00  0.00    -0.115 A  
HETATM   17  C   UNL     1      -9.136   4.679  67.722  1.00  0.00    -0.136 A  
HETATM   18  C   UNL     1      -6.806   5.281  67.597  1.00  0.00    -0.060 A  
HETATM   19  C   UNL     1      -7.815   4.333  67.448  1.00  0.00    -0.092 A  
ENDBRANCH  11  14
BRANCH  11  20
HETATM   20  C   UNL     1      -9.460   8.483  70.125  1.00  0.00    -0.169 A  
HETATM   21  C   UNL     1      -9.297   8.212  72.543  1.00  0.00    -0.329 A  
HETATM   22  C   UNL     1     -10.666   8.421  72.678  1.00  0.00    -0.312 A  
HETATM   23  C   UNL     1     -11.444   8.660  71.549  1.00  0.00    -0.363 A  
HETATM   24  C   UNL     1     -10.851   8.683  70.286  1.00  0.00    -0.250 A  
HETATM   25  C   UNL     1      -8.698   8.240  71.281  1.00  0.00    -0.186 A  
ENDBRANCH  11  20
ENDBRANCH   6   7
ENDBRANCH   3   6
TORSDOF 4
ENDMDL
MODEL      117
REMARK 921   NORMALIZED FREE ENERGY PREDICTED BY IDOCK:   -3.90 KCAL/MOL
REMARK 922        TOTAL FREE ENERGY PREDICTED BY IDOCK:   -5.67 KCAL/MOL
REMARK 923 INTER-LIGAND FREE ENERGY PREDICTED BY IDOCK:   -4.97 KCAL/MOL
REMARK 924 INTRA-LIGAND FREE ENERGY PREDICTED BY IDOCK:   -0.70 KCAL/MOL
REMARK 927      BINDING AFFINITY PREDICTED BY RF-SCORE:    0.00 PKD
ROOT
HETATM    1  O   UNL     1     -10.387  12.358  64.278  1.00  0.00    -0.325 OA 
HETATM    2  P   UNL     1     -10.820  12.037  65.777  1.00  0.00    -0.305 P  
HETATM    3  O   UNL     1     -10.312  10.555  66.140  1.00  0.00    -0.241 OA 
HETATM    4  O   UNL     1     -12.267  12.318  66.009  1.00  0.00    -0.646 OA 
HETATM    5  O   UNL     1      -9.824  12.996  66.572  1.00  0.00    -0.251 OA 
ENDROOT
BRANCH   3   6
HETATM    6  C   UNL     1     -11.010  10.078  67.280  1.00  0.00    -0.156 C  
BRANCH   6   7
HETATM    7  N   UNL     1     -10.361   9.023  68.013  1.00  0.00    -0.216 N  
HETATM    8  C   UNL     1      -9.172   9.308  68.616  1.00  0.00    -0.135 C  
HETATM    9  N   UNL     1      -8.457   8.163  68.799  1.00  0.00    -0.126 NA 
HETATM   10  O   UNL     1      -8.730  10.412  68.891  1.00  0.00    -0.139 OA 
HETATM   11  C   UNL     1      -9.080   6.999  68.214  1.00  0.00    -0.126 C  
HETATM   12  O   UNL     1     -11.244   7.157  66.975  1.00  0.00    -0.277 OA 
HETATM   13  C   UNL     1     -10.380   7.696  67.660  1.00  0.00    -0.237 C  
BRANCH  11  14
HETATM   14  C   UNL     1      -8.282   6.442  67.015  1.00  0.00    -0.113 A  
HETATM   15  C   UNL     1      -8.897   5.857  65.890  1.00  0.00    -0.154 A  
HETATM   16  C   UNL     1      -6.873   6.479  67.046  1.00  0.00    -0.066 A  
HETATM   17  C   UNL     1      -6.110   5.956  65.999  1.00  0.00    -0.032 A  
HETATM   18  C   UNL     1      -8.130   5.332  64.845  1.00  0.00    -0.122 A  
HETATM   19  C   UNL     1      -6.740   5.380  64.900  1.00  0.00    -0.047 A  
ENDBRANCH  11  14
BRANCH  11  20
HETATM   20  C   UNL     1      -9.291   6.000  69.362  1.00  0.00    -0.146 A  
HETATM   21  C   UNL     1      -9.628   3.719  70.158  1.00  0.00    -0.258 A  
HETATM   22  C   UNL     1      -9.932   4.189  71.432  1.00  0.00    -0.223 A  
HETATM   23  C   UNL     1      -9.923   5.557  71.686  1.00  0.00    -0.233 A  
HETATM   24  C   UNL     1      -9.614   6.454  70.662  1.00  0.00    -0.186 A  
HETATM   25  C   UNL     1      -9.313   4.613  69.131  1.00  0.00    -0.206 A  
ENDBRANCH  11  20
ENDBRANCH   6   7
ENDBRANCH   3   6
TORSDOF 4
ENDMDL
MODEL      118
REMARK 921   NORMALIZED FREE ENERGY PREDICTED BY IDOCK:   -3.89 KCAL/MOL
REMARK 922        TOTAL FREE ENERGY PREDICTED BY IDOCK:   -5.66 KCAL/MOL
REMARK 923 INTER-LIGAND FREE ENERGY PREDICTED BY IDOCK:   -4.44 KCAL/MOL
REMARK 924 INTRA-LIGAND FREE ENERGY PREDICTED BY IDOCK:   -1.22 KCAL/MOL
REMARK 927      BINDING AFFINITY PREDICTED BY RF-SCORE:    0.00 PKD
ROOT
HETATM    1  O   UNL     1     -10.345   7.633  73.702  1.00  0.00    -0.324 OA 
HETATM    2  P   UNL     1      -9.599   6.591  72.754  1.00  0.00    -0.149 P  
HETATM    3  O   UNL     1     -10.624   6.137  71.602  1.00  0.00    -0.216 OA 
HETATM    4  O   UNL     1      -8.949   5.497  73.533  1.00  0.00    -0.126 OA 
HETATM    5  O   UNL     1      -8.580   7.567  72.007  1.00  0.00    -0.105 OA 
ENDROOT
BRANCH   3   6
HETATM    6  C   UNL     1     -10.161   4.939  70.998  1.00  0.00    -0.218 C  
BRANCH   6   7
HETATM    7  N   UNL     1      -9.712   5.060  69.636  1.00  0.00    -0.176 N  
HETATM    8  C   UNL     1      -8.367   5.081  69.411  1.00  0.00    -0.085 C  
HETATM    9  N   UNL     1      -8.103   5.701  68.227  1.00  0.00    -0.103 NA 
HETATM   10  O   UNL     1      -7.486   4.695  70.165  1.00  0.00    -0.052 OA 
HETATM   11  C   UNL     1      -9.276   6.261  67.600  1.00  0.00    -0.111 C  
HETATM   12  O   UNL     1     -11.532   6.095  68.660  1.00  0.00    -0.223 OA 
HETATM   13  C   UNL     1     -10.341   5.798  68.664  1.00  0.00    -0.221 C  
BRANCH  11  14
HETATM   14  C   UNL     1      -9.254   7.804  67.577  1.00  0.00    -0.147 A  
HETATM   15  C   UNL     1      -8.455   8.573  68.446  1.00  0.00    -0.138 A  
HETATM   16  C   UNL     1     -10.092   8.494  66.677  1.00  0.00    -0.364 A  
HETATM   17  C   UNL     1     -10.131   9.889  66.644  1.00  0.00    -0.297 A  
HETATM   18  C   UNL     1      -8.497   9.971  68.412  1.00  0.00    -0.112 A  
HETATM   19  C   UNL     1      -9.334  10.627  67.515  1.00  0.00    -0.158 A  
ENDBRANCH  11  14
BRANCH  11  20
HETATM   20  C   UNL     1      -9.381   5.602  66.216  1.00  0.00    -0.169 A  
HETATM   21  C   UNL     1     -10.464   4.046  64.681  1.00  0.00    -0.208 A  
HETATM   22  C   UNL     1      -9.428   4.201  63.764  1.00  0.00    -0.147 A  
HETATM   23  C   UNL     1      -8.364   5.048  64.058  1.00  0.00    -0.132 A  
HETATM   24  C   UNL     1      -8.335   5.735  65.272  1.00  0.00    -0.146 A  
HETATM   25  C   UNL     1     -10.442   4.736  65.895  1.00  0.00    -0.313 A  
ENDBRANCH  11  20
ENDBRANCH   6   7
ENDBRANCH   3   6
TORSDOF 4
ENDMDL
MODEL      119
REMARK 921   NORMALIZED FREE ENERGY PREDICTED BY IDOCK:   -3.81 KCAL/MOL
REMARK 922        TOTAL FREE ENERGY PREDICTED BY IDOCK:   -5.55 KCAL/MOL
REMARK 923 INTER-LIGAND FREE ENERGY PREDICTED BY IDOCK:   -5.01 KCAL/MOL
REMARK 924 INTRA-LIGAND FREE ENERGY PREDICTED BY IDOCK:   -0.54 KCAL/MOL
REMARK 927      BINDING AFFINITY PREDICTED BY RF-SCORE:    0.00 PKD
ROOT
HETATM    1  O   UNL     1      -5.718  14.118  70.714  1.00  0.00    -0.155 OA 
HETATM    2  P   UNL     1      -6.181  13.118  69.563  1.00  0.00    -0.078 P  
HETATM    3  O   UNL     1      -6.714  11.768  70.254  1.00  0.00    -0.043 OA 
HETATM    4  O   UNL     1      -5.134  12.957  68.512  1.00  0.00    -0.058 OA 
HETATM    5  O   UNL     1      -7.509  13.852  69.067  1.00  0.00    -0.108 OA 
ENDROOT
BRANCH   3   6
HETATM    6  C   UNL     1      -6.748  10.723  69.295  1.00  0.00    -0.081 C  
BRANCH   6   7
HETATM    7  N   UNL     1      -7.883  10.726  68.409  1.00  0.00    -0.113 N  
HETATM    8  C   UNL     1      -9.055  10.211  68.878  1.00  0.00    -0.165 C  
HETATM    9  N   UNL     1      -9.836   9.809  67.837  1.00  0.00    -0.145 NA 
HETATM   10  O   UNL     1      -9.369  10.034  70.045  1.00  0.00    -0.217 OA 
HETATM   11  C   UNL     1      -9.183   9.921  66.554  1.00  0.00    -0.155 C  
HETATM   12  O   UNL     1      -6.836  10.755  66.350  1.00  0.00    -0.119 OA 
HETATM   13  C   UNL     1      -7.820  10.535  67.051  1.00  0.00    -0.114 C  
BRANCH  11  14
HETATM   14  C   UNL     1      -8.891   8.547  65.917  1.00  0.00    -0.219 A  
HETATM   15  C   UNL     1      -9.330   7.331  66.478  1.00  0.00    -0.216 A  
HETATM   16  C   UNL     1      -8.120   8.482  64.738  1.00  0.00    -0.151 A  
HETATM   17  C   UNL     1      -7.803   7.259  64.143  1.00  0.00    -0.118 A  
HETATM   18  C   UNL     1      -9.008   6.107  65.883  1.00  0.00    -0.133 A  
HETATM   19  C   UNL     1      -8.245   6.071  64.719  1.00  0.00    -0.123 A  
ENDBRANCH  11  14
BRANCH  11  20
HETATM   20  C   UNL     1     -10.064  10.848  65.702  1.00  0.00    -0.318 A  
HETATM   21  C   UNL     1     -11.905  12.435  65.502  1.00  0.00    -0.469 A  
HETATM   22  C   UNL     1     -11.848  12.355  64.114  1.00  0.00    -0.492 A  
HETATM   23  C   UNL     1     -10.910  11.526  63.506  1.00  0.00    -0.473 A  
HETATM   24  C   UNL     1     -10.033  10.775  64.290  1.00  0.00    -0.403 A  
HETATM   25  C   UNL     1     -11.025  11.690  66.290  1.00  0.00    -0.338 A  
ENDBRANCH  11  20
ENDBRANCH   6   7
ENDBRANCH   3   6
TORSDOF 4
ENDMDL
MODEL      120
REMARK 921   NORMALIZED FREE ENERGY PREDICTED BY IDOCK:   -3.79 KCAL/MOL
REMARK 922        TOTAL FREE ENERGY PREDICTED BY IDOCK:   -5.52 KCAL/MOL
REMARK 923 INTER-LIGAND FREE ENERGY PREDICTED BY IDOCK:   -5.38 KCAL/MOL
REMARK 924 INTRA-LIGAND FREE ENERGY PREDICTED BY IDOCK:   -0.14 KCAL/MOL
REMARK 927      BINDING AFFINITY PREDICTED BY RF-SCORE:    0.00 PKD
ROOT
HETATM    1  O   UNL     1      -5.859   4.808  70.118  1.00  0.00    -0.015 OA 
HETATM    2  P   UNL     1      -6.887   5.763  70.873  1.00  0.00    -0.061 P  
HETATM    3  O   UNL     1      -7.945   6.315  69.796  1.00  0.00    -0.113 OA 
HETATM    4  O   UNL     1      -6.187   6.789  71.701  1.00  0.00    -0.037 OA 
HETATM    5  O   UNL     1      -7.711   4.685  71.713  1.00  0.00    -0.090 OA 
ENDROOT
BRANCH   3   6
HETATM    6  C   UNL     1      -8.606   7.457  70.319  1.00  0.00    -0.145 C  
BRANCH   6   7
HETATM    7  N   UNL     1      -8.842   8.525  69.384  1.00  0.00    -0.140 N  
HETATM    8  C   UNL     1      -7.996   9.594  69.416  1.00  0.00    -0.111 C  
HETATM    9  N   UNL     1      -8.613  10.690  68.891  1.00  0.00    -0.153 NA 
HETATM   10  O   UNL     1      -6.880   9.638  69.909  1.00  0.00    -0.056 OA 
HETATM   11  C   UNL     1     -10.000  10.464  68.560  1.00  0.00    -0.167 C  
HETATM   12  O   UNL     1     -11.098   8.257  68.966  1.00  0.00     0.042 OA 
HETATM   13  C   UNL     1     -10.081   8.944  68.967  1.00  0.00    -0.197 C  
BRANCH  11  14
HETATM   14  C   UNL     1     -10.962  11.259  69.467  1.00  0.00    -0.249 A  
HETATM   15  C   UNL     1     -11.778  10.650  70.441  1.00  0.00    -0.446 A  
HETATM   16  C   UNL     1     -11.069  12.656  69.304  1.00  0.00    -0.193 A  
HETATM   17  C   UNL     1     -11.950  13.412  70.080  1.00  0.00    -0.407 A  
HETATM   18  C   UNL     1     -12.662  11.409  71.215  1.00  0.00    -0.498 A  
HETATM   19  C   UNL     1     -12.749  12.787  71.033  1.00  0.00    -0.331 A  
ENDBRANCH  11  14
BRANCH  11  20
HETATM   20  C   UNL     1     -10.139  10.765  67.059  1.00  0.00    -0.249 A  
HETATM   21  C   UNL     1     -11.220  11.949  65.222  1.00  0.00    -0.351 A  
HETATM   22  C   UNL     1     -10.576  11.137  64.294  1.00  0.00    -0.425 A  
HETATM   23  C   UNL     1      -9.714  10.135  64.731  1.00  0.00    -0.389 A  
HETATM   24  C   UNL     1      -9.503   9.945  66.098  1.00  0.00    -0.254 A  
HETATM   25  C   UNL     1     -11.008  11.766  66.591  1.00  0.00    -0.342 A  
ENDBRANCH  11  20
ENDBRANCH   6   7
ENDBRANCH   3   6
TORSDOF 4
ENDMDL
MODEL      121
REMARK 921   NORMALIZED FREE ENERGY PREDICTED BY IDOCK:   -3.76 KCAL/MOL
REMARK 922        TOTAL FREE ENERGY PREDICTED BY IDOCK:   -5.49 KCAL/MOL
REMARK 923 INTER-LIGAND FREE ENERGY PREDICTED BY IDOCK:   -4.70 KCAL/MOL
REMARK 924 INTRA-LIGAND FREE ENERGY PREDICTED BY IDOCK:   -0.79 KCAL/MOL
REMARK 927      BINDING AFFINITY PREDICTED BY RF-SCORE:    0.00 PKD
ROOT
HETATM    1  O   UNL     1     -12.699  12.991  64.057  1.00  0.00    -0.656 OA 
HETATM    2  P   UNL     1     -11.862  13.553  65.291  1.00  0.00    -0.403 P  
HETATM    3  O   UNL     1     -10.498  12.709  65.399  1.00  0.00    -0.273 OA 
HETATM    4  O   UNL     1     -12.690  13.638  66.530  1.00  0.00    -0.255 OA 
HETATM    5  O   UNL     1     -11.403  14.964  64.704  1.00  0.00    -0.386 OA 
ENDROOT
BRANCH   3   6
HETATM    6  C   UNL     1      -9.929  12.886  66.687  1.00  0.00    -0.251 C  
BRANCH   6   7
HETATM    7  N   UNL     1      -9.512  11.681  67.356  1.00  0.00    -0.166 N  
HETATM    8  C   UNL     1      -8.192  11.559  67.676  1.00  0.00    -0.131 C  
HETATM    9  N   UNL     1      -7.865  10.242  67.803  1.00  0.00    -0.101 NA 
HETATM   10  O   UNL     1      -7.367  12.454  67.762  1.00  0.00    -0.100 OA 
HETATM   11  C   UNL     1      -8.944   9.347  67.456  1.00  0.00    -0.121 C  
HETATM   12  O   UNL     1     -11.158  10.208  66.680  1.00  0.00    -0.012 OA 
HETATM   13  C   UNL     1     -10.036  10.434  67.126  1.00  0.00    -0.208 C  
BRANCH  11  14
HETATM   14  C   UNL     1      -8.656   8.544  66.170  1.00  0.00    -0.154 A  
HETATM   15  C   UNL     1      -8.339   9.153  64.940  1.00  0.00    -0.169 A  
HETATM   16  C   UNL     1      -8.744   7.138  66.199  1.00  0.00    -0.164 A  
HETATM   17  C   UNL     1      -8.525   6.371  65.053  1.00  0.00    -0.032 A  
HETATM   18  C   UNL     1      -8.122   8.385  63.792  1.00  0.00    -0.142 A  
HETATM   19  C   UNL     1      -8.217   6.997  63.847  1.00  0.00     0.087 A  
ENDBRANCH  11  14
BRANCH  11  20
HETATM   20  C   UNL     1      -9.208   8.488  68.702  1.00  0.00    -0.142 A  
HETATM   21  C   UNL     1      -8.408   7.024  70.481  1.00  0.00    -0.132 A  
HETATM   22  C   UNL     1      -9.716   6.707  70.834  1.00  0.00    -0.190 A  
HETATM   23  C   UNL     1     -10.778   7.267  70.131  1.00  0.00    -0.260 A  
HETATM   24  C   UNL     1     -10.529   8.141  69.072  1.00  0.00    -0.211 A  
HETATM   25  C   UNL     1      -8.153   7.903  69.426  1.00  0.00    -0.125 A  
ENDBRANCH  11  20
ENDBRANCH   6   7
ENDBRANCH   3   6
TORSDOF 4
ENDMDL
MODEL      122
REMARK 921   NORMALIZED FREE ENERGY PREDICTED BY IDOCK:   -3.66 KCAL/MOL
REMARK 922        TOTAL FREE ENERGY PREDICTED BY IDOCK:   -5.36 KCAL/MOL
REMARK 923 INTER-LIGAND FREE ENERGY PREDICTED BY IDOCK:   -5.16 KCAL/MOL
REMARK 924 INTRA-LIGAND FREE ENERGY PREDICTED BY IDOCK:   -0.20 KCAL/MOL
REMARK 927      BINDING AFFINITY PREDICTED BY RF-SCORE:    0.00 PKD
ROOT
HETATM    1  O   UNL     1     -10.011  12.451  63.067  1.00  0.00    -0.250 OA 
HETATM    2  P   UNL     1     -10.883  12.414  64.401  1.00  0.00    -0.403 P  
HETATM    3  O   UNL     1      -9.962  12.921  65.617  1.00  0.00    -0.274 OA 
HETATM    4  O   UNL     1     -11.561  11.097  64.585  1.00  0.00     0.062 OA 
HETATM    5  O   UNL     1     -11.873  13.635  64.126  1.00  0.00    -0.413 OA 
ENDROOT
BRANCH   3   6
HETATM    6  C   UNL     1     -10.543  12.526  66.851  1.00  0.00    -0.236 C  
BRANCH   6   7
HETATM    7  N   UNL     1     -10.456  11.123  67.160  1.00  0.00    -0.219 N  
HETATM    8  C   UNL     1     -11.281  10.636  68.131  1.00  0.00    -0.302 C  
HETATM    9  N   UNL     1     -10.752   9.498  68.662  1.00  0.00    -0.210 NA 
HETATM   10  O   UNL     1     -12.303  11.149  68.557  1.00  0.00    -0.561 OA 
HETATM   11  C   UNL     1      -9.438   9.185  68.153  1.00  0.00    -0.142 C  
HETATM   12  O   UNL     1      -8.297  10.654  66.484  1.00  0.00    -0.133 OA 
HETATM   13  C   UNL     1      -9.299  10.385  67.142  1.00  0.00    -0.157 C  
BRANCH  11  14
HETATM   14  C   UNL     1      -8.339   9.327  69.227  1.00  0.00    -0.124 A  
HETATM   15  C   UNL     1      -7.069   9.876  68.958  1.00  0.00    -0.068 A  
HETATM   16  C   UNL     1      -8.586   8.861  70.535  1.00  0.00    -0.208 A  
HETATM   17  C   UNL     1      -7.610   8.939  71.531  1.00  0.00    -0.092 A  
HETATM   18  C   UNL     1      -6.092   9.951  69.956  1.00  0.00    -0.053 A  
HETATM   19  C   UNL     1      -6.361   9.482  71.239  1.00  0.00    -0.020 A  
ENDBRANCH  11  14
BRANCH  11  20
HETATM   20  C   UNL     1      -9.540   7.787  67.524  1.00  0.00    -0.184 A  
HETATM   21  C   UNL     1     -10.877   5.901  66.745  1.00  0.00    -0.347 A  
HETATM   22  C   UNL     1      -9.732   5.123  66.607  1.00  0.00    -0.181 A  
HETATM   23  C   UNL     1      -8.487   5.659  66.924  1.00  0.00    -0.111 A  
HETATM   24  C   UNL     1      -8.392   6.973  67.385  1.00  0.00    -0.122 A  
HETATM   25  C   UNL     1     -10.786   7.218  67.201  1.00  0.00    -0.413 A  
ENDBRANCH  11  20
ENDBRANCH   6   7
ENDBRANCH   3   6
TORSDOF 4
ENDMDL
MODEL      123
REMARK 921   NORMALIZED FREE ENERGY PREDICTED BY IDOCK:   -3.65 KCAL/MOL
REMARK 922        TOTAL FREE ENERGY PREDICTED BY IDOCK:   -5.35 KCAL/MOL
REMARK 923 INTER-LIGAND FREE ENERGY PREDICTED BY IDOCK:   -4.48 KCAL/MOL
REMARK 924 INTRA-LIGAND FREE ENERGY PREDICTED BY IDOCK:   -0.87 KCAL/MOL
REMARK 927      BINDING AFFINITY PREDICTED BY RF-SCORE:    0.00 PKD
ROOT
HETATM    1  O   UNL     1     -13.714   9.050  73.055  1.00  0.00    -0.275 OA 
HETATM    2  P   UNL     1     -12.736   8.401  71.978  1.00  0.00    -0.354 P  
HETATM    3  O   UNL     1     -11.940   9.589  71.242  1.00  0.00    -0.313 OA 
HETATM    4  O   UNL     1     -13.447   7.431  71.094  1.00  0.00    -0.305 OA 
HETATM    5  O   UNL     1     -11.648   7.742  72.943  1.00  0.00    -0.355 OA 
ENDROOT
BRANCH   3   6
HETATM    6  C   UNL     1     -11.381   9.108  70.029  1.00  0.00    -0.090 C  
BRANCH   6   7
HETATM    7  N   UNL     1     -10.401   8.063  70.165  1.00  0.00    -0.211 N  
HETATM    8  C   UNL     1      -9.122   8.428  70.464  1.00  0.00    -0.150 C  
HETATM    9  N   UNL     1      -8.255   7.460  70.057  1.00  0.00    -0.129 NA 
HETATM   10  O   UNL     1      -8.750   9.488  70.943  1.00  0.00    -0.243 OA 
HETATM   11  C   UNL     1      -8.893   6.388  69.330  1.00  0.00    -0.128 C  
HETATM   12  O   UNL     1     -11.350   6.396  68.878  1.00  0.00    -0.341 OA 
HETATM   13  C   UNL     1     -10.377   6.907  69.425  1.00  0.00    -0.204 C  
BRANCH  11  14
HETATM   14  C   UNL     1      -8.485   6.358  67.841  1.00  0.00    -0.118 A  
HETATM   15  C   UNL     1      -7.612   7.303  67.266  1.00  0.00    -0.104 A  
HETATM   16  C   UNL     1      -9.028   5.370  66.996  1.00  0.00    -0.112 A  
HETATM   17  C   UNL     1      -8.714   5.324  65.636  1.00  0.00    -0.146 A  
HETATM   18  C   UNL     1      -7.301   7.257  65.903  1.00  0.00    -0.075 A  
HETATM   19  C   UNL     1      -7.852   6.271  65.089  1.00  0.00    -0.109 A  
ENDBRANCH  11  14
BRANCH  11  20
HETATM   20  C   UNL     1      -8.583   5.098  70.104  1.00  0.00    -0.116 A  
HETATM   21  C   UNL     1      -7.104   3.224  70.604  1.00  0.00    -0.034 A  
HETATM   22  C   UNL     1      -8.113   2.597  71.329  1.00  0.00    -0.063 A  
HETATM   23  C   UNL     1      -9.360   3.204  71.448  1.00  0.00    -0.207 A  
HETATM   24  C   UNL     1      -9.596   4.436  70.837  1.00  0.00    -0.255 A  
HETATM   25  C   UNL     1      -7.334   4.460  69.996  1.00  0.00    -0.046 A  
ENDBRANCH  11  20
ENDBRANCH   6   7
ENDBRANCH   3   6
TORSDOF 4
ENDMDL
MODEL      124
REMARK 921   NORMALIZED FREE ENERGY PREDICTED BY IDOCK:   -3.64 KCAL/MOL
REMARK 922        TOTAL FREE ENERGY PREDICTED BY IDOCK:   -5.34 KCAL/MOL
REMARK 923 INTER-LIGAND FREE ENERGY PREDICTED BY IDOCK:   -4.39 KCAL/MOL
REMARK 924 INTRA-LIGAND FREE ENERGY PREDICTED BY IDOCK:   -0.95 KCAL/MOL
REMARK 927      BINDING AFFINITY PREDICTED BY RF-SCORE:    0.00 PKD
ROOT
HETATM    1  O   UNL     1     -10.868   5.899  71.429  1.00  0.00    -0.256 OA 
HETATM    2  P   UNL     1     -10.699   7.399  70.919  1.00  0.00    -0.243 P  
HETATM    3  O   UNL     1      -9.219   7.560  70.311  1.00  0.00    -0.157 OA 
HETATM    4  O   UNL     1     -11.099   8.390  71.961  1.00  0.00    -0.280 OA 
HETATM    5  O   UNL     1     -11.647   7.370  69.635  1.00  0.00     0.035 OA 
ENDROOT
BRANCH   3   6
HETATM    6  C   UNL     1      -8.886   8.937  70.225  1.00  0.00    -0.175 C  
BRANCH   6   7
HETATM    7  N   UNL     1      -8.649   9.440  68.898  1.00  0.00    -0.128 N  
HETATM    8  C   UNL     1      -7.374   9.381  68.416  1.00  0.00    -0.077 C  
HETATM    9  N   UNL     1      -7.203  10.316  67.440  1.00  0.00    -0.091 NA 
HETATM   10  O   UNL     1      -6.463   8.678  68.823  1.00  0.00    -0.051 OA 
HETATM   11  C   UNL     1      -8.349  11.176  67.263  1.00  0.00    -0.135 C  
HETATM   12  O   UNL     1     -10.399  10.930  68.670  1.00  0.00    -0.174 OA 
HETATM   13  C   UNL     1      -9.291  10.516  68.340  1.00  0.00    -0.158 C  
BRANCH  11  14
HETATM   14  C   UNL     1      -8.068  12.632  67.693  1.00  0.00    -0.173 A  
HETATM   15  C   UNL     1      -8.797  13.732  67.199  1.00  0.00    -0.240 A  
HETATM   16  C   UNL     1      -7.015  12.895  68.593  1.00  0.00    -0.101 A  
HETATM   17  C   UNL     1      -6.703  14.199  68.984  1.00  0.00    -0.107 A  
HETATM   18  C   UNL     1      -8.481  15.037  67.591  1.00  0.00    -0.170 A  
HETATM   19  C   UNL     1      -7.436  15.270  68.480  1.00  0.00    -0.121 A  
ENDBRANCH  11  14
BRANCH  11  20
HETATM   20  C   UNL     1      -8.787  11.014  65.799  1.00  0.00    -0.200 A  
HETATM   21  C   UNL     1     -10.529  11.006  64.092  1.00  0.00    -0.434 A  
HETATM   22  C   UNL     1      -9.641  10.471  63.163  1.00  0.00    -0.375 A  
HETATM   23  C   UNL     1      -8.328  10.201  63.535  1.00  0.00    -0.169 A  
HETATM   24  C   UNL     1      -7.906  10.462  64.840  1.00  0.00    -0.099 A  
HETATM   25  C   UNL     1     -10.110  11.274  65.397  1.00  0.00    -0.314 A  
ENDBRANCH  11  20
ENDBRANCH   6   7
ENDBRANCH   3   6
TORSDOF 4
ENDMDL
MODEL      125
REMARK 921   NORMALIZED FREE ENERGY PREDICTED BY IDOCK:   -3.59 KCAL/MOL
REMARK 922        TOTAL FREE ENERGY PREDICTED BY IDOCK:   -5.28 KCAL/MOL
REMARK 923 INTER-LIGAND FREE ENERGY PREDICTED BY IDOCK:   -4.31 KCAL/MOL
REMARK 924 INTRA-LIGAND FREE ENERGY PREDICTED BY IDOCK:   -0.96 KCAL/MOL
REMARK 927      BINDING AFFINITY PREDICTED BY RF-SCORE:    0.00 PKD
ROOT
HETATM    1  O   UNL     1     -10.989   8.921  72.097  1.00  0.00    -0.362 OA 
HETATM    2  P   UNL     1     -10.617   7.520  71.435  1.00  0.00    -0.210 P  
HETATM    3  O   UNL     1      -9.188   7.669  70.713  1.00  0.00    -0.156 OA 
HETATM    4  O   UNL     1     -11.732   6.988  70.597  1.00  0.00    -0.324 OA 
HETATM    5  O   UNL     1     -10.306   6.662  72.744  1.00  0.00    -0.188 OA 
ENDROOT
BRANCH   3   6
HETATM    6  C   UNL     1      -9.010   6.608  69.787  1.00  0.00    -0.143 C  
BRANCH   6   7
HETATM    7  N   UNL     1      -8.596   6.997  68.464  1.00  0.00    -0.124 N  
HETATM    8  C   UNL     1      -7.339   7.504  68.317  1.00  0.00    -0.096 C  
HETATM    9  N   UNL     1      -7.278   8.278  67.198  1.00  0.00    -0.083 NA 
HETATM   10  O   UNL     1      -6.400   7.384  69.088  1.00  0.00    -0.034 OA 
HETATM   11  C   UNL     1      -8.557   8.449  66.549  1.00  0.00    -0.120 C  
HETATM   12  O   UNL     1     -10.638   7.416  67.468  1.00  0.00    -0.247 OA 
HETATM   13  C   UNL     1      -9.419   7.552  67.516  1.00  0.00    -0.139 C  
BRANCH  11  14
HETATM   14  C   UNL     1      -9.078   9.899  66.640  1.00  0.00    -0.171 A  
HETATM   15  C   UNL     1      -8.293  10.968  67.116  1.00  0.00    -0.132 A  
HETATM   16  C   UNL     1     -10.408  10.179  66.269  1.00  0.00    -0.245 A  
HETATM   17  C   UNL     1     -10.933  11.470  66.366  1.00  0.00    -0.336 A  
HETATM   18  C   UNL     1      -8.821  12.259  67.215  1.00  0.00    -0.190 A  
HETATM   19  C   UNL     1     -10.139  12.509  66.843  1.00  0.00    -0.232 A  
ENDBRANCH  11  14
BRANCH  11  20
HETATM   20  C   UNL     1      -8.387   7.919  65.116  1.00  0.00    -0.128 A  
HETATM   21  C   UNL     1      -7.996   6.078  63.566  1.00  0.00    -0.108 A  
HETATM   22  C   UNL     1      -7.823   6.974  62.515  1.00  0.00    -0.127 A  
HETATM   23  C   UNL     1      -7.926   8.343  62.749  1.00  0.00    -0.159 A  
HETATM   24  C   UNL     1      -8.197   8.811  64.035  1.00  0.00    -0.161 A  
HETATM   25  C   UNL     1      -8.273   6.542  64.854  1.00  0.00    -0.097 A  
ENDBRANCH  11  20
ENDBRANCH   6   7
ENDBRANCH   3   6
TORSDOF 4
ENDMDL
MODEL      126
REMARK 921   NORMALIZED FREE ENERGY PREDICTED BY IDOCK:   -3.47 KCAL/MOL
REMARK 922        TOTAL FREE ENERGY PREDICTED BY IDOCK:   -5.13 KCAL/MOL
REMARK 923 INTER-LIGAND FREE ENERGY PREDICTED BY IDOCK:   -4.39 KCAL/MOL
REMARK 924 INTRA-LIGAND FREE ENERGY PREDICTED BY IDOCK:   -0.74 KCAL/MOL
REMARK 927      BINDING AFFINITY PREDICTED BY RF-SCORE:    0.00 PKD
ROOT
HETATM    1  O   UNL     1      -9.025  12.594  66.884  1.00  0.00    -0.209 OA 
HETATM    2  P   UNL     1     -10.190  11.522  67.060  1.00  0.00    -0.228 P  
HETATM    3  O   UNL     1      -9.881  10.654  68.378  1.00  0.00    -0.151 OA 
HETATM    4  O   UNL     1     -10.434  10.755  65.802  1.00  0.00    -0.242 OA 
HETATM    5  O   UNL     1     -11.392  12.477  67.495  1.00  0.00    -0.273 OA 
ENDROOT
BRANCH   3   6
HETATM    6  C   UNL     1     -10.640   9.456  68.347  1.00  0.00    -0.204 C  
BRANCH   6   7
HETATM    7  N   UNL     1      -9.892   8.238  68.522  1.00  0.00    -0.171 N  
HETATM    8  C   UNL     1     -10.365   7.111  67.917  1.00  0.00    -0.198 C  
HETATM    9  N   UNL     1      -9.898   6.007  68.563  1.00  0.00    -0.125 NA 
HETATM   10  O   UNL     1     -11.158   7.048  66.991  1.00  0.00    -0.373 OA 
HETATM   11  C   UNL     1      -9.144   6.316  69.755  1.00  0.00    -0.143 C  
HETATM   12  O   UNL     1      -8.799   8.673  70.510  1.00  0.00    -0.142 OA 
HETATM   13  C   UNL     1      -9.220   7.887  69.666  1.00  0.00    -0.153 C  
BRANCH  11  14
HETATM   14  C   UNL     1      -9.866   5.869  71.044  1.00  0.00    -0.225 A  
HETATM   15  C   UNL     1     -10.792   6.682  71.726  1.00  0.00    -0.265 A  
HETATM   16  C   UNL     1      -9.571   4.607  71.599  1.00  0.00    -0.221 A  
HETATM   17  C   UNL     1     -10.175   4.174  72.781  1.00  0.00    -0.228 A  
HETATM   18  C   UNL     1     -11.394   6.248  72.911  1.00  0.00    -0.187 A  
HETATM   19  C   UNL     1     -11.085   4.998  73.439  1.00  0.00    -0.404 A  
ENDBRANCH  11  14
BRANCH  11  20
HETATM   20  C   UNL     1      -7.751   5.699  69.556  1.00  0.00    -0.091 A  
HETATM   21  C   UNL     1      -5.403   5.508  70.188  1.00  0.00    -0.004 A  
HETATM   22  C   UNL     1      -5.135   4.768  69.040  1.00  0.00     0.000 A  
HETATM   23  C   UNL     1      -6.160   4.488  68.141  1.00  0.00    -0.031 A  
HETATM   24  C   UNL     1      -7.451   4.955  68.391  1.00  0.00    -0.074 A  
HETATM   25  C   UNL     1      -6.695   5.972  70.445  1.00  0.00    -0.052 A  
ENDBRANCH  11  20
ENDBRANCH   6   7
ENDBRANCH   3   6
TORSDOF 4
ENDMDL
MODEL      127
REMARK 921   NORMALIZED FREE ENERGY PREDICTED BY IDOCK:   -3.38 KCAL/MOL
REMARK 922        TOTAL FREE ENERGY PREDICTED BY IDOCK:   -5.02 KCAL/MOL
REMARK 923 INTER-LIGAND FREE ENERGY PREDICTED BY IDOCK:   -4.17 KCAL/MOL
REMARK 924 INTRA-LIGAND FREE ENERGY PREDICTED BY IDOCK:   -0.85 KCAL/MOL
REMARK 927      BINDING AFFINITY PREDICTED BY RF-SCORE:    0.00 PKD
ROOT
HETATM    1  O   UNL     1      -9.774  11.545  68.944  1.00  0.00    -0.161 OA 
HETATM    2  P   UNL     1     -10.853  10.374  69.005  1.00  0.00    -0.264 P  
HETATM    3  O   UNL     1     -10.894   9.806  70.509  1.00  0.00    -0.276 OA 
HETATM    4  O   UNL     1     -10.644   9.368  67.922  1.00  0.00    -0.237 OA 
HETATM    5  O   UNL     1     -12.199  11.220  68.871  1.00  0.00    -0.494 OA 
ENDROOT
BRANCH   3   6
HETATM    6  C   UNL     1     -11.515   8.530  70.520  1.00  0.00    -0.182 C  
BRANCH   6   7
HETATM    7  N   UNL     1     -10.678   7.432  70.926  1.00  0.00    -0.232 N  
HETATM    8  C   UNL     1      -9.760   7.663  71.908  1.00  0.00    -0.164 C  
HETATM    9  N   UNL     1      -8.745   6.759  71.818  1.00  0.00    -0.128 NA 
HETATM   10  O   UNL     1      -9.757   8.580  72.714  1.00  0.00    -0.257 OA 
HETATM   11  C   UNL     1      -8.848   5.895  70.666  1.00  0.00    -0.141 C  
HETATM   12  O   UNL     1     -10.720   6.119  69.026  1.00  0.00    -0.243 OA 
HETATM   13  C   UNL     1     -10.201   6.456  70.086  1.00  0.00    -0.187 C  
BRANCH  11  14
HETATM   14  C   UNL     1      -7.734   6.155  69.630  1.00  0.00    -0.098 A  
HETATM   15  C   UNL     1      -7.541   7.404  69.008  1.00  0.00    -0.102 A  
HETATM   16  C   UNL     1      -6.882   5.096  69.251  1.00  0.00    -0.054 A  
HETATM   17  C   UNL     1      -5.882   5.276  68.293  1.00  0.00    -0.017 A  
HETATM   18  C   UNL     1      -6.539   7.581  68.047  1.00  0.00    -0.054 A  
HETATM   19  C   UNL     1      -5.713   6.520  67.690  1.00  0.00    -0.012 A  
ENDBRANCH  11  14
BRANCH  11  20
HETATM   20  C   UNL     1      -8.896   4.458  71.208  1.00  0.00    -0.152 A  
HETATM   21  C   UNL     1      -9.781   2.186  71.129  1.00  0.00    -0.182 A  
HETATM   22  C   UNL     1      -9.181   1.890  72.349  1.00  0.00    -0.119 A  
HETATM   23  C   UNL     1      -8.439   2.865  73.011  1.00  0.00    -0.079 A  
HETATM   24  C   UNL     1      -8.304   4.136  72.451  1.00  0.00    -0.100 A  
HETATM   25  C   UNL     1      -9.643   3.456  70.563  1.00  0.00    -0.231 A  
ENDBRANCH  11  20
ENDBRANCH   6   7
ENDBRANCH   3   6
TORSDOF 4
ENDMDL
MODEL      128
REMARK 921   NORMALIZED FREE ENERGY PREDICTED BY IDOCK:   -3.31 KCAL/MOL
REMARK 922        TOTAL FREE ENERGY PREDICTED BY IDOCK:   -4.93 KCAL/MOL
REMARK 923 INTER-LIGAND FREE ENERGY PREDICTED BY IDOCK:   -4.54 KCAL/MOL
REMARK 924 INTRA-LIGAND FREE ENERGY PREDICTED BY IDOCK:   -0.40 KCAL/MOL
REMARK 927      BINDING AFFINITY PREDICTED BY RF-SCORE:    0.00 PKD
ROOT
HETATM    1  O   UNL     1      -7.610   9.238  71.809  1.00  0.00    -0.329 OA 
HETATM    2  P   UNL     1      -8.868   8.292  71.560  1.00  0.00    -0.205 P  
HETATM    3  O   UNL     1      -8.332   6.796  71.318  1.00  0.00    -0.118 OA 
HETATM    4  O   UNL     1      -9.783   8.846  70.520  1.00  0.00    -0.177 OA 
HETATM    5  O   UNL     1      -9.486   8.251  73.031  1.00  0.00    -0.264 OA 
ENDROOT
BRANCH   3   6
HETATM    6  C   UNL     1      -9.348   6.020  70.701  1.00  0.00    -0.160 C  
BRANCH   6   7
HETATM    7  N   UNL     1      -9.097   5.632  69.338  1.00  0.00    -0.116 N  
HETATM    8  C   UNL     1      -7.803   5.632  68.907  1.00  0.00    -0.096 C  
HETATM    9  N   UNL     1      -7.765   5.763  67.552  1.00  0.00    -0.096 NA 
HETATM   10  O   UNL     1      -6.795   5.611  69.596  1.00  0.00    -0.056 OA 
HETATM   11  C   UNL     1      -9.064   5.980  66.960  1.00  0.00    -0.117 C  
HETATM   12  O   UNL     1     -11.131   6.119  68.357  1.00  0.00    -0.330 OA 
HETATM   13  C   UNL     1      -9.924   5.907  68.278  1.00  0.00    -0.146 C  
BRANCH  11  14
HETATM   14  C   UNL     1      -9.213   7.395  66.362  1.00  0.00    -0.203 A  
HETATM   15  C   UNL     1     -10.147   8.335  66.840  1.00  0.00    -0.366 A  
HETATM   16  C   UNL     1      -8.411   7.769  65.265  1.00  0.00    -0.128 A  
HETATM   17  C   UNL     1      -8.534   9.027  64.670  1.00  0.00    -0.194 A  
HETATM   18  C   UNL     1     -10.270   9.593  66.242  1.00  0.00    -0.286 A  
HETATM   19  C   UNL     1      -9.467   9.938  65.158  1.00  0.00    -0.338 A  
ENDBRANCH  11  14
BRANCH  11  20
HETATM   20  C   UNL     1      -9.277   4.835  65.957  1.00  0.00    -0.148 A  
HETATM   21  C   UNL     1      -8.395   3.023  64.584  1.00  0.00    -0.090 A  
HETATM   22  C   UNL     1      -9.616   2.901  63.927  1.00  0.00    -0.130 A  
HETATM   23  C   UNL     1     -10.673   3.738  64.271  1.00  0.00    -0.216 A  
HETATM   24  C   UNL     1     -10.505   4.700  65.268  1.00  0.00    -0.120 A  
HETATM   25  C   UNL     1      -8.223   3.980  65.587  1.00  0.00    -0.105 A  
ENDBRANCH  11  20
ENDBRANCH   6   7
ENDBRANCH   3   6
TORSDOF 4
ENDMDL
MODEL      129
REMARK 921   NORMALIZED FREE ENERGY PREDICTED BY IDOCK:   -3.27 KCAL/MOL
REMARK 922        TOTAL FREE ENERGY PREDICTED BY IDOCK:   -4.89 KCAL/MOL
REMARK 923 INTER-LIGAND FREE ENERGY PREDICTED BY IDOCK:   -4.31 KCAL/MOL
REMARK 924 INTRA-LIGAND FREE ENERGY PREDICTED BY IDOCK:   -0.58 KCAL/MOL
REMARK 927      BINDING AFFINITY PREDICTED BY RF-SCORE:    0.00 PKD
ROOT
HETATM    1  O   UNL     1      -8.934  14.486  68.813  1.00  0.00    -0.188 OA 
HETATM    2  P   UNL     1      -7.900  13.607  67.978  1.00  0.00    -0.185 P  
HETATM    3  O   UNL     1      -8.720  12.794  66.859  1.00  0.00    -0.207 OA 
HETATM    4  O   UNL     1      -7.012  12.801  68.866  1.00  0.00    -0.096 OA 
HETATM    5  O   UNL     1      -7.151  14.753  67.158  1.00  0.00    -0.192 OA 
ENDROOT
BRANCH   3   6
HETATM    6  C   UNL     1      -7.929  11.718  66.377  1.00  0.00     0.065 C  
BRANCH   6   7
HETATM    7  N   UNL     1      -8.517  10.410  66.496  1.00  0.00    -0.129 N  
HETATM    8  C   UNL     1      -9.844  10.283  66.209  1.00  0.00    -0.219 C  
HETATM    9  N   UNL     1     -10.353   9.188  66.840  1.00  0.00    -0.260 NA 
HETATM   10  O   UNL     1     -10.537  11.054  65.563  1.00  0.00    -0.256 OA 
HETATM   11  C   UNL     1      -9.406   8.540  67.716  1.00  0.00    -0.137 C  
HETATM   12  O   UNL     1      -7.086   9.418  68.014  1.00  0.00    -0.079 OA 
HETATM   13  C   UNL     1      -8.169   9.476  67.439  1.00  0.00    -0.114 C  
BRANCH  11  14
HETATM   14  C   UNL     1      -9.790   8.673  69.205  1.00  0.00    -0.185 A  
HETATM   15  C   UNL     1      -8.847   8.607  70.249  1.00  0.00    -0.158 A  
HETATM   16  C   UNL     1     -11.146   8.833  69.557  1.00  0.00     0.006 A  
HETATM   17  C   UNL     1     -11.544   8.925  70.893  1.00  0.00    -0.331 A  
HETATM   18  C   UNL     1      -9.247   8.697  71.586  1.00  0.00    -0.326 A  
HETATM   19  C   UNL     1     -10.593   8.853  71.908  1.00  0.00    -0.419 A  
ENDBRANCH  11  14
BRANCH  11  20
HETATM   20  C   UNL     1      -9.277   7.093  67.216  1.00  0.00    -0.145 A  
HETATM   21  C   UNL     1     -10.077   4.789  67.148  1.00  0.00    -0.210 A  
HETATM   22  C   UNL     1      -8.909   4.383  66.510  1.00  0.00    -0.114 A  
HETATM   23  C   UNL     1      -7.917   5.316  66.220  1.00  0.00    -0.104 A  
HETATM   24  C   UNL     1      -8.095   6.654  66.576  1.00  0.00    -0.111 A  
HETATM   25  C   UNL     1     -10.261   6.128  67.500  1.00  0.00    -0.218 A  
ENDBRANCH  11  20
ENDBRANCH   6   7
ENDBRANCH   3   6
TORSDOF 4
ENDMDL
MODEL      130
REMARK 921   NORMALIZED FREE ENERGY PREDICTED BY IDOCK:   -3.27 KCAL/MOL
REMARK 922        TOTAL FREE ENERGY PREDICTED BY IDOCK:   -4.88 KCAL/MOL
REMARK 923 INTER-LIGAND FREE ENERGY PREDICTED BY IDOCK:   -4.30 KCAL/MOL
REMARK 924 INTRA-LIGAND FREE ENERGY PREDICTED BY IDOCK:   -0.58 KCAL/MOL
REMARK 927      BINDING AFFINITY PREDICTED BY RF-SCORE:    0.00 PKD
ROOT
HETATM    1  O   UNL     1     -13.443  10.590  72.783  1.00  0.00     0.318 OA 
HETATM    2  P   UNL     1     -12.946  10.137  71.338  1.00  0.00    -0.456 P  
HETATM    3  O   UNL     1     -11.935  11.256  70.781  1.00  0.00    -0.339 OA 
HETATM    4  O   UNL     1     -14.087   9.771  70.447  1.00  0.00     0.369 OA 
HETATM    5  O   UNL     1     -11.998   8.916  71.734  1.00  0.00    -0.312 OA 
ENDROOT
BRANCH   3   6
HETATM    6  C   UNL     1     -11.792  11.113  69.376  1.00  0.00    -0.345 C  
BRANCH   6   7
HETATM    7  N   UNL     1     -11.013  12.130  68.721  1.00  0.00    -0.224 N  
HETATM    8  C   UNL     1     -11.684  13.134  68.088  1.00  0.00    -0.355 C  
HETATM    9  N   UNL     1     -10.896  13.684  67.123  1.00  0.00    -0.283 NA 
HETATM   10  O   UNL     1     -12.846  13.469  68.261  1.00  0.00     0.758 OA 
HETATM   11  C   UNL     1      -9.637  12.998  66.952  1.00  0.00    -0.243 C  
HETATM   12  O   UNL     1      -9.048  10.986  68.312  1.00  0.00    -0.145 OA 
HETATM   13  C   UNL     1      -9.819  11.913  68.079  1.00  0.00    -0.190 C  
BRANCH  11  14
HETATM   14  C   UNL     1      -9.539  12.272  65.593  1.00  0.00    -0.148 A  
HETATM   15  C   UNL     1     -10.314  12.632  64.473  1.00  0.00    -0.369 A  
HETATM   16  C   UNL     1      -8.665  11.174  65.458  1.00  0.00    -0.098 A  
HETATM   17  C   UNL     1      -8.567  10.466  64.259  1.00  0.00    -0.190 A  
HETATM   18  C   UNL     1     -10.216  11.920  63.273  1.00  0.00    -0.428 A  
HETATM   19  C   UNL     1      -9.347  10.838  63.166  1.00  0.00    -0.336 A  
ENDBRANCH  11  14
BRANCH  11  20
HETATM   20  C   UNL     1      -8.539  14.044  67.199  1.00  0.00    -0.220 A  
HETATM   21  C   UNL     1      -7.522  16.209  66.723  1.00  0.00    -0.246 A  
HETATM   22  C   UNL     1      -6.393  15.861  67.458  1.00  0.00    -0.198 A  
HETATM   23  C   UNL     1      -6.320  14.612  68.066  1.00  0.00    -0.165 A  
HETATM   24  C   UNL     1      -7.377  13.710  67.933  1.00  0.00    -0.148 A  
HETATM   25  C   UNL     1      -8.584  15.312  66.591  1.00  0.00    -0.305 A  
ENDBRANCH  11  20
ENDBRANCH   6   7
ENDBRANCH   3   6
TORSDOF 4
ENDMDL
MODEL      131
REMARK 921   NORMALIZED FREE ENERGY PREDICTED BY IDOCK:   -3.23 KCAL/MOL
REMARK 922        TOTAL FREE ENERGY PREDICTED BY IDOCK:   -4.84 KCAL/MOL
REMARK 923 INTER-LIGAND FREE ENERGY PREDICTED BY IDOCK:   -4.13 KCAL/MOL
REMARK 924 INTRA-LIGAND FREE ENERGY PREDICTED BY IDOCK:   -0.70 KCAL/MOL
REMARK 927      BINDING AFFINITY PREDICTED BY RF-SCORE:    0.00 PKD
ROOT
HETATM    1  O   UNL     1      -9.800  13.578  68.453  1.00  0.00    -0.232 OA 
HETATM    2  P   UNL     1      -8.663  12.574  67.963  1.00  0.00    -0.188 P  
HETATM    3  O   UNL     1      -9.326  11.526  66.939  1.00  0.00    -0.174 OA 
HETATM    4  O   UNL     1      -7.903  11.993  69.108  1.00  0.00     0.066 OA 
HETATM    5  O   UNL     1      -7.811  13.547  67.027  1.00  0.00    -0.067 OA 
ENDROOT
BRANCH   3   6
HETATM    6  C   UNL     1      -8.479  10.396  66.800  1.00  0.00    -0.125 C  
BRANCH   6   7
HETATM    7  N   UNL     1      -8.646   9.365  67.790  1.00  0.00    -0.116 N  
HETATM    8  C   UNL     1      -7.523   8.763  68.275  1.00  0.00    -0.092 C  
HETATM    9  N   UNL     1      -7.831   7.528  68.761  1.00  0.00    -0.118 NA 
HETATM   10  O   UNL     1      -6.379   9.186  68.225  1.00  0.00    -0.053 OA 
HETATM   11  C   UNL     1      -9.204   7.147  68.532  1.00  0.00    -0.134 C  
HETATM   12  O   UNL     1     -10.794   8.651  67.325  1.00  0.00    -0.217 OA 
HETATM   13  C   UNL     1      -9.686   8.469  67.822  1.00  0.00    -0.162 C  
BRANCH  11  14
HETATM   14  C   UNL     1      -9.335   5.983  67.527  1.00  0.00    -0.113 A  
HETATM   15  C   UNL     1      -8.238   5.208  67.103  1.00  0.00    -0.107 A  
HETATM   16  C   UNL     1     -10.597   5.691  66.969  1.00  0.00    -0.358 A  
HETATM   17  C   UNL     1     -10.757   4.668  66.031  1.00  0.00    -0.126 A  
HETATM   18  C   UNL     1      -8.400   4.186  66.162  1.00  0.00    -0.109 A  
HETATM   19  C   UNL     1      -9.657   3.918  65.626  1.00  0.00    -0.182 A  
ENDBRANCH  11  14
BRANCH  11  20
HETATM   20  C   UNL     1      -9.812   6.870  69.915  1.00  0.00    -0.172 A  
HETATM   21  C   UNL     1     -10.533   5.307  71.644  1.00  0.00    -0.280 A  
HETATM   22  C   UNL     1     -11.155   6.338  72.342  1.00  0.00    -0.307 A  
HETATM   23  C   UNL     1     -11.117   7.636  71.841  1.00  0.00    -0.290 A  
HETATM   24  C   UNL     1     -10.460   7.899  70.638  1.00  0.00    -0.216 A  
HETATM   25  C   UNL     1      -9.870   5.567  70.442  1.00  0.00    -0.259 A  
ENDBRANCH  11  20
ENDBRANCH   6   7
ENDBRANCH   3   6
TORSDOF 4
ENDMDL
MODEL      132
REMARK 921   NORMALIZED FREE ENERGY PREDICTED BY IDOCK:   -3.10 KCAL/MOL
REMARK 922        TOTAL FREE ENERGY PREDICTED BY IDOCK:   -4.67 KCAL/MOL
REMARK 923 INTER-LIGAND FREE ENERGY PREDICTED BY IDOCK:   -4.87 KCAL/MOL
REMARK 924 INTRA-LIGAND FREE ENERGY PREDICTED BY IDOCK:    0.20 KCAL/MOL
REMARK 927      BINDING AFFINITY PREDICTED BY RF-SCORE:    0.00 PKD
ROOT
HETATM    1  O   UNL     1     -13.913  12.100  72.436  1.00  0.00    -0.093 OA 
HETATM    2  P   UNL     1     -13.154  13.150  71.507  1.00  0.00    -0.152 P  
HETATM    3  O   UNL     1     -14.035  14.493  71.443  1.00  0.00    -0.388 OA 
HETATM    4  O   UNL     1     -12.761  12.551  70.198  1.00  0.00     0.053 OA 
HETATM    5  O   UNL     1     -11.928  13.532  72.454  1.00  0.00     0.771 OA 
ENDROOT
BRANCH   3   6
HETATM    6  C   UNL     1     -13.625  15.279  70.335  1.00  0.00     0.179 C  
BRANCH   6   7
HETATM    7  N   UNL     1     -12.203  15.388  70.140  1.00  0.00    -0.361 N  
HETATM    8  C   UNL     1     -11.505  16.189  70.995  1.00  0.00    -0.382 C  
HETATM    9  N   UNL     1     -10.346  16.598  70.406  1.00  0.00     0.389 NA 
HETATM   10  O   UNL     1     -11.860  16.581  72.095  1.00  0.00    -0.501 OA 
HETATM   11  C   UNL     1     -10.225  16.183  69.029  1.00  0.00    -0.250 C  
HETATM   12  O   UNL     1     -12.024  14.869  67.896  1.00  0.00    -0.317 OA 
HETATM   13  C   UNL     1     -11.575  15.377  68.920  1.00  0.00    -0.354 C  
BRANCH  11  14
HETATM   14  C   UNL     1     -10.290  17.371  68.046  1.00  0.00    -0.362 A  
HETATM   15  C   UNL     1     -10.394  17.207  66.650  1.00  0.00    -0.310 A  
HETATM   16  C   UNL     1     -10.208  18.687  68.545  1.00  0.00    -0.398 A  
HETATM   17  C   UNL     1     -10.230  19.791  67.691  1.00  0.00    -0.569 A  
HETATM   18  C   UNL     1     -10.413  18.315  65.796  1.00  0.00    -0.228 A  
HETATM   19  C   UNL     1     -10.329  19.604  66.315  1.00  0.00    -0.619 A  
ENDBRANCH  11  14
BRANCH  11  20
HETATM   20  C   UNL     1      -8.937  15.350  68.941  1.00  0.00    -0.208 A  
HETATM   21  C   UNL     1      -6.511  15.165  69.109  1.00  0.00    -0.116 A  
HETATM   22  C   UNL     1      -6.550  13.897  68.537  1.00  0.00    -0.098 A  
HETATM   23  C   UNL     1      -7.770  13.343  68.161  1.00  0.00    -0.143 A  
HETATM   24  C   UNL     1      -8.950  14.063  68.353  1.00  0.00    -0.189 A  
HETATM   25  C   UNL     1      -7.690  15.887  69.308  1.00  0.00    -0.222 A  
ENDBRANCH  11  20
ENDBRANCH   6   7
ENDBRANCH   3   6
TORSDOF 4
ENDMDL
MODEL      133
REMARK 921   NORMALIZED FREE ENERGY PREDICTED BY IDOCK:   -2.89 KCAL/MOL
REMARK 922        TOTAL FREE ENERGY PREDICTED BY IDOCK:   -4.42 KCAL/MOL
REMARK 923 INTER-LIGAND FREE ENERGY PREDICTED BY IDOCK:   -4.45 KCAL/MOL
REMARK 924 INTRA-LIGAND FREE ENERGY PREDICTED BY IDOCK:    0.04 KCAL/MOL
REMARK 927      BINDING AFFINITY PREDICTED BY RF-SCORE:    0.00 PKD
ROOT
HETATM    1  O   UNL     1     -10.330  10.289  64.745  1.00  0.00    -0.277 OA 
HETATM    2  P   UNL     1      -9.720  10.075  66.201  1.00  0.00    -0.259 P  
HETATM    3  O   UNL     1     -10.298   8.695  66.790  1.00  0.00    -0.286 OA 
HETATM    4  O   UNL     1      -9.890  11.285  67.058  1.00  0.00    -0.188 OA 
HETATM    5  O   UNL     1      -8.206   9.737  65.828  1.00  0.00    -0.117 OA 
ENDROOT
BRANCH   3   6
HETATM    6  C   UNL     1     -10.119   8.666  68.198  1.00  0.00    -0.197 C  
BRANCH   6   7
HETATM    7  N   UNL     1      -9.726   7.397  68.751  1.00  0.00    -0.148 N  
HETATM    8  C   UNL     1      -8.391   7.137  68.855  1.00  0.00    -0.126 C  
HETATM    9  N   UNL     1      -8.181   5.791  68.884  1.00  0.00    -0.101 NA 
HETATM   10  O   UNL     1      -7.478   7.947  68.840  1.00  0.00    -0.090 OA 
HETATM   11  C   UNL     1      -9.384   5.019  68.682  1.00  0.00    -0.130 C  
HETATM   12  O   UNL     1     -11.594   6.118  68.294  1.00  0.00     0.098 OA 
HETATM   13  C   UNL     1     -10.401   6.217  68.565  1.00  0.00    -0.207 C  
BRANCH  11  14
HETATM   14  C   UNL     1      -9.379   4.256  67.340  1.00  0.00    -0.190 A  
HETATM   15  C   UNL     1      -9.832   4.824  66.133  1.00  0.00    -0.234 A  
HETATM   16  C   UNL     1      -8.937   2.918  67.308  1.00  0.00    -0.185 A  
HETATM   17  C   UNL     1      -8.945   2.178  66.123  1.00  0.00    -0.103 A  
HETATM   18  C   UNL     1      -9.842   4.081  64.948  1.00  0.00    -0.203 A  
HETATM   19  C   UNL     1      -9.402   2.760  64.944  1.00  0.00    -0.139 A  
ENDBRANCH  11  14
BRANCH  11  20
HETATM   20  C   UNL     1      -9.538   4.128  69.924  1.00  0.00    -0.282 A  
HETATM   21  C   UNL     1      -9.606   1.920  70.959  1.00  0.00    -0.197 A  
HETATM   22  C   UNL     1     -10.070   2.472  72.149  1.00  0.00    -0.213 A  
HETATM   23  C   UNL     1     -10.275   3.845  72.242  1.00  0.00    -0.216 A  
HETATM   24  C   UNL     1     -10.020   4.664  71.141  1.00  0.00    -0.265 A  
HETATM   25  C   UNL     1      -9.344   2.736  69.856  1.00  0.00    -0.202 A  
ENDBRANCH  11  20
ENDBRANCH   6   7
ENDBRANCH   3   6
TORSDOF 4
ENDMDL
MODEL      134
REMARK 921   NORMALIZED FREE ENERGY PREDICTED BY IDOCK:   -2.77 KCAL/MOL
REMARK 922        TOTAL FREE ENERGY PREDICTED BY IDOCK:   -4.27 KCAL/MOL
REMARK 923 INTER-LIGAND FREE ENERGY PREDICTED BY IDOCK:   -6.24 KCAL/MOL
REMARK 924 INTRA-LIGAND FREE ENERGY PREDICTED BY IDOCK:    1.97 KCAL/MOL
REMARK 927      BINDING AFFINITY PREDICTED BY RF-SCORE:    0.00 PKD
ROOT
HETATM    1  O   UNL     1     -10.820   6.215  69.149  1.00  0.00    -0.278 OA 
HETATM    2  P   UNL     1     -10.396   7.745  69.002  1.00  0.00    -0.173 P  
HETATM    3  O   UNL     1     -10.657   8.476  70.410  1.00  0.00    -0.212 OA 
HETATM    4  O   UNL     1     -11.013   8.379  67.800  1.00  0.00    -0.061 OA 
HETATM    5  O   UNL     1      -8.809   7.593  68.928  1.00  0.00    -0.135 OA 
ENDROOT
BRANCH   3   6
HETATM    6  C   UNL     1     -10.686   9.882  70.217  1.00  0.00    -0.310 C  
BRANCH   6   7
HETATM    7  N   UNL     1     -10.183  10.349  68.952  1.00  0.00    -0.193 N  
HETATM    8  C   UNL     1      -8.864  10.689  68.881  1.00  0.00    -0.157 C  
HETATM    9  N   UNL     1      -8.664  11.563  67.855  1.00  0.00    -0.139 NA 
HETATM   10  O   UNL     1      -7.974  10.358  69.649  1.00  0.00    -0.161 OA 
HETATM   11  C   UNL     1      -9.886  11.978  67.209  1.00  0.00    -0.192 C  
HETATM   12  O   UNL     1     -12.116  11.151  67.976  1.00  0.00    -0.635 OA 
HETATM   13  C   UNL     1     -10.892  11.111  68.058  1.00  0.00    -0.225 C  
BRANCH  11  14
HETATM   14  C   UNL     1     -10.207  13.468  67.452  1.00  0.00    -0.237 A  
HETATM   15  C   UNL     1     -10.395  14.392  66.405  1.00  0.00    -0.289 A  
HETATM   16  C   UNL     1     -10.285  13.951  68.774  1.00  0.00    -0.188 A  
HETATM   17  C   UNL     1     -10.541  15.298  69.041  1.00  0.00    -0.245 A  
HETATM   18  C   UNL     1     -10.648  15.741  66.675  1.00  0.00    -0.307 A  
HETATM   19  C   UNL     1     -10.718  16.194  67.989  1.00  0.00    -0.321 A  
ENDBRANCH  11  14
BRANCH  11  20
HETATM   20  C   UNL     1      -9.747  11.585  65.730  1.00  0.00    -0.263 A  
HETATM   21  C   UNL     1     -10.694  11.358  63.494  1.00  0.00    -0.453 A  
HETATM   22  C   UNL     1      -9.582  10.634  63.076  1.00  0.00    -0.379 A  
HETATM   23  C   UNL     1      -8.547  10.376  63.970  1.00  0.00    -0.179 A  
HETATM   24  C   UNL     1      -8.631  10.839  65.284  1.00  0.00    -0.153 A  
HETATM   25  C   UNL     1     -10.780  11.828  64.807  1.00  0.00    -0.355 A  
ENDBRANCH  11  20
ENDBRANCH   6   7
ENDBRANCH   3   6
TORSDOF 4
ENDMDL
MODEL      135
REMARK 921   NORMALIZED FREE ENERGY PREDICTED BY IDOCK:   -2.17 KCAL/MOL
REMARK 922        TOTAL FREE ENERGY PREDICTED BY IDOCK:   -3.53 KCAL/MOL
REMARK 923 INTER-LIGAND FREE ENERGY PREDICTED BY IDOCK:   -2.96 KCAL/MOL
REMARK 924 INTRA-LIGAND FREE ENERGY PREDICTED BY IDOCK:   -0.57 KCAL/MOL
REMARK 927      BINDING AFFINITY PREDICTED BY RF-SCORE:    0.00 PKD
ROOT
HETATM    1  O   UNL     1      -7.864   8.624  73.254  1.00  0.00    -0.391 OA 
HETATM    2  P   UNL     1      -9.096   7.804  72.663  1.00  0.00    -0.221 P  
HETATM    3  O   UNL     1      -8.652   6.265  72.517  1.00  0.00    -0.121 OA 
HETATM    4  O   UNL     1      -9.658   8.450  71.441  1.00  0.00    -0.163 OA 
HETATM    5  O   UNL     1     -10.073   7.811  73.924  1.00  0.00    -0.126 OA 
ENDROOT
BRANCH   3   6
HETATM    6  C   UNL     1      -9.541   5.594  71.638  1.00  0.00    -0.154 C  
BRANCH   6   7
HETATM    7  N   UNL     1      -8.978   5.176  70.381  1.00  0.00    -0.123 N  
HETATM    8  C   UNL     1      -7.711   4.671  70.390  1.00  0.00    -0.054 C  
HETATM    9  N   UNL     1      -7.145   4.814  69.159  1.00  0.00    -0.051 NA 
HETATM   10  O   UNL     1      -7.099   4.230  71.350  1.00  0.00    -0.040 OA 
HETATM   11  C   UNL     1      -7.971   5.548  68.230  1.00  0.00    -0.096 C  
HETATM   12  O   UNL     1     -10.197   6.463  68.900  1.00  0.00    -0.162 OA 
HETATM   13  C   UNL     1      -9.209   5.788  69.175  1.00  0.00    -0.120 C  
BRANCH  11  14
HETATM   14  C   UNL     1      -7.369   6.920  67.862  1.00  0.00    -0.097 A  
HETATM   15  C   UNL     1      -8.125   8.110  67.844  1.00  0.00    -0.128 A  
HETATM   16  C   UNL     1      -6.012   7.003  67.488  1.00  0.00    -0.025 A  
HETATM   17  C   UNL     1      -5.434   8.218  67.115  1.00  0.00    -0.037 A  
HETATM   18  C   UNL     1      -7.544   9.325  67.468  1.00  0.00    -0.088 A  
HETATM   19  C   UNL     1      -6.202   9.379  67.102  1.00  0.00    -0.065 A  
ENDBRANCH  11  14
BRANCH  11  20
HETATM   20  C   UNL     1      -8.211   4.613  67.035  1.00  0.00    -0.106 A  
HETATM   21  C   UNL     1      -9.363   4.081  64.952  1.00  0.00    -0.163 A  
HETATM   22  C   UNL     1      -8.844   2.790  64.973  1.00  0.00    -0.122 A  
HETATM   23  C   UNL     1      -8.013   2.394  66.016  1.00  0.00    -0.082 A  
HETATM   24  C   UNL     1      -7.705   3.292  67.040  1.00  0.00    -0.079 A  
HETATM   25  C   UNL     1      -9.053   4.985  65.971  1.00  0.00    -0.146 A  
ENDBRANCH  11  20
ENDBRANCH   6   7
ENDBRANCH   3   6
TORSDOF 4
ENDMDL
MODEL      136
REMARK 921   NORMALIZED FREE ENERGY PREDICTED BY IDOCK:   -2.02 KCAL/MOL
REMARK 922        TOTAL FREE ENERGY PREDICTED BY IDOCK:   -3.35 KCAL/MOL
REMARK 923 INTER-LIGAND FREE ENERGY PREDICTED BY IDOCK:   -2.89 KCAL/MOL
REMARK 924 INTRA-LIGAND FREE ENERGY PREDICTED BY IDOCK:   -0.46 KCAL/MOL
REMARK 927      BINDING AFFINITY PREDICTED BY RF-SCORE:    0.00 PKD
ROOT
HETATM    1  O   UNL     1      -6.768   8.678  70.727  1.00  0.00    -0.039 OA 
HETATM    2  P   UNL     1      -8.260   8.351  70.274  1.00  0.00    -0.134 P  
HETATM    3  O   UNL     1      -8.587   6.830  70.681  1.00  0.00    -0.139 OA 
HETATM    4  O   UNL     1      -8.503   8.724  68.850  1.00  0.00    -0.128 OA 
HETATM    5  O   UNL     1      -9.076   9.222  71.334  1.00  0.00    -0.299 OA 
ENDROOT
BRANCH   3   6
HETATM    6  C   UNL     1      -9.717   6.375  69.953  1.00  0.00    -0.166 C  
BRANCH   6   7
HETATM    7  N   UNL     1      -9.434   5.520  68.831  1.00  0.00    -0.124 N  
HETATM    8  C   UNL     1      -8.361   4.683  68.926  1.00  0.00    -0.081 C  
HETATM    9  N   UNL     1      -7.918   4.352  67.681  1.00  0.00    -0.092 NA 
HETATM   10  O   UNL     1      -7.792   4.326  69.946  1.00  0.00    -0.053 OA 
HETATM   11  C   UNL     1      -8.608   5.050  66.622  1.00  0.00    -0.109 C  
HETATM   12  O   UNL     1     -10.409   6.712  67.109  1.00  0.00    -0.193 OA 
HETATM   13  C   UNL     1      -9.620   5.864  67.515  1.00  0.00    -0.112 C  
BRANCH  11  14
HETATM   14  C   UNL     1      -7.697   6.054  65.885  1.00  0.00    -0.096 A  
HETATM   15  C   UNL     1      -8.198   7.137  65.135  1.00  0.00    -0.114 A  
HETATM   16  C   UNL     1      -6.299   5.875  65.922  1.00  0.00    -0.042 A  
HETATM   17  C   UNL     1      -5.438   6.739  65.243  1.00  0.00    -0.027 A  
HETATM   18  C   UNL     1      -7.334   7.999  64.453  1.00  0.00    -0.090 A  
HETATM   19  C   UNL     1      -5.957   7.800  64.505  1.00  0.00    -0.041 A  
ENDBRANCH  11  14
BRANCH  11  20
HETATM   20  C   UNL     1      -9.227   3.968  65.724  1.00  0.00    -0.151 A  
HETATM   21  C   UNL     1      -9.341   1.656  64.954  1.00  0.00    -0.077 A  
HETATM   22  C   UNL     1     -10.178   2.027  63.906  1.00  0.00    -0.051 A  
HETATM   23  C   UNL     1     -10.545   3.361  63.751  1.00  0.00    -0.265 A  
HETATM   24  C   UNL     1     -10.070   4.322  64.645  1.00  0.00    -0.134 A  
HETATM   25  C   UNL     1      -8.868   2.614  65.854  1.00  0.00    -0.135 A  
ENDBRANCH  11  20
ENDBRANCH   6   7
ENDBRANCH   3   6
TORSDOF 4
ENDMDL
MODEL      137
REMARK 921   NORMALIZED FREE ENERGY PREDICTED BY IDOCK:   -1.39 KCAL/MOL
REMARK 922        TOTAL FREE ENERGY PREDICTED BY IDOCK:   -2.56 KCAL/MOL
REMARK 923 INTER-LIGAND FREE ENERGY PREDICTED BY IDOCK:   -3.36 KCAL/MOL
REMARK 924 INTRA-LIGAND FREE ENERGY PREDICTED BY IDOCK:    0.80 KCAL/MOL
REMARK 927      BINDING AFFINITY PREDICTED BY RF-SCORE:    0.00 PKD
ROOT
HETATM    1  O   UNL     1      -5.855  13.552  71.619  1.00  0.00    -0.367 OA 
HETATM    2  P   UNL     1      -5.868  13.669  70.029  1.00  0.00    -0.148 P  
HETATM    3  O   UNL     1      -7.388  13.897  69.556  1.00  0.00     0.045 OA 
HETATM    4  O   UNL     1      -5.133  12.543  69.382  1.00  0.00    -0.069 OA 
HETATM    5  O   UNL     1      -5.183  15.099  69.845  1.00  0.00    -0.095 OA 
ENDROOT
BRANCH   3   6
HETATM    6  C   UNL     1      -7.505  13.603  68.172  1.00  0.00    -0.125 C  
BRANCH   6   7
HETATM    7  N   UNL     1      -8.104  12.334  67.853  1.00  0.00    -0.144 N  
HETATM    8  C   UNL     1      -9.428  12.322  67.526  1.00  0.00    -0.182 C  
HETATM    9  N   UNL     1      -9.954  11.088  67.762  1.00  0.00    -0.171 NA 
HETATM   10  O   UNL     1     -10.106  13.269  67.158  1.00  0.00    -0.235 OA 
HETATM   11  C   UNL     1      -9.025  10.179  68.390  1.00  0.00    -0.123 C  
HETATM   12  O   UNL     1      -6.702  10.886  68.982  1.00  0.00    -0.058 OA 
HETATM   13  C   UNL     1      -7.777  11.140  68.445  1.00  0.00    -0.125 C  
BRANCH  11  14
HETATM   14  C   UNL     1      -9.428   9.826  69.837  1.00  0.00    -0.264 A  
HETATM   15  C   UNL     1      -8.568   9.163  70.734  1.00  0.00    -0.265 A  
HETATM   16  C   UNL     1     -10.726  10.142  70.289  1.00  0.00    -0.352 A  
HETATM   17  C   UNL     1     -11.147   9.813  71.579  1.00  0.00    -0.222 A  
HETATM   18  C   UNL     1      -8.992   8.832  72.025  1.00  0.00    -0.227 A  
HETATM   19  C   UNL     1     -10.279   9.154  72.446  1.00  0.00     0.443 A  
ENDBRANCH  11  14
BRANCH  11  20
HETATM   20  C   UNL     1      -8.900   8.972  67.448  1.00  0.00    -0.125 A  
HETATM   21  C   UNL     1      -7.806   7.832  65.589  1.00  0.00    -0.107 A  
HETATM   22  C   UNL     1      -8.820   6.879  65.552  1.00  0.00     0.020 A  
HETATM   23  C   UNL     1      -9.879   6.959  66.452  1.00  0.00    -0.101 A  
HETATM   24  C   UNL     1      -9.923   7.997  67.384  1.00  0.00    -0.270 A  
HETATM   25  C   UNL     1      -7.844   8.869  66.524  1.00  0.00    -0.100 A  
ENDBRANCH  11  20
ENDBRANCH   6   7
ENDBRANCH   3   6
TORSDOF 4
ENDMDL
MODEL      138
REMARK 921   NORMALIZED FREE ENERGY PREDICTED BY IDOCK:   -1.04 KCAL/MOL
REMARK 922        TOTAL FREE ENERGY PREDICTED BY IDOCK:   -2.14 KCAL/MOL
REMARK 923 INTER-LIGAND FREE ENERGY PREDICTED BY IDOCK:   -3.59 KCAL/MOL
REMARK 924 INTRA-LIGAND FREE ENERGY PREDICTED BY IDOCK:    1.45 KCAL/MOL
REMARK 927      BINDING AFFINITY PREDICTED BY RF-SCORE:    0.00 PKD
ROOT
HETATM    1  O   UNL     1      -6.801  20.122  68.503  1.00  0.00    -0.297 OA 
HETATM    2  P   UNL     1      -6.484  18.572  68.692  1.00  0.00    -0.245 P  
HETATM    3  O   UNL     1      -5.798  18.031  67.342  1.00  0.00    -0.145 OA 
HETATM    4  O   UNL     1      -7.676  17.817  69.179  1.00  0.00    -0.166 OA 
HETATM    5  O   UNL     1      -5.280  18.654  69.736  1.00  0.00    -0.176 OA 
ENDROOT
BRANCH   3   6
HETATM    6  C   UNL     1      -5.874  16.614  67.304  1.00  0.00    -0.165 C  
BRANCH   6   7
HETATM    7  N   UNL     1      -7.147  16.068  66.914  1.00  0.00    -0.195 N  
HETATM    8  C   UNL     1      -8.002  16.879  66.229  1.00  0.00    -0.315 C  
HETATM    9  N   UNL     1      -9.284  16.444  66.389  1.00  0.00    -0.278 NA 
HETATM   10  O   UNL     1      -7.724  17.902  65.623  1.00  0.00    -0.541 OA 
HETATM   11  C   UNL     1      -9.404  15.341  67.312  1.00  0.00    -0.205 C  
HETATM   12  O   UNL     1      -7.411  14.397  68.487  1.00  0.00    -0.107 OA 
HETATM   13  C   UNL     1      -7.875  15.169  67.653  1.00  0.00    -0.160 C  
BRANCH  11  14
HETATM   14  C   UNL     1     -10.147  15.732  68.607  1.00  0.00    -0.211 A  
HETATM   15  C   UNL     1      -9.613  15.518  69.893  1.00  0.00    -0.112 A  
HETATM   16  C   UNL     1     -11.435  16.299  68.520  1.00  0.00    -0.272 A  
HETATM   17  C   UNL     1     -12.159  16.638  69.665  1.00  0.00     1.099 A  
HETATM   18  C   UNL     1     -10.340  15.856  71.039  1.00  0.00     0.759 A  
HETATM   19  C   UNL     1     -11.611  16.413  70.926  1.00  0.00    -0.187 A  
ENDBRANCH  11  14
BRANCH  11  20
HETATM   20  C   UNL     1     -10.049  14.190  66.527  1.00  0.00    -0.283 A  
HETATM   21  C   UNL     1     -10.219  12.826  64.512  1.00  0.00    -0.333 A  
HETATM   22  C   UNL     1     -11.394  12.246  64.981  1.00  0.00    -0.376 A  
HETATM   23  C   UNL     1     -11.910  12.628  66.216  1.00  0.00    -0.471 A  
HETATM   24  C   UNL     1     -11.251  13.594  66.977  1.00  0.00    -0.328 A  
HETATM   25  C   UNL     1      -9.552  13.789  65.273  1.00  0.00     0.117 A  
ENDBRANCH  11  20
ENDBRANCH   6   7
ENDBRANCH   3   6
TORSDOF 4
ENDMDL
MODEL      139
REMARK 921   NORMALIZED FREE ENERGY PREDICTED BY IDOCK:   -0.52 KCAL/MOL
REMARK 922        TOTAL FREE ENERGY PREDICTED BY IDOCK:   -1.49 KCAL/MOL
REMARK 923 INTER-LIGAND FREE ENERGY PREDICTED BY IDOCK:   -2.54 KCAL/MOL
REMARK 924 INTRA-LIGAND FREE ENERGY PREDICTED BY IDOCK:    1.05 KCAL/MOL
REMARK 927      BINDING AFFINITY PREDICTED BY RF-SCORE:    0.00 PKD
ROOT
HETATM    1  O   UNL     1     -12.030  12.099  69.767  1.00  0.00    -0.315 OA 
HETATM    2  P   UNL     1     -12.059  10.543  69.425  1.00  0.00     0.162 P  
HETATM    3  O   UNL     1     -11.047   9.790  70.422  1.00  0.00    -0.260 OA 
HETATM    4  O   UNL     1     -11.866  10.290  67.967  1.00  0.00    -0.214 OA 
HETATM    5  O   UNL     1     -13.507  10.159  69.976  1.00  0.00     0.164 OA 
ENDROOT
BRANCH   3   6
HETATM    6  C   UNL     1     -10.734   8.507  69.903  1.00  0.00    -0.224 C  
BRANCH   6   7
HETATM    7  N   UNL     1     -10.400   8.464  68.504  1.00  0.00    -0.209 N  
HETATM    8  C   UNL     1     -10.840   7.397  67.779  1.00  0.00    -0.116 C  
HETATM    9  N   UNL     1     -10.052   7.223  66.682  1.00  0.00    -0.201 NA 
HETATM   10  O   UNL     1     -11.743   6.628  68.070  1.00  0.00     0.278 OA 
HETATM   11  C   UNL     1      -8.919   8.117  66.642  1.00  0.00    -0.152 C  
HETATM   12  O   UNL     1      -8.497   9.774  68.464  1.00  0.00    -0.112 OA 
HETATM   13  C   UNL     1      -9.223   8.919  67.964  1.00  0.00    -0.139 C  
BRANCH  11  14
HETATM   14  C   UNL     1      -7.576   7.378  66.823  1.00  0.00    -0.101 A  
HETATM   15  C   UNL     1      -6.327   7.994  66.612  1.00  0.00    -0.054 A  
HETATM   16  C   UNL     1      -7.580   6.014  67.182  1.00  0.00    -0.092 A  
HETATM   17  C   UNL     1      -6.391   5.297  67.324  1.00  0.00    -0.036 A  
HETATM   18  C   UNL     1      -5.137   7.273  66.752  1.00  0.00    -0.022 A  
HETATM   19  C   UNL     1      -5.169   5.927  67.106  1.00  0.00    -0.005 A  
ENDBRANCH  11  14
BRANCH  11  20
HETATM   20  C   UNL     1      -9.041   8.911  65.333  1.00  0.00    -0.222 A  
HETATM   21  C   UNL     1      -8.054   9.799  63.287  1.00  0.00    -0.149 A  
HETATM   22  C   UNL     1      -9.185  10.575  63.056  1.00  0.00    -0.313 A  
HETATM   23  C   UNL     1     -10.249  10.533  63.952  1.00  0.00    -0.199 A  
HETATM   24  C   UNL     1     -10.176   9.717  65.082  1.00  0.00     0.120 A  
HETATM   25  C   UNL     1      -7.979   8.976  64.413  1.00  0.00    -0.133 A  
ENDBRANCH  11  20
ENDBRANCH   6   7
ENDBRANCH   3   6
TORSDOF 4
ENDMDL
MODEL      140
REMARK 921   NORMALIZED FREE ENERGY PREDICTED BY IDOCK:   -0.51 KCAL/MOL
REMARK 922        TOTAL FREE ENERGY PREDICTED BY IDOCK:   -1.49 KCAL/MOL
REMARK 923 INTER-LIGAND FREE ENERGY PREDICTED BY IDOCK:   -2.88 KCAL/MOL
REMARK 924 INTRA-LIGAND FREE ENERGY PREDICTED BY IDOCK:    1.40 KCAL/MOL
REMARK 927      BINDING AFFINITY PREDICTED BY RF-SCORE:    0.00 PKD
ROOT
HETATM    1  O   UNL     1     -13.128  16.087  63.599  1.00  0.00     0.137 OA 
HETATM    2  P   UNL     1     -12.071  15.507  64.641  1.00  0.00     0.246 P  
HETATM    3  O   UNL     1     -11.975  16.528  65.880  1.00  0.00     1.367 OA 
HETATM    4  O   UNL     1     -10.783  15.141  63.981  1.00  0.00     0.490 OA 
HETATM    5  O   UNL     1     -12.893  14.268  65.219  1.00  0.00    -0.630 OA 
ENDROOT
BRANCH   3   6
HETATM    6  C   UNL     1     -10.785  16.277  66.612  1.00  0.00    -0.197 C  
BRANCH   6   7
HETATM    7  N   UNL     1     -10.966  15.709  67.922  1.00  0.00    -0.310 N  
HETATM    8  C   UNL     1      -9.981  15.914  68.843  1.00  0.00    -0.225 C  
HETATM    9  N   UNL     1     -10.024  14.938  69.794  1.00  0.00    -0.038 NA 
HETATM   10  O   UNL     1      -9.114  16.773  68.819  1.00  0.00    -0.251 OA 
HETATM   11  C   UNL     1     -10.997  13.909  69.515  1.00  0.00    -0.063 C  
HETATM   12  O   UNL     1     -12.407  13.966  67.453  1.00  0.00    -0.316 OA 
HETATM   13  C   UNL     1     -11.580  14.509  68.179  1.00  0.00    -0.331 C  
BRANCH  11  14
HETATM   14  C   UNL     1     -10.343  12.550  69.190  1.00  0.00     0.149 A  
HETATM   15  C   UNL     1     -10.800  11.330  69.727  1.00  0.00    -0.089 A  
HETATM   16  C   UNL     1      -9.214  12.510  68.346  1.00  0.00    -0.139 A  
HETATM   17  C   UNL     1      -8.569  11.307  68.051  1.00  0.00    -0.140 A  
HETATM   18  C   UNL     1     -10.152  10.127  69.432  1.00  0.00    -0.250 A  
HETATM   19  C   UNL     1      -9.038  10.115  68.597  1.00  0.00    -0.143 A  
ENDBRANCH  11  14
BRANCH  11  20
HETATM   20  C   UNL     1     -11.957  13.887  70.714  1.00  0.00    -0.348 A  
HETATM   21  C   UNL     1     -12.894  14.940  72.705  1.00  0.00    -0.483 A  
HETATM   22  C   UNL     1     -13.528  13.753  73.058  1.00  0.00    -0.035 A  
HETATM   23  C   UNL     1     -13.385  12.626  72.254  1.00  0.00    -0.527 A  
HETATM   24  C   UNL     1     -12.603  12.689  71.099  1.00  0.00    -0.354 A  
HETATM   25  C   UNL     1     -12.115  15.009  71.547  1.00  0.00    -0.403 A  
ENDBRANCH  11  20
ENDBRANCH   6   7
ENDBRANCH   3   6
TORSDOF 4
ENDMDL
MODEL      141
REMARK 921   NORMALIZED FREE ENERGY PREDICTED BY IDOCK:   -0.42 KCAL/MOL
REMARK 922        TOTAL FREE ENERGY PREDICTED BY IDOCK:   -1.37 KCAL/MOL
REMARK 923 INTER-LIGAND FREE ENERGY PREDICTED BY IDOCK:   -3.50 KCAL/MOL
REMARK 924 INTRA-LIGAND FREE ENERGY PREDICTED BY IDOCK:    2.13 KCAL/MOL
REMARK 927      BINDING AFFINITY PREDICTED BY RF-SCORE:    0.00 PKD
ROOT
HETATM    1  O   UNL     1     -10.474   3.526  72.345  1.00  0.00    -0.136 OA 
HETATM    2  P   UNL     1      -9.621   4.524  71.442  1.00  0.00    -0.184 P  
HETATM    3  O   UNL     1      -9.503   5.927  72.219  1.00  0.00    -0.148 OA 
HETATM    4  O   UNL     1     -10.131   4.581  70.041  1.00  0.00    -0.227 OA 
HETATM    5  O   UNL     1      -8.171   3.872  71.592  1.00  0.00    -0.075 OA 
ENDROOT
BRANCH   3   6
HETATM    6  C   UNL     1      -9.120   6.945  71.306  1.00  0.00    -0.149 C  
BRANCH   6   7
HETATM    7  N   UNL     1      -8.739   6.495  69.993  1.00  0.00    -0.139 N  
HETATM    8  C   UNL     1      -7.414   6.517  69.675  1.00  0.00    -0.093 C  
HETATM    9  N   UNL     1      -7.261   6.578  68.323  1.00  0.00    -0.083 NA 
HETATM   10  O   UNL     1      -6.470   6.567  70.448  1.00  0.00    -0.041 OA 
HETATM   11  C   UNL     1      -8.509   6.719  67.611  1.00  0.00    -0.122 C  
HETATM   12  O   UNL     1     -10.693   6.860  68.817  1.00  0.00    -0.217 OA 
HETATM   13  C   UNL     1      -9.479   6.686  68.853  1.00  0.00    -0.130 C  
BRANCH  11  14
HETATM   14  C   UNL     1      -8.647   8.095  66.926  1.00  0.00    -0.126 A  
HETATM   15  C   UNL     1      -9.792   8.479  66.200  1.00  0.00    -0.227 A  
HETATM   16  C   UNL     1      -7.576   9.008  66.988  1.00  0.00    -0.091 A  
HETATM   17  C   UNL     1      -7.642  10.252  66.356  1.00  0.00    -0.117 A  
HETATM   18  C   UNL     1      -9.856   9.724  65.565  1.00  0.00    -0.378 A  
HETATM   19  C   UNL     1      -8.783  10.607  65.641  1.00  0.00    -0.198 A  
ENDBRANCH  11  14
BRANCH  11  20
HETATM   20  C   UNL     1      -8.600   5.517  66.658  1.00  0.00    -0.116 A  
HETATM   21  C   UNL     1      -7.862   4.332  64.658  1.00  0.00    -0.085 A  
HETATM   22  C   UNL     1      -8.930   3.447  64.766  1.00  0.00    -0.130 A  
HETATM   23  C   UNL     1      -9.841   3.584  65.809  1.00  0.00     0.018 A  
HETATM   24  C   UNL     1      -9.683   4.611  66.741  1.00  0.00    -0.214 A  
HETATM   25  C   UNL     1      -7.697   5.359  65.591  1.00  0.00    -0.091 A  
ENDBRANCH  11  20
ENDBRANCH   6   7
ENDBRANCH   3   6
TORSDOF 4
ENDMDL
MODEL      142
REMARK 921   NORMALIZED FREE ENERGY PREDICTED BY IDOCK:    0.65 KCAL/MOL
REMARK 922        TOTAL FREE ENERGY PREDICTED BY IDOCK:   -0.05 KCAL/MOL
REMARK 923 INTER-LIGAND FREE ENERGY PREDICTED BY IDOCK:   -2.49 KCAL/MOL
REMARK 924 INTRA-LIGAND FREE ENERGY PREDICTED BY IDOCK:    2.43 KCAL/MOL
REMARK 927      BINDING AFFINITY PREDICTED BY RF-SCORE:    0.00 PKD
ROOT
HETATM    1  O   UNL     1     -12.496  12.301  68.937  1.00  0.00     0.069 OA 
HETATM    2  P   UNL     1     -12.160  10.818  69.414  1.00  0.00    -0.006 P  
HETATM    3  O   UNL     1     -11.530  10.896  70.892  1.00  0.00    -0.205 OA 
HETATM    4  O   UNL     1     -11.367  10.072  68.393  1.00  0.00    -0.183 OA 
HETATM    5  O   UNL     1     -13.635  10.254  69.648  1.00  0.00     0.540 OA 
ENDROOT
BRANCH   3   6
HETATM    6  C   UNL     1     -10.853   9.684  71.186  1.00  0.00    -0.334 C  
BRANCH   6   7
HETATM    7  N   UNL     1     -10.353   8.957  70.048  1.00  0.00    -0.197 N  
HETATM    8  C   UNL     1     -10.804   7.684  69.861  1.00  0.00    -0.235 C  
HETATM    9  N   UNL     1      -9.906   6.978  69.118  1.00  0.00    -0.156 NA 
HETATM   10  O   UNL     1     -11.809   7.179  70.337  1.00  0.00    -0.270 OA 
HETATM   11  C   UNL     1      -8.694   7.709  68.836  1.00  0.00    -0.135 C  
HETATM   12  O   UNL     1      -8.340  10.032  69.688  1.00  0.00    -0.156 OA 
HETATM   13  C   UNL     1      -9.079   9.061  69.549  1.00  0.00    -0.151 C  
BRANCH  11  14
HETATM   14  C   UNL     1      -7.465   7.116  69.556  1.00  0.00    -0.095 A  
HETATM   15  C   UNL     1      -6.870   7.718  70.682  1.00  0.00    -0.042 A  
HETATM   16  C   UNL     1      -6.873   5.938  69.056  1.00  0.00    -0.062 A  
HETATM   17  C   UNL     1      -5.740   5.383  69.654  1.00  0.00    -0.016 A  
HETATM   18  C   UNL     1      -5.734   7.162  71.279  1.00  0.00    -0.035 A  
HETATM   19  C   UNL     1      -5.169   5.998  70.765  1.00  0.00    -0.013 A  
ENDBRANCH  11  14
BRANCH  11  20
HETATM   20  C   UNL     1      -8.573   7.769  67.306  1.00  0.00    -0.128 A  
HETATM   21  C   UNL     1      -7.942   6.747  65.183  1.00  0.00    -0.128 A  
HETATM   22  C   UNL     1      -8.110   7.962  64.527  1.00  0.00    -0.114 A  
HETATM   23  C   UNL     1      -8.505   9.088  65.243  1.00  0.00    -0.181 A  
HETATM   24  C   UNL     1      -8.727   8.996  66.618  1.00  0.00    -0.140 A  
HETATM   25  C   UNL     1      -8.168   6.649  66.558  1.00  0.00    -0.114 A  
ENDBRANCH  11  20
ENDBRANCH   6   7
ENDBRANCH   3   6
TORSDOF 4
ENDMDL
MODEL      143
REMARK 921   NORMALIZED FREE ENERGY PREDICTED BY IDOCK:    1.29 KCAL/MOL
REMARK 922        TOTAL FREE ENERGY PREDICTED BY IDOCK:    0.74 KCAL/MOL
REMARK 923 INTER-LIGAND FREE ENERGY PREDICTED BY IDOCK:   -1.75 KCAL/MOL
REMARK 924 INTRA-LIGAND FREE ENERGY PREDICTED BY IDOCK:    2.49 KCAL/MOL
REMARK 927      BINDING AFFINITY PREDICTED BY RF-SCORE:    0.00 PKD
ROOT
HETATM    1  O   UNL     1      -5.350  13.043  70.800  1.00  0.00    -0.136 OA 
HETATM    2  P   UNL     1      -6.208  13.622  69.588  1.00  0.00    -0.087 P  
HETATM    3  O   UNL     1      -7.346  14.584  70.193  1.00  0.00     0.062 OA 
HETATM    4  O   UNL     1      -6.672  12.542  68.669  1.00  0.00    -0.075 OA 
HETATM    5  O   UNL     1      -5.148  14.628  68.946  1.00  0.00    -0.086 OA 
ENDROOT
BRANCH   3   6
HETATM    6  C   UNL     1      -8.361  14.789  69.222  1.00  0.00    -0.047 C  
BRANCH   6   7
HETATM    7  N   UNL     1      -8.420  13.813  68.166  1.00  0.00    -0.165 N  
HETATM    8  C   UNL     1      -7.877  14.150  66.961  1.00  0.00     0.100 C  
HETATM    9  N   UNL     1      -8.443  13.404  65.971  1.00  0.00     0.934 NA 
HETATM   10  O   UNL     1      -7.069  15.038  66.737  1.00  0.00     0.017 OA 
HETATM   11  C   UNL     1      -9.522  12.563  66.434  1.00  0.00    -0.233 C  
HETATM   12  O   UNL     1     -10.241  12.555  68.827  1.00  0.00    -0.188 OA 
HETATM   13  C   UNL     1      -9.457  12.938  67.963  1.00  0.00    -0.213 C  
BRANCH  11  14
HETATM   14  C   UNL     1     -10.894  13.006  65.885  1.00  0.00    -0.291 A  
HETATM   15  C   UNL     1     -11.793  12.120  65.258  1.00  0.00    -0.356 A  
HETATM   16  C   UNL     1     -11.268  14.362  65.974  1.00  0.00    -0.333 A  
HETATM   17  C   UNL     1     -12.486  14.816  65.461  1.00  0.00    -0.013 A  
HETATM   18  C   UNL     1     -13.011  12.576  64.743  1.00  0.00    -0.115 A  
HETATM   19  C   UNL     1     -13.356  13.921  64.843  1.00  0.00     0.599 A  
ENDBRANCH  11  14
BRANCH  11  20
HETATM   20  C   UNL     1      -9.126  11.121  66.079  1.00  0.00    -0.217 A  
HETATM   21  C   UNL     1      -8.558   9.419  64.427  1.00  0.00    -0.214 A  
HETATM   22  C   UNL     1      -8.649   8.423  65.395  1.00  0.00    -0.193 A  
HETATM   23  C   UNL     1      -8.979   8.757  66.705  1.00  0.00    -0.168 A  
HETATM   24  C   UNL     1      -9.223  10.089  67.043  1.00  0.00    -0.167 A  
HETATM   25  C   UNL     1      -8.795  10.754  64.762  1.00  0.00    -0.162 A  
ENDBRANCH  11  20
ENDBRANCH   6   7
ENDBRANCH   3   6
TORSDOF 4
ENDMDL
MODEL      144
REMARK 921   NORMALIZED FREE ENERGY PREDICTED BY IDOCK:    3.53 KCAL/MOL
REMARK 922        TOTAL FREE ENERGY PREDICTED BY IDOCK:    3.51 KCAL/MOL
REMARK 923 INTER-LIGAND FREE ENERGY PREDICTED BY IDOCK:    2.86 KCAL/MOL
REMARK 924 INTRA-LIGAND FREE ENERGY PREDICTED BY IDOCK:    0.65 KCAL/MOL
REMARK 927      BINDING AFFINITY PREDICTED BY RF-SCORE:    0.00 PKD
ROOT
HETATM    1  O   UNL     1      -6.173  17.391  71.975  1.00  0.00     2.232 OA 
HETATM    2  P   UNL     1      -6.557  17.199  70.440  1.00  0.00     1.633 P  
HETATM    3  O   UNL     1      -7.022  15.674  70.226  1.00  0.00     0.068 OA 
HETATM    4  O   UNL     1      -5.483  17.699  69.532  1.00  0.00    -0.183 OA 
HETATM    5  O   UNL     1      -7.915  18.034  70.381  1.00  0.00     2.420 OA 
ENDROOT
BRANCH   3   6
HETATM    6  C   UNL     1      -6.979  15.353  68.844  1.00  0.00    -0.127 C  
BRANCH   6   7
HETATM    7  N   UNL     1      -8.238  14.993  68.247  1.00  0.00    -0.140 N  
HETATM    8  C   UNL     1      -9.357  15.095  69.019  1.00  0.00    -0.219 C  
HETATM    9  N   UNL     1     -10.329  14.269  68.540  1.00  0.00    -0.239 NA 
HETATM   10  O   UNL     1      -9.491  15.746  70.043  1.00  0.00    -0.105 OA 
HETATM   11  C   UNL     1      -9.887  13.439  67.445  1.00  0.00    -0.227 C  
HETATM   12  O   UNL     1      -7.542  13.546  66.586  1.00  0.00     0.486 OA 
HETATM   13  C   UNL     1      -8.413  13.986  67.332  1.00  0.00    -0.200 C  
BRANCH  11  14
HETATM   14  C   UNL     1      -9.820  11.944  67.824  1.00  0.00    -0.187 A  
HETATM   15  C   UNL     1     -10.621  11.372  68.832  1.00  0.00    -0.234 A  
HETATM   16  C   UNL     1      -8.896  11.106  67.168  1.00  0.00    -0.143 A  
HETATM   17  C   UNL     1      -8.777   9.754  67.501  1.00  0.00    -0.125 A  
HETATM   18  C   UNL     1     -10.499  10.019  69.166  1.00  0.00    -0.238 A  
HETATM   19  C   UNL     1      -9.578   9.213  68.503  1.00  0.00    -0.156 A  
ENDBRANCH  11  14
BRANCH  11  20
HETATM   20  C   UNL     1     -10.813  13.758  66.261  1.00  0.00    -0.283 A  
HETATM   21  C   UNL     1     -11.975  15.371  64.848  1.00  0.00    -0.017 A  
HETATM   22  C   UNL     1     -12.709  14.349  64.254  1.00  0.00     0.051 A  
HETATM   23  C   UNL     1     -12.510  13.031  64.652  1.00  0.00    -0.460 A  
HETATM   24  C   UNL     1     -11.578  12.738  65.649  1.00  0.00    -0.410 A  
HETATM   25  C   UNL     1     -11.038  15.082  65.843  1.00  0.00    -0.334 A  
ENDBRANCH  11  20
ENDBRANCH   6   7
ENDBRANCH   3   6
TORSDOF 4
ENDMDL
MODEL      145
REMARK 921   NORMALIZED FREE ENERGY PREDICTED BY IDOCK:   11.98 KCAL/MOL
REMARK 922        TOTAL FREE ENERGY PREDICTED BY IDOCK:   13.93 KCAL/MOL
REMARK 923 INTER-LIGAND FREE ENERGY PREDICTED BY IDOCK:   -1.61 KCAL/MOL
REMARK 924 INTRA-LIGAND FREE ENERGY PREDICTED BY IDOCK:   15.54 KCAL/MOL
REMARK 927      BINDING AFFINITY PREDICTED BY RF-SCORE:    0.00 PKD
ROOT
HETATM    1  O   UNL     1      -6.669  19.821  68.828  1.00  0.00    -0.293 OA 
HETATM    2  P   UNL     1      -7.087  19.008  67.522  1.00  0.00    -0.209 P  
HETATM    3  O   UNL     1      -8.465  19.622  66.968  1.00  0.00    -0.287 OA 
HETATM    4  O   UNL     1      -7.062  17.534  67.754  1.00  0.00    -0.174 OA 
HETATM    5  O   UNL     1      -5.984  19.535  66.496  1.00  0.00    -0.166 OA 
ENDROOT
BRANCH   3   6
HETATM    6  C   UNL     1      -9.074  18.698  66.079  1.00  0.00     0.025 C  
BRANCH   6   7
HETATM    7  N   UNL     1      -9.019  17.317  66.481  1.00  0.00    -0.259 N  
HETATM    8  C   UNL     1      -9.963  16.875  67.360  1.00  0.00    -0.269 C  
HETATM    9  N   UNL     1      -9.501  15.778  68.024  1.00  0.00    -0.201 NA 
HETATM   10  O   UNL     1     -11.036  17.397  67.616  1.00  0.00    -0.214 OA 
HETATM   11  C   UNL     1      -8.129  15.456  67.714  1.00  0.00    -0.140 C  
HETATM   12  O   UNL     1      -6.787  16.841  66.125  1.00  0.00    -0.108 OA 
HETATM   13  C   UNL     1      -7.865  16.597  66.660  1.00  0.00    -0.281 C  
BRANCH  11  14
HETATM   14  C   UNL     1      -7.183  15.677  68.913  1.00  0.00    -0.146 A  
HETATM   15  C   UNL     1      -7.305  16.770  69.795  1.00  0.00     0.474 A  
HETATM   16  C   UNL     1      -6.121  14.776  69.132  1.00  0.00    -0.102 A  
HETATM   17  C   UNL     1      -5.221  14.955  70.185  1.00  0.00    -0.104 A  
HETATM   18  C   UNL     1      -6.402  16.948  70.847  1.00  0.00     1.479 A  
HETATM   19  C   UNL     1      -5.361  16.045  71.041  1.00  0.00    -0.038 A  
ENDBRANCH  11  14
BRANCH  11  20
HETATM   20  C   UNL     1      -8.137  14.022  67.162  1.00  0.00    -0.121 A  
HETATM   21  C   UNL     1      -9.201  12.251  65.866  1.00  0.00    -0.031 A  
HETATM   22  C   UNL     1      -8.289  11.320  66.354  1.00  0.00    -0.159 A  
HETATM   23  C   UNL     1      -7.299  11.722  67.246  1.00  0.00    -0.141 A  
HETATM   24  C   UNL     1      -7.228  13.055  67.652  1.00  0.00    -0.151 A  
HETATM   25  C   UNL     1      -9.130  13.587  66.265  1.00  0.00     0.010 A  
ENDBRANCH  11  20
ENDBRANCH   6   7
ENDBRANCH   3   6
TORSDOF 4
ENDMDL
MODEL      146
REMARK 921   NORMALIZED FREE ENERGY PREDICTED BY IDOCK:   19.78 KCAL/MOL
REMARK 922        TOTAL FREE ENERGY PREDICTED BY IDOCK:   23.56 KCAL/MOL
REMARK 923 INTER-LIGAND FREE ENERGY PREDICTED BY IDOCK:   18.17 KCAL/MOL
REMARK 924 INTRA-LIGAND FREE ENERGY PREDICTED BY IDOCK:    5.39 KCAL/MOL
REMARK 927      BINDING AFFINITY PREDICTED BY RF-SCORE:    0.00 PKD
ROOT
HETATM    1  O   UNL     1      -9.043  13.960  72.147  1.00  0.00     7.936 OA 
HETATM    2  P   UNL     1     -10.046  13.480  71.006  1.00  0.00     7.229 P  
HETATM    3  O   UNL     1     -11.220  14.571  70.877  1.00  0.00    -0.116 OA 
HETATM    4  O   UNL     1     -10.475  12.064  71.204  1.00  0.00     4.410 OA 
HETATM    5  O   UNL     1      -9.143  13.723  69.713  1.00  0.00     1.120 OA 
ENDROOT
BRANCH   3   6
HETATM    6  C   UNL     1     -12.324  14.003  70.189  1.00  0.00    -0.345 C  
BRANCH   6   7
HETATM    7  N   UNL     1     -12.063  13.569  68.842  1.00  0.00    -0.327 N  
HETATM    8  C   UNL     1     -12.217  12.243  68.563  1.00  0.00     0.148 C  
HETATM    9  N   UNL     1     -11.468  11.908  67.474  1.00  0.00    -0.382 NA 
HETATM   10  O   UNL     1     -12.847  11.420  69.209  1.00  0.00     0.018 OA 
HETATM   11  C   UNL     1     -10.642  12.989  66.992  1.00  0.00    -0.257 C  
HETATM   12  O   UNL     1     -10.620  15.220  68.117  1.00  0.00    -0.244 OA 
HETATM   13  C   UNL     1     -11.095  14.092  68.022  1.00  0.00    -0.263 C  
BRANCH  11  14
HETATM   14  C   UNL     1      -9.137  12.721  67.201  1.00  0.00    -0.219 A  
HETATM   15  C   UNL     1      -8.292  13.598  67.910  1.00  0.00    -0.174 A  
HETATM   16  C   UNL     1      -8.555  11.568  66.635  1.00  0.00    -0.176 A  
HETATM   17  C   UNL     1      -7.191  11.301  66.769  1.00  0.00    -0.142 A  
HETATM   18  C   UNL     1      -6.926  13.330  68.041  1.00  0.00    -0.120 A  
HETATM   19  C   UNL     1      -6.376  12.186  67.471  1.00  0.00    -0.129 A  
ENDBRANCH  11  14
BRANCH  11  20
HETATM   20  C   UNL     1     -11.053  13.227  65.531  1.00  0.00    -0.299 A  
HETATM   21  C   UNL     1     -11.297  14.706  63.607  1.00  0.00     1.071 A  
HETATM   22  C   UNL     1     -12.037  13.739  62.934  1.00  0.00     0.904 A  
HETATM   23  C   UNL     1     -12.295  12.515  63.544  1.00  0.00    -0.623 A  
HETATM   24  C   UNL     1     -11.816  12.264  64.830  1.00  0.00    -0.417 A  
HETATM   25  C   UNL     1     -10.811  14.457  64.893  1.00  0.00    -0.430 A  
ENDBRANCH  11  20
ENDBRANCH   6   7
ENDBRANCH   3   6
TORSDOF 4
ENDMDL
MODEL      147
REMARK 921   NORMALIZED FREE ENERGY PREDICTED BY IDOCK:   19.83 KCAL/MOL
REMARK 922        TOTAL FREE ENERGY PREDICTED BY IDOCK:   23.62 KCAL/MOL
REMARK 923 INTER-LIGAND FREE ENERGY PREDICTED BY IDOCK:   17.93 KCAL/MOL
REMARK 924 INTRA-LIGAND FREE ENERGY PREDICTED BY IDOCK:    5.69 KCAL/MOL
REMARK 927      BINDING AFFINITY PREDICTED BY RF-SCORE:    0.00 PKD
ROOT
HETATM    1  O   UNL     1     -11.129  13.431  64.481  1.00  0.00    -0.346 OA 
HETATM    2  P   UNL     1     -11.106  12.130  65.400  1.00  0.00    -0.320 P  
HETATM    3  O   UNL     1     -12.596  11.878  65.951  1.00  0.00     0.180 OA 
HETATM    4  O   UNL     1     -10.022  12.190  66.423  1.00  0.00    -0.216 OA 
HETATM    5  O   UNL     1     -10.905  11.002  64.289  1.00  0.00    -0.353 OA 
ENDROOT
BRANCH   3   6
HETATM    6  C   UNL     1     -12.549  11.003  67.068  1.00  0.00     4.208 C  
BRANCH   6   7
HETATM    7  N   UNL     1     -11.449  11.207  67.974  1.00  0.00    -0.299 N  
HETATM    8  C   UNL     1     -11.314  10.336  69.014  1.00  0.00    -0.180 C  
HETATM    9  N   UNL     1     -10.611  10.922  70.023  1.00  0.00    -0.018 NA 
HETATM   10  O   UNL     1     -11.803   9.221  69.112  1.00  0.00     0.577 OA 
HETATM   11  C   UNL     1     -10.308  12.312  69.778  1.00  0.00     1.125 C  
HETATM   12  O   UNL     1     -11.059  13.467  67.694  1.00  0.00    -0.253 OA 
HETATM   13  C   UNL     1     -10.957  12.433  68.348  1.00  0.00    -0.241 C  
BRANCH  11  14
HETATM   14  C   UNL     1     -11.064  13.260  70.734  1.00  0.00     1.727 A  
HETATM   15  C   UNL     1     -10.449  14.354  71.374  1.00  0.00     2.321 A  
HETATM   16  C   UNL     1     -12.423  13.014  71.018  1.00  0.00    -0.385 A  
HETATM   17  C   UNL     1     -13.138  13.825  71.902  1.00  0.00    -0.474 A  
HETATM   18  C   UNL     1     -11.167  15.163  72.261  1.00  0.00    -0.152 A  
HETATM   19  C   UNL     1     -12.507  14.899  72.526  1.00  0.00    -0.432 A  
ENDBRANCH  11  14
BRANCH  11  20
HETATM   20  C   UNL     1      -8.777  12.435  69.833  1.00  0.00     2.891 A  
HETATM   21  C   UNL     1      -6.652  12.983  68.770  1.00  0.00    -0.096 A  
HETATM   22  C   UNL     1      -5.953  12.425  69.837  1.00  0.00    -0.146 A  
HETATM   23  C   UNL     1      -6.650  11.867  70.905  1.00  0.00     1.679 A  
HETATM   24  C   UNL     1      -8.046  11.864  70.900  1.00  0.00     7.050 A  
HETATM   25  C   UNL     1      -8.048  12.988  68.765  1.00  0.00     0.086 A  
ENDBRANCH  11  20
ENDBRANCH   6   7
ENDBRANCH   3   6
TORSDOF 4
ENDMDL
MODEL      148
REMARK 921   NORMALIZED FREE ENERGY PREDICTED BY IDOCK:   21.06 KCAL/MOL
REMARK 922        TOTAL FREE ENERGY PREDICTED BY IDOCK:   25.13 KCAL/MOL
REMARK 923 INTER-LIGAND FREE ENERGY PREDICTED BY IDOCK:   10.24 KCAL/MOL
REMARK 924 INTRA-LIGAND FREE ENERGY PREDICTED BY IDOCK:   14.89 KCAL/MOL
REMARK 927      BINDING AFFINITY PREDICTED BY RF-SCORE:    0.00 PKD
ROOT
HETATM    1  O   UNL     1     -11.270   5.549  68.028  1.00  0.00     0.214 OA 
HETATM    2  P   UNL     1     -10.686   7.031  68.059  1.00  0.00    -0.136 P  
HETATM    3  O   UNL     1     -10.365   7.413  69.587  1.00  0.00    -0.211 OA 
HETATM    4  O   UNL     1     -11.552   7.985  67.304  1.00  0.00     1.135 OA 
HETATM    5  O   UNL     1      -9.250   6.784  67.408  1.00  0.00    -0.126 OA 
ENDROOT
BRANCH   3   6
HETATM    6  C   UNL     1     -10.239   8.822  69.709  1.00  0.00    -0.202 C  
BRANCH   6   7
HETATM    7  N   UNL     1      -9.477   9.471  68.675  1.00  0.00    -0.141 N  
HETATM    8  C   UNL     1      -9.369  10.830  68.726  1.00  0.00    -0.182 C  
HETATM    9  N   UNL     1      -9.104  11.322  67.483  1.00  0.00    -0.150 NA 
HETATM   10  O   UNL     1      -9.558  11.550  69.693  1.00  0.00     0.551 OA 
HETATM   11  C   UNL     1      -9.125  10.313  66.451  1.00  0.00    -0.152 C  
HETATM   12  O   UNL     1      -9.637   7.922  66.969  1.00  0.00    -0.165 OA 
HETATM   13  C   UNL     1      -9.426   9.065  67.365  1.00  0.00    -0.144 C  
BRANCH  11  14
HETATM   14  C   UNL     1     -10.306  10.492  65.474  1.00  0.00    -0.287 A  
HETATM   15  C   UNL     1     -10.134  10.798  64.109  1.00  0.00    -0.418 A  
HETATM   16  C   UNL     1     -11.626  10.383  65.958  1.00  0.00     1.634 A  
HETATM   17  C   UNL     1     -12.726  10.570  65.117  1.00  0.00     7.075 A  
HETATM   18  C   UNL     1     -11.237  10.987  63.270  1.00  0.00     0.405 A  
HETATM   19  C   UNL     1     -12.530  10.875  63.773  1.00  0.00     2.217 A  
ENDBRANCH  11  14
BRANCH  11  20
HETATM   20  C   UNL     1      -7.738  10.341  65.790  1.00  0.00    -0.143 A  
HETATM   21  C   UNL     1      -6.293   9.941  63.867  1.00  0.00    -0.126 A  
HETATM   22  C   UNL     1      -5.162  10.151  64.650  1.00  0.00    -0.098 A  
HETATM   23  C   UNL     1      -5.301  10.453  66.002  1.00  0.00    -0.070 A  
HETATM   24  C   UNL     1      -6.573  10.540  66.568  1.00  0.00    -0.100 A  
HETATM   25  C   UNL     1      -7.568  10.033  64.429  1.00  0.00    -0.145 A  
ENDBRANCH  11  20
ENDBRANCH   6   7
ENDBRANCH   3   6
TORSDOF 4
ENDMDL
MODEL      149
REMARK 921   NORMALIZED FREE ENERGY PREDICTED BY IDOCK:   24.09 KCAL/MOL
REMARK 922        TOTAL FREE ENERGY PREDICTED BY IDOCK:   28.87 KCAL/MOL
REMARK 923 INTER-LIGAND FREE ENERGY PREDICTED BY IDOCK:   28.18 KCAL/MOL
REMARK 924 INTRA-LIGAND FREE ENERGY PREDICTED BY IDOCK:    0.69 KCAL/MOL
REMARK 927      BINDING AFFINITY PREDICTED BY RF-SCORE:    0.00 PKD
ROOT
HETATM    1  O   UNL     1      -8.540  19.437  64.891  1.00  0.00     1.228 OA 
HETATM    2  P   UNL     1      -9.699  18.348  64.797  1.00  0.00     5.655 P  
HETATM    3  O   UNL     1      -9.020  16.890  64.798  1.00  0.00     2.270 OA 
HETATM    4  O   UNL     1     -10.646  18.638  63.681  1.00  0.00     6.884 OA 
HETATM    5  O   UNL     1     -10.334  18.483  66.255  1.00  0.00    -0.396 OA 
ENDROOT
BRANCH   3   6
HETATM    6  C   UNL     1      -9.949  15.932  64.314  1.00  0.00     2.832 C  
BRANCH   6   7
HETATM    7  N   UNL     1     -10.194  14.809  65.180  1.00  0.00    -0.389 N  
HETATM    8  C   UNL     1     -10.597  15.069  66.456  1.00  0.00    -0.305 C  
HETATM    9  N   UNL     1     -10.289  14.015  67.264  1.00  0.00    -0.262 NA 
HETATM   10  O   UNL     1     -11.083  16.105  66.881  1.00  0.00    -0.164 OA 
HETATM   11  C   UNL     1      -9.532  12.983  66.596  1.00  0.00    -0.256 C  
HETATM   12  O   UNL     1      -8.866  13.195  64.197  1.00  0.00     2.027 OA 
HETATM   13  C   UNL     1      -9.485  13.634  65.162  1.00  0.00     0.449 C  
BRANCH  11  14
HETATM   14  C   UNL     1      -8.087  12.872  67.125  1.00  0.00    -0.122 A  
HETATM   15  C   UNL     1      -7.510  11.653  67.534  1.00  0.00    -0.123 A  
HETATM   16  C   UNL     1      -7.304  14.039  67.246  1.00  0.00    -0.022 A  
HETATM   17  C   UNL     1      -6.003  13.992  67.751  1.00  0.00    -0.115 A  
HETATM   18  C   UNL     1      -6.208  11.609  68.041  1.00  0.00    -0.047 A  
HETATM   19  C   UNL     1      -5.457  12.775  68.152  1.00  0.00    -0.081 A  
ENDBRANCH  11  14
BRANCH  11  20
HETATM   20  C   UNL     1     -10.360  11.694  66.719  1.00  0.00    -0.257 A  
HETATM   21  C   UNL     1     -12.390  10.421  66.264  1.00  0.00     5.466 A  
HETATM   22  C   UNL     1     -11.989   9.429  67.154  1.00  0.00     4.365 A  
HETATM   23  C   UNL     1     -10.782   9.555  67.834  1.00  0.00    -0.285 A  
HETATM   24  C   UNL     1      -9.979  10.677  67.626  1.00  0.00    -0.197 A  
HETATM   25  C   UNL     1     -11.587  11.544  66.049  1.00  0.00     0.024 A  
ENDBRANCH  11  20
ENDBRANCH   6   7
ENDBRANCH   3   6
TORSDOF 4
ENDMDL
MODEL      150
REMARK 921   NORMALIZED FREE ENERGY PREDICTED BY IDOCK:   28.77 KCAL/MOL
REMARK 922        TOTAL FREE ENERGY PREDICTED BY IDOCK:   34.64 KCAL/MOL
REMARK 923 INTER-LIGAND FREE ENERGY PREDICTED BY IDOCK:   34.48 KCAL/MOL
REMARK 924 INTRA-LIGAND FREE ENERGY PREDICTED BY IDOCK:    0.17 KCAL/MOL
REMARK 927      BINDING AFFINITY PREDICTED BY RF-SCORE:    0.00 PKD
ROOT
HETATM    1  O   UNL     1     -12.908   6.348  68.957  1.00  0.00     3.537 OA 
HETATM    2  P   UNL     1     -11.510   6.348  68.193  1.00  0.00     1.098 P  
HETATM    3  O   UNL     1     -10.433   7.108  69.114  1.00  0.00    -0.201 OA 
HETATM    4  O   UNL     1     -11.644   6.836  66.789  1.00  0.00     0.143 OA 
HETATM    5  O   UNL     1     -11.116   4.807  68.322  1.00  0.00     0.957 OA 
ENDROOT
BRANCH   3   6
HETATM    6  C   UNL     1      -9.315   7.487  68.327  1.00  0.00    -0.141 C  
BRANCH   6   7
HETATM    7  N   UNL     1      -9.381   8.800  67.741  1.00  0.00    -0.140 N  
HETATM    8  C   UNL     1      -8.215   9.363  67.313  1.00  0.00    -0.117 C  
HETATM    9  N   UNL     1      -8.338  10.719  67.283  1.00  0.00    -0.123 NA 
HETATM   10  O   UNL     1      -7.166   8.789  67.066  1.00  0.00    -0.078 OA 
HETATM   11  C   UNL     1      -9.595  11.193  67.812  1.00  0.00    -0.172 C  
HETATM   12  O   UNL     1     -11.316   9.616  68.704  1.00  0.00    -0.026 OA 
HETATM   13  C   UNL     1     -10.241   9.793  68.137  1.00  0.00    -0.186 C  
BRANCH  11  14
HETATM   14  C   UNL     1      -9.425  11.966  69.137  1.00  0.00     0.378 A  
HETATM   15  C   UNL     1      -8.383  12.888  69.360  1.00  0.00     1.079 A  
HETATM   16  C   UNL     1     -10.323  11.726  70.197  1.00  0.00     1.657 A  
HETATM   17  C   UNL     1     -10.189  12.377  71.425  1.00  0.00     9.414 A  
HETATM   18  C   UNL     1      -8.249  13.538  70.591  1.00  0.00     4.750 A  
HETATM   19  C   UNL     1      -9.148  13.282  71.622  1.00  0.00    14.450 A  
ENDBRANCH  11  14
BRANCH  11  20
HETATM   20  C   UNL     1     -10.262  11.995  66.684  1.00  0.00    -0.229 A  
HETATM   21  C   UNL     1     -10.112  13.515  64.783  1.00  0.00    -0.267 A  
HETATM   22  C   UNL     1     -11.495  13.668  64.772  1.00  0.00    -0.367 A  
HETATM   23  C   UNL     1     -12.274  12.995  65.709  1.00  0.00    -0.511 A  
HETATM   24  C   UNL     1     -11.665  12.174  66.660  1.00  0.00    -0.385 A  
HETATM   25  C   UNL     1      -9.499  12.690  65.729  1.00  0.00    -0.043 A  
ENDBRANCH  11  20
ENDBRANCH   6   7
ENDBRANCH   3   6
TORSDOF 4
ENDMDL
MODEL      151
REMARK 921   NORMALIZED FREE ENERGY PREDICTED BY IDOCK:   42.75 KCAL/MOL
REMARK 922        TOTAL FREE ENERGY PREDICTED BY IDOCK:   51.89 KCAL/MOL
REMARK 923 INTER-LIGAND FREE ENERGY PREDICTED BY IDOCK:   43.70 KCAL/MOL
REMARK 924 INTRA-LIGAND FREE ENERGY PREDICTED BY IDOCK:    8.19 KCAL/MOL
REMARK 927      BINDING AFFINITY PREDICTED BY RF-SCORE:    0.00 PKD
ROOT
HETATM    1  O   UNL     1      -8.952  13.860  72.246  1.00  0.00     8.157 OA 
HETATM    2  P   UNL     1      -9.971  13.476  71.083  1.00  0.00     8.496 P  
HETATM    3  O   UNL     1     -11.208  14.502  71.140  1.00  0.00    -0.067 OA 
HETATM    4  O   UNL     1     -10.313  12.023  71.100  1.00  0.00     4.865 OA 
HETATM    5  O   UNL     1      -9.135  13.944  69.807  1.00  0.00     0.979 OA 
ENDROOT
BRANCH   3   6
HETATM    6  C   UNL     1     -12.305  13.966  70.416  1.00  0.00    -0.363 C  
BRANCH   6   7
HETATM    7  N   UNL     1     -12.128  13.875  68.991  1.00  0.00    -0.356 N  
HETATM    8  C   UNL     1     -13.212  13.534  68.237  1.00  0.00     3.500 C  
HETATM    9  N   UNL     1     -12.804  12.992  67.055  1.00  0.00     0.595 NA 
HETATM   10  O   UNL     1     -14.387  13.601  68.562  1.00  0.00     9.303 OA 
HETATM   11  C   UNL     1     -11.374  12.819  66.967  1.00  0.00    -0.314 C  
HETATM   12  O   UNL     1      -9.862  13.447  68.855  1.00  0.00    -0.079 OA 
HETATM   13  C   UNL     1     -10.989  13.427  68.369  1.00  0.00    -0.267 C  
BRANCH  11  14
HETATM   14  C   UNL     1     -10.959  11.332  66.954  1.00  0.00    -0.348 A  
HETATM   15  C   UNL     1     -10.147  10.754  67.950  1.00  0.00    -0.197 A  
HETATM   16  C   UNL     1     -11.372  10.509  65.887  1.00  0.00     0.745 A  
HETATM   17  C   UNL     1     -10.993   9.167  65.816  1.00  0.00     2.213 A  
HETATM   18  C   UNL     1      -9.766   9.410  67.876  1.00  0.00    -0.177 A  
HETATM   19  C   UNL     1     -10.186   8.619  66.810  1.00  0.00    -0.361 A  
ENDBRANCH  11  14
BRANCH  11  20
HETATM   20  C   UNL     1     -10.917  13.622  65.740  1.00  0.00    -0.281 A  
HETATM   21  C   UNL     1      -9.314  15.097  64.643  1.00  0.00     2.461 A  
HETATM   22  C   UNL     1     -10.196  15.300  63.586  1.00  0.00     4.975 A  
HETATM   23  C   UNL     1     -11.439  14.676  63.591  1.00  0.00     0.912 A  
HETATM   24  C   UNL     1     -11.800  13.852  64.659  1.00  0.00    -0.428 A  
HETATM   25  C   UNL     1      -9.668  14.269  65.711  1.00  0.00    -0.264 A  
ENDBRANCH  11  20
ENDBRANCH   6   7
ENDBRANCH   3   6
TORSDOF 4
ENDMDL
MODEL      152
REMARK 921   NORMALIZED FREE ENERGY PREDICTED BY IDOCK:   65.23 KCAL/MOL
REMARK 922        TOTAL FREE ENERGY PREDICTED BY IDOCK:   79.63 KCAL/MOL
REMARK 923 INTER-LIGAND FREE ENERGY PREDICTED BY IDOCK:   65.22 KCAL/MOL
REMARK 924 INTRA-LIGAND FREE ENERGY PREDICTED BY IDOCK:   14.41 KCAL/MOL
REMARK 927      BINDING AFFINITY PREDICTED BY RF-SCORE:    0.00 PKD
ROOT
HETATM    1  O   UNL     1      -7.760  13.979  72.358  1.00  0.00     4.492 OA 
HETATM    2  P   UNL     1      -8.629  12.717  71.919  1.00  0.00    21.523 P  
HETATM    3  O   UNL     1     -10.159  13.189  71.768  1.00  0.00     8.515 OA 
HETATM    4  O   UNL     1      -8.382  11.538  72.800  1.00  0.00    15.730 OA 
HETATM    5  O   UNL     1      -8.126  12.536  70.415  1.00  0.00     3.154 OA 
ENDROOT
BRANCH   3   6
HETATM    6  C   UNL     1     -11.011  12.054  71.783  1.00  0.00     6.503 C  
BRANCH   6   7
HETATM    7  N   UNL     1     -10.552  10.919  71.027  1.00  0.00     1.582 N  
HETATM    8  C   UNL     1     -11.357   9.820  70.980  1.00  0.00    -0.387 C  
HETATM    9  N   UNL     1     -10.615   8.711  70.707  1.00  0.00    -0.202 NA 
HETATM   10  O   UNL     1     -12.553   9.770  71.225  1.00  0.00    -0.320 OA 
HETATM   11  C   UNL     1      -9.195   8.969  70.659  1.00  0.00    -0.231 C  
HETATM   12  O   UNL     1      -8.266  11.251  71.077  1.00  0.00     3.982 OA 
HETATM   13  C   UNL     1      -9.242  10.521  70.926  1.00  0.00     2.632 C  
BRANCH  11  14
HETATM   14  C   UNL     1      -8.433   8.301  71.823  1.00  0.00    -0.207 A  
HETATM   15  C   UNL     1      -7.168   7.701  71.667  1.00  0.00    -0.064 A  
HETATM   16  C   UNL     1      -9.030   8.248  73.099  1.00  0.00    -0.301 A  
HETATM   17  C   UNL     1      -8.392   7.625  74.174  1.00  0.00    -0.272 A  
HETATM   18  C   UNL     1      -6.532   7.075  72.744  1.00  0.00    -0.057 A  
HETATM   19  C   UNL     1      -7.143   7.035  73.994  1.00  0.00    -0.087 A  
ENDBRANCH  11  14
BRANCH  11  20
HETATM   20  C   UNL     1      -8.727   8.543  69.259  1.00  0.00    -0.133 A  
HETATM   21  C   UNL     1      -9.211   7.998  66.932  1.00  0.00    -0.191 A  
HETATM   22  C   UNL     1      -7.916   7.519  66.755  1.00  0.00    -0.115 A  
HETATM   23  C   UNL     1      -7.018   7.543  67.817  1.00  0.00    -0.080 A  
HETATM   24  C   UNL     1      -7.419   8.042  69.057  1.00  0.00    -0.093 A  
HETATM   25  C   UNL     1      -9.616   8.503  68.169  1.00  0.00    -0.158 A  
ENDBRANCH  11  20
ENDBRANCH   6   7
ENDBRANCH   3   6
TORSDOF 4
ENDMDL
